TITL C-28654-2798-2 -6.549 3375.00 -1172.33881027 0 0 142 (C1) n - 1
REM
REM Run started: at 2020.12.21 00:01:38 in /rds/project/t2_vol4/rds-t2-cs072/BORA/CARBON/AIRSS/Generating-Clusters/Str-Search/Higher-Symm/C100-200
REM VASP from code version vasp.5.4.4.18Apr17-6-g9f103f2a35 (build Oct 11 2019 16:45:47) gamma-only
REM
REM
REM
REM
REM ./C.cell (533062f00bc710175b3da973d35f2034)
REM AIRSS Version 0.9.1 bugfix July 2018 build 013d7b7c2542+ Fri, 06 Jul 2018 19:26:36 +0100
REM compiler GCC version 4.8.5 20150623 (Red Hat 4.8.5-39)
REM options -cpp -mtune=generic -march=x86-64 -g -O0
REM seed -1653049328 299962854 -911399508 -1300696539 -196932685 -1289949151 -1150204479 -776533248 -1277290137 292498500 -308148888 -909467333
REM
REM C.POTCAR (d86ddea03c3ceb6dc662c8ad6801f873)
REM 
CELL 1.54180   15.00000   15.00000   15.00000   90.00000   90.00000   90.00000
LATT -1
SFAC C  
C      1  0.5270694971763  0.6028622015424  0.5802019770159 1.0
C      1  0.3825327617796  0.5331763741575  0.5009095352221 1.0
C      1  0.4589972265537  0.3617560029233  0.5538648386322 1.0
C      1  0.6308639019880  0.4156297864421  0.5028054129459 1.0
C      1  0.5807032426033  0.6247731324997  0.4978105804465 1.0
C      1  0.4226810636014  0.5713318394175  0.4156372308605 1.0
C      1  0.4484123687307  0.3821415680612  0.4562625049796 1.0
C      1  0.6361342915580  0.4854680650613  0.4279076901396 1.0
C      1  0.6794267211515  0.4280233664856  0.8267098587005 1.0
C      1  0.5575383979329  0.6713055577373  0.8089856863147 1.0
C      1  0.2989492539634  0.5601052448435  0.7992190078350 1.0
C      1  0.4397145400325  0.3055130615324  0.7879434666302 1.0
C      1  0.6594970874162  0.4101691068669  0.2005962232247 1.0
C      1  0.5490738099343  0.6922784715697  0.1971417741051 1.0
C      1  0.3009283455186  0.5703368648895  0.1785411563715 1.0
C      1  0.4006276576463  0.3099739590784  0.1880864145383 1.0
C      1  0.1941271363552  0.5353952501653  0.5862637426266 1.0
C      1  0.4565034110254  0.2066137947965  0.5701681988529 1.0
C      1  0.8055270529011  0.4985101830892  0.6253764864644 1.0
C      1  0.5002652854588  0.7689509781781  0.5885800560177 1.0
C      1  0.1893036224676  0.5306553587110  0.3977178566207 1.0
C      1  0.4159783708953  0.1955511572744  0.3563653992508 1.0
C      1  0.7958628483520  0.5100876154733  0.4344262069065 1.0
C      1  0.4891587340644  0.8117579451795  0.4039246788578 1.0
C      1  0.5343640781859  0.2958783383750  0.7914708707830 1.0
C      1  0.6876634717056  0.5206194572065  0.8371878440982 1.0
C      1  0.4655440781040  0.6778557338100  0.7998163656281 1.0
C      1  0.2871900888738  0.4660194436107  0.7902150603637 1.0
C      1  0.4996383369369  0.3047902803999  0.2117393484962 1.0
C      1  0.6734738701380  0.5064706684261  0.2123900106052 1.0
C      1  0.4525900426104  0.6958039448786  0.1898282681250 1.0
C      1  0.2889478224322  0.4759298092189  0.1811794461529 1.0
C      1  0.6531511151855  0.7102849871823  0.3267415547187 1.0
C      1  0.3259012711812  0.6803887011781  0.3128324338829 1.0
C      1  0.2894810159556  0.3825938048855  0.3139312598712 1.0
C      1  0.6395062406141  0.2559904560573  0.2869856247955 1.0
C      1  0.7108031932563  0.6542549942414  0.7104538650834 1.0
C      1  0.3434674195922  0.6855376507605  0.6709105853765 1.0
C      1  0.3270026870191  0.3620812601414  0.6579765071194 1.0
C      1  0.6787305084390  0.3150648919535  0.6777258032900 1.0
C      1  0.5969521268635  0.4262436335081  0.8800876836871 1.0
C      1  0.5456897055734  0.5974468914152  0.8777276105381 1.0
C      1  0.3756626800010  0.5531416540886  0.8616859118836 1.0
C      1  0.4335953692845  0.3721912107049  0.8578669078449 1.0
C      1  0.5875604849397  0.4284717453098  0.1371797895166 1.0
C      1  0.5512513836372  0.6077100138141  0.1450247193998 1.0
C      1  0.3840810927148  0.5608949771838  0.1282444816491 1.0
C      1  0.4218461519001  0.3761625234028  0.1214526048535 1.0
C      1  0.3642306283135  0.3346650204900  0.2757619631086 1.0
C      1  0.6727812501939  0.3455135569855  0.2654737064891 1.0
C      1  0.5733939163196  0.7363212884463  0.2775297358029 1.0
C      1  0.2725546448611  0.6093114645002  0.2615989923197 1.0
C      1  0.4165042250073  0.3300409129601  0.6972419321931 1.0
C      1  0.7002934752510  0.4013620874795  0.7322151521432 1.0
C      1  0.6034318796881  0.6692030931753  0.7197758060432 1.0
C      1  0.3076780452190  0.5955021513667  0.7030133683508 1.0
C      1  0.2525262160921  0.5286263370472  0.6565236215620 1.0
C      1  0.4834195947737  0.2836745834391  0.6244134548938 1.0
C      1  0.7542281086434  0.4828321950729  0.7003992278651 1.0
C      1  0.5200396259420  0.6872222204692  0.6462474206439 1.0
C      1  0.2268752445333  0.5352915125835  0.3101836272317 1.0
C      1  0.4901101441976  0.1878530669462  0.3178479613405 1.0
C      1  0.7198030300060  0.4797547909000  0.3716630592263 1.0
C      1  0.4893274774100  0.7658203700641  0.3189628831875 1.0
C      1  0.3523927015338  0.6237099327320  0.3920884763074 1.0
C      1  0.3570106223487  0.4252768372085  0.4754839284750 1.0
C      1  0.7264928453635  0.3075682440456  0.4159077194632 1.0
C      1  0.6569514466457  0.6652153982415  0.5148374740053 1.0
C      1  0.3195552153067  0.6131842470484  0.4802736767457 1.0
C      1  0.3586953964430  0.3660771439232  0.5607389487162 1.0
C      1  0.6946384150085  0.3375404226004  0.5077855154606 1.0
C      1  0.7187219362366  0.7244974924963  0.5604469136700 1.0
C      1  0.6675047579846  0.8081563347706  0.5429178657046 1.0
C      1  0.2621221911359  0.6844424379330  0.5264828066082 1.0
C      1  0.3055556177024  0.2781817862418  0.5387250169136 1.0
C      1  0.8092295788519  0.3356671118948  0.5650141142925 1.0
C      1  0.6600587411071  0.8194529546841  0.4487173868516 1.0
C      1  0.2097588972003  0.7080300002984  0.4360407059199 1.0
C      1  0.2899471825345  0.2834644121610  0.4424685988998 1.0
C      1  0.8046838066762  0.3430460253219  0.4665943589691 1.0
C      1  0.7099918784867  0.5586756977832  0.7480147767059 1.0
C      1  0.4377176472625  0.6661401814265  0.7047050380923 1.0
C      1  0.2621204395697  0.4380993807404  0.6939052081672 1.0
C      1  0.5757009824608  0.3024082430865  0.6995673766831 1.0
C      1  0.6948930185310  0.5416148510133  0.2960688621417 1.0
C      1  0.4129287626146  0.7225169358445  0.2703403097503 1.0
C      1  0.2527386365085  0.4524668689902  0.2647809076044 1.0
C      1  0.5506301447530  0.2349527376155  0.2632490025407 1.0
C      1  0.4862742235836  0.4452237781955  0.6009395278074 1.0
C      1  0.5892501694428  0.4474841781002  0.5940586372504 1.0
C      1  0.5947661104055  0.5419279211282  0.6220972432799 1.0
C      1  0.4439657738903  0.5397383158849  0.5853200738495 1.0
C      1  0.5017061039598  0.3791204350860  0.3826112557707 1.0
C      1  0.5955270793590  0.3977513249987  0.4028724296467 1.0
C      1  0.5906925095526  0.5746391308850  0.4118189847309 1.0
C      1  0.5033242337665  0.5615414877612  0.3670422866901 1.0
C      1  0.5319847546710  0.3648569589789  0.8661940415481 1.0
C      1  0.6029048063906  0.5268610141803  0.8872439870954 1.0
C      1  0.4476284242933  0.6092919115409  0.8685102699003 1.0
C      1  0.3831898574061  0.4555419326627  0.8309425159295 1.0
C      1  0.5179081169919  0.3665130101814  0.1324783664875 1.0
C      1  0.6039753364668  0.5290058765987  0.1471898350368 1.0
C      1  0.4534386115178  0.6182624798106  0.1321081832293 1.0
C      1  0.3857545879024  0.4628366338410  0.1533505381572 1.0
C      1  0.7237848108193  0.1870570548120  0.5751198450927 1.0
C      1  0.7988629841372  0.5885092110021  0.5825399627231 1.0
C      1  0.4103756844359  0.7704726848838  0.5471065954284 1.0
C      1  0.1976587897630  0.3841260048337  0.6194712278255 1.0
C      1  0.6799389260500  0.1450622321148  0.4141224423452 1.0
C      1  0.7414417590879  0.6824054709377  0.4671978006688 1.0
C      1  0.3267570162538  0.8067607465585  0.4099399910678 1.0
C      1  0.1990644761828  0.4468179322526  0.4503260305114 1.0
C      1  0.1732071520017  0.6174426314447  0.4431022153878 1.0
C      1  0.3581230345875  0.2170492833487  0.4264869678682 1.0
C      1  0.8343349121979  0.4376649022276  0.4755707527551 1.0
C      1  0.5630433475587  0.8386547507111  0.4531220786937 1.0
C      1  0.1926779578070  0.6129796703069  0.5370395376707 1.0
C      1  0.3783525669331  0.2068555949180  0.5252780945895 1.0
C      1  0.8409497774624  0.4274992648900  0.5725680693504 1.0
C      1  0.5669862623069  0.8192326142246  0.5488386828048 1.0
C      1  0.7255810029085  0.2849640242043  0.5932018548635 1.0
C      1  0.7569753413345  0.6650891774686  0.6297279076864 1.0
C      1  0.3320670436571  0.7257221010325  0.5887556084420 1.0
C      1  0.2529736883535  0.3091630194174  0.6155162082081 1.0
C      1  0.6873466582333  0.2231688456878  0.3678801368132 1.0
C      1  0.7000951432539  0.7474607106223  0.3975432327046 1.0
C      1  0.2697661805454  0.7480266602987  0.3739475905952 1.0
C      1  0.2770955921546  0.3833399965226  0.4142585103682 1.0
C      1  0.4576088586163  0.4211679488713  0.6902793579286 1.0
C      1  0.6176194044345  0.3917798767790  0.6715918326587 1.0
C      1  0.6233254298020  0.5738594073713  0.7002638247949 1.0
C      1  0.4107014817860  0.5658526403556  0.6859166032245 1.0
C      1  0.4574036172873  0.3733333915248  0.2915997668000 1.0
C      1  0.6917851311724  0.3802937589340  0.3557097299285 1.0
C      1  0.6518923646491  0.6139047799390  0.3368231405233 1.0
C      1  0.4825277334107  0.5276881513188  0.2879568361392 1.0
C      1  0.7056703258326  0.1541971676159  0.4997809632052 1.0
C      1  0.7922041695494  0.5948113912415  0.4870261695871 1.0
C      1  0.4061221818617  0.8037323429929  0.4564343526664 1.0
C      1  0.1805800339423  0.4470945400493  0.5458437799326 1.0
C      1  0.4438494852944  0.4631486122832  0.2440638971671 1.0
C      1  0.4311374417666  0.4858008284125  0.7430865821571 1.0
END
