TITL C-28945-2386-64 -4.101 3375.00 -693.36032202 0 0 85 (C3) n - 1
REM
REM Run started: at 2020.12.29 16:38:20 in /gpfs/home/chem/mssmkc/CARBON/AIRSS/Generating-Clusters/Str-Search/Higher-Symm/C4-100
REM VASP from code version vasp.5.4.4.18Apr17-6-g9f103f2a35 (build Oct 11 2019 16:45:47) gamma-only
REM
REM
REM
REM
REM ./C.cell (6bd13a13d554368a30d355f37ece5b26)
REM AIRSS Version 0.9.1 bugfix July 2018 build 013d7b7c2542+ Fri, 06 Jul 2018 19:26:36 +0100
REM compiler GCC version 6.3.0
REM options -cpp -iprefix /gpfs/warwick/csc/orac/software/Core/GCCcore/6.3.0/bin/../lib/gcc/x86_64-pc-linux-gnu/6.3.0/ -mtune=generic -march=x86-64 -g -O0
REM seed 1446167953 -1107054260 -586576910 -1917812377 -556863643 852333491 -775923902 -1477089300 -783324614 2044352394 -1134354895 -1015450167
REM
REM C.POTCAR (d86ddea03c3ceb6dc662c8ad6801f873)
REM 
CELL 1.54180   15.00000   15.00000   15.00000   90.00000   90.00000   90.00000
LATT -1
SFAC C  
C      1  0.7397202835424  0.4834260204991  0.6228683532217 1.0
C      1  0.4849473429278  0.4841112728309  0.2326772685908 1.0
C      1  0.2747895621629  0.4846322479361  0.6479454844960 1.0
C      1  0.6921923725679  0.2861475014902  0.4228879426442 1.0
C      1  0.3353466041266  0.2869518040856  0.3723819948092 1.0
C      1  0.4699685452430  0.2868340924968  0.7062137554191 1.0
C      1  0.4743716254183  0.4575952697255  0.4066906991581 1.0
C      1  0.4305474472876  0.4577527507215  0.5701871132105 1.0
C      1  0.5940405421828  0.4573125295789  0.5267648906977 1.0
C      1  0.2932692937525  0.5582392693014  0.5004737481298 1.0
C      1  0.6034868609832  0.5574474951179  0.6813494720339 1.0
C      1  0.6037789289577  0.5575457946881  0.3222507884712 1.0
C      1  0.7749740568446  0.6378621704978  0.5778247789466 1.0
C      1  0.4293224373451  0.6387624895645  0.2248786460853 1.0
C      1  0.2969108493512  0.6391476736410  0.7005257206015 1.0
C      1  0.3103543917961  0.6598399301249  0.3365149569278 1.0
C      1  0.4531599658149  0.6594092111763  0.7480887626483 1.0
C      1  0.7372025253812  0.6586876593748  0.4190540780103 1.0
C      1  0.6147457922060  0.1931716688465  0.5369704734219 1.0
C      1  0.4733882863300  0.1935371245612  0.3811098748295 1.0
C      1  0.4097806672701  0.1939428895993  0.5817335255824 1.0
C      1  0.2754642384516  0.6803625135115  0.6169116563360 1.0
C      1  0.7138641245604  0.6792934093076  0.6386752999652 1.0
C      1  0.5126792770731  0.6797930990909  0.2479230767849 1.0
C      1  0.7526018054336  0.4157204777945  0.4724065509156 1.0
C      1  0.3479446681833  0.4168573307801  0.2960818059452 1.0
C      1  0.3978396559377  0.4167076597484  0.7347412312017 1.0
C      1  0.3304521802682  0.4865457018265  0.5592578631706 1.0
C      1  0.6349482782815  0.4858156597168  0.6191781766686 1.0
C      1  0.5338800650209  0.4861277186921  0.3253166382332 1.0
C      1  0.6873195731928  0.7561955740393  0.5077730952948 1.0
C      1  0.4124814590775  0.7570783419471  0.3358075738562 1.0
C      1  0.4021747538840  0.7568092365855  0.6596460059686 1.0
C      1  0.3968657432869  0.3265862917405  0.7512092634703 1.0
C      1  0.7674386899244  0.3257372897200  0.4640242882534 1.0
C      1  0.3325294023937  0.3270635848146  0.2869461893058 1.0
C      1  0.5461399661434  0.5222599249242  0.7493934404120 1.0
C      1  0.6911593195019  0.5220182673101  0.3374718388050 1.0
C      1  0.2625651963199  0.5230761541560  0.4171014729755 1.0
C      1  0.5847356467511  0.6464371247428  0.2961880502186 1.0
C      1  0.2807614218667  0.6471140798108  0.5303116569359 1.0
C      1  0.6361543647488  0.6461507617155  0.6774354718909 1.0
C      1  0.6505650628804  0.3667447289337  0.3762320298161 1.0
C      1  0.3157854367349  0.3672064564559  0.4325151464968 1.0
C      1  0.5319670601104  0.3670350882447  0.6945012896792 1.0
C      1  0.3807731327270  0.5110285439940  0.7618716847368 1.0
C      1  0.7848278674312  0.5099598251406  0.4739423512784 1.0
C      1  0.3335212177135  0.5112305030313  0.2675103173388 1.0
C      1  0.4791798572420  0.2163890313657  0.6417810054688 1.0
C      1  0.6319633982766  0.2154608580700  0.4468810754269 1.0
C      1  0.3869584877336  0.2162665423850  0.4116512475348 1.0
C      1  0.2403850385072  0.4316845197714  0.4319664340683 1.0
C      1  0.5694642039666  0.4306828019057  0.7607305496658 1.0
C      1  0.6890183890821  0.4306977300221  0.3110379468885 1.0
C      1  0.5290824904325  0.4071340016971  0.2278752555692 1.0
C      1  0.2482107935486  0.4078568329512  0.6119642909476 1.0
C      1  0.7213611901224  0.4065727975828  0.6634236894389 1.0
C      1  0.5551412461413  0.1969327625606  0.3959063878768 1.0
C      1  0.3817259212351  0.1974925282082  0.5035992602196 1.0
C      1  0.5616921184237  0.1976747658898  0.6007635250928 1.0
C      1  0.7871899615123  0.5442878197478  0.5628976470891 1.0
C      1  0.4096706936649  0.5453161754106  0.2212612717450 1.0
C      1  0.3028799580289  0.5455773434473  0.7190377958925 1.0
C      1  0.5972718054539  0.4033107282564  0.2991261349589 1.0
C      1  0.2759298872496  0.4039648952127  0.5172553205624 1.0
C      1  0.6254703469542  0.4032590798417  0.6870036396229 1.0
C      1  0.7502546708509  0.5668140509909  0.4005861171318 1.0
C      1  0.2874857247898  0.5680744269725  0.3343421381165 1.0
C      1  0.4620734685022  0.5674799067758  0.7686116993584 1.0
C      1  0.3924351734530  0.4197547456454  0.3844501711972 1.0
C      1  0.4522577697706  0.4198966243980  0.6523300362964 1.0
C      1  0.6540025516109  0.4191862937453  0.4668364492736 1.0
C      1  0.3682149198991  0.6940222369175  0.7279151457654 1.0
C      1  0.7630710167975  0.6930070434948  0.5025105290328 1.0
C      1  0.3701164653194  0.6940623964541  0.2726530368992 1.0
C      1  0.3416026208046  0.7513277586632  0.5887772817590 1.0
C      1  0.6565584908960  0.7505664268030  0.5957404425417 1.0
C      1  0.5041060001938  0.7511070470454  0.3188509102822 1.0
C      1  0.3447515954011  0.7282703223444  0.4036990154304 1.0
C      1  0.4945727921398  0.7277234110209  0.6850106622531 1.0
C      1  0.6621871228963  0.7273792693870  0.4151627575949 1.0
C      1  0.3273483885666  0.7255937358504  0.4929859958608 1.0
C      1  0.5807135468283  0.7248856471027  0.6558762116991 1.0
C      1  0.5939351552674  0.7251071702064  0.3549669142608 1.0
C      1  0.4996600490460  0.4582893582226  0.5012055132881 1.0
END
