TITL C-28945-2386-187 -1.109 3375.00 -164.97012095 0 0 21 (C1) n - 1
REM
REM Run started: at 2020.12.30 18:11:37 in /gpfs/home/chem/mssmkc/CARBON/AIRSS/Generating-Clusters/Str-Search/Higher-Symm/C4-100
REM VASP from code version vasp.5.4.4.18Apr17-6-g9f103f2a35 (build Oct 11 2019 16:45:47) gamma-only
REM
REM
REM
REM
REM ./C.cell (6bd13a13d554368a30d355f37ece5b26)
REM AIRSS Version 0.9.1 bugfix July 2018 build 013d7b7c2542+ Fri, 06 Jul 2018 19:26:36 +0100
REM compiler GCC version 6.3.0
REM options -cpp -iprefix /gpfs/warwick/csc/orac/software/Core/GCCcore/6.3.0/bin/../lib/gcc/x86_64-pc-linux-gnu/6.3.0/ -mtune=generic -march=x86-64 -g -O0
REM seed 22230703 -425860982 773984303 -439508414 -603992727 1935612343 1125714614 478783113 1051566105 640439430 -2076665393 -1702567029
REM
REM C.POTCAR (d86ddea03c3ceb6dc662c8ad6801f873)
REM 
CELL 1.54180   15.00000   15.00000   15.00000   90.00000   90.00000   90.00000
LATT -1
SFAC C  
C      1  0.7473493067189  0.4549703188356  0.5462428189854 1.0
C      1  0.2915570345844  0.4573067398872  0.3535826205890 1.0
C      1  0.7509948031890  0.5446195728966  0.5571927150096 1.0
C      1  0.2772737060470  0.5450044755967  0.3427209817971 1.0
C      1  0.3975275129978  0.3864174193821  0.4622928820572 1.0
C      1  0.6129817527185  0.3692644726974  0.5504940017424 1.0
C      1  0.3841183122337  0.6233924416079  0.4360015421918 1.0
C      1  0.5946477308960  0.6129141728859  0.5598332682420 1.0
C      1  0.3164839958930  0.6151280036153  0.3694876631276 1.0
C      1  0.6868815365499  0.5984174871289  0.5508450941376 1.0
C      1  0.3339595828796  0.3981090397379  0.3948605617765 1.0
C      1  0.7069422374544  0.3816443085735  0.5461762936558 1.0
C      1  0.4693016515382  0.3313082136477  0.4737026872135 1.0
C      1  0.5482753329861  0.3246784738495  0.5025480164245 1.0
C      1  0.4626742644658  0.6689633210650  0.4622265310736 1.0
C      1  0.5343770863584  0.6572843033090  0.5033330959015 1.0
C      1  0.5627041351811  0.4410162729717  0.5924558958991 1.0
C      1  0.4051037121402  0.4697868959424  0.5234771801745 1.0
C      1  0.5530265733559  0.5339159057982  0.5960431363819 1.0
C      1  0.3851627605003  0.5468779940987  0.4854996439529 1.0
C      1  0.4764013713118  0.4770236664729  0.5896362696665 1.0
END
