TITL C-28949-8776-2 -8.718 3375.00 -1465.38605377 0 0 180 (Ci) n - 1
REM
REM Run started: at 2020.12.30 03:21:20 in /rds/project/t2_vol4/rds-t2-cs072/BORA/CARBON/AIRSS/Generating-Clusters/Str-Search/Higher-Symm/Only-C180/Try1-3A
REM VASP from code version vasp.5.4.4.18Apr17-6-g9f103f2a35 (build Oct 11 2019 16:45:47) gamma-only
REM
REM
REM
REM
REM ./C.cell (dfbf6805b19190ca01ef1908a0670cb0)
REM AIRSS Version 0.9.1 bugfix July 2018 build 013d7b7c2542+ Fri, 06 Jul 2018 19:26:36 +0100
REM compiler GCC version 4.8.5 20150623 (Red Hat 4.8.5-39)
REM options -cpp -mtune=generic -march=x86-64 -g -O0
REM seed -540316197 802157335 89393437 2110426991 1024454549 -1370180922 -1522923407 1649475731 1285148267 -1545963162 1664104757 922617073
REM
REM C.POTCAR (d86ddea03c3ceb6dc662c8ad6801f873)
REM 
CELL 1.54180   15.00000   15.00000   15.00000   90.00000   90.00000   90.00000
LATT -1
SFAC C  
C      1  0.2982849957080  0.8535774073073  0.4483572393669 1.0
C      1  0.8509645354912  0.4333690752216  0.3120700498245 1.0
C      1  0.4795588163015  0.3192020590618  0.8307279617006 1.0
C      1  0.3082048540856  0.1740965905010  0.5333428478347 1.0
C      1  0.6872013495252  0.8277337208993  0.5612467188091 1.0
C      1  0.6993045387610  0.1334487509788  0.4572675491241 1.0
C      1  0.8593020794271  0.5526822150441  0.6948824961242 1.0
C      1  0.1489015789300  0.4707794440797  0.6933572417306 1.0
C      1  0.1373951374632  0.5416285869621  0.3142942882900 1.0
C      1  0.4250305840891  0.6821599550053  0.1655230088139 1.0
C      1  0.5639205630570  0.3112595258909  0.1618743192668 1.0
C      1  0.5299003887040  0.6780737628151  0.8447621570785 1.0
C      1  0.6919549397137  0.8257717091545  0.4665936852204 1.0
C      1  0.1406660921356  0.4472066632667  0.3051692786339 1.0
C      1  0.5748269231514  0.3180313691588  0.8346175462234 1.0
C      1  0.7017011518574  0.1466057852926  0.5518470819827 1.0
C      1  0.3006663084849  0.8667754626915  0.5429133351749 1.0
C      1  0.3129612359354  0.1722572916421  0.4386937757618 1.0
C      1  0.1489922905955  0.5665305354209  0.6877511538055 1.0
C      1  0.8625437340929  0.4582418597238  0.6858772692994 1.0
C      1  0.8511420998573  0.5291268654459  0.3064267194702 1.0
C      1  0.5203144230727  0.6809469704246  0.1692545517438 1.0
C      1  0.4701058949597  0.3220379629956  0.1551547220098 1.0
C      1  0.4360939773530  0.6888320067750  0.8380207384505 1.0
C      1  0.3873679045803  0.8323087921200  0.4067581759439 1.0
C      1  0.8163645321534  0.3937413987938  0.3978750057896 1.0
C      1  0.4400150738810  0.4075228434382  0.8236301641856 1.0
C      1  0.3950134339415  0.1782924016739  0.5749476103817 1.0
C      1  0.5983523081234  0.8066213039232  0.6013460502191 1.0
C      1  0.6106095070510  0.1422243298904  0.4173478463633 1.0
C      1  0.8367420791301  0.5992203549079  0.6103022857221 1.0
C      1  0.1485368306405  0.4262306594940  0.6067703204558 1.0
C      1  0.1597796524697  0.5764628824900  0.4026686891412 1.0
C      1  0.3788676324725  0.5973212358440  0.1911822928984 1.0
C      1  0.6149518394226  0.3930493690316  0.1855135918464 1.0
C      1  0.5618500248230  0.5883124460991  0.8254614853469 1.0
C      1  0.6051115153242  0.8216556795799  0.4251092601997 1.0
C      1  0.1633014199754  0.4005322328909  0.3896129635791 1.0
C      1  0.6209748207609  0.4028452210341  0.8089010471695 1.0
C      1  0.6126121701527  0.1677323385463  0.5934986656879 1.0
C      1  0.3893142693069  0.8578671250403  0.5828608197288 1.0
C      1  0.4017371435186  0.1934411382261  0.3986484757474 1.0
C      1  0.1837152973186  0.6060971767561  0.6020410587095 1.0
C      1  0.8403005095831  0.4233337513728  0.5974919540149 1.0
C      1  0.8514083803355  0.5735302454117  0.3930524949533 1.0
C      1  0.5598412784197  0.5925718180184  0.1762438635807 1.0
C      1  0.4380489027654  0.4117650936263  0.1744422437536 1.0
C      1  0.3850818271011  0.6070066609076  0.8143740916242 1.0
C      1  0.7919161931878  0.5742919492036  0.7631773027368 1.0
C      1  0.5773347081623  0.7387212655433  0.7841690028842 1.0
C      1  0.7521007366647  0.7649464657088  0.5954515560728 1.0
C      1  0.7850104377162  0.3993279909916  0.2497533247912 1.0
C      1  0.1974590110606  0.5851420873709  0.2514855849809 1.0
C      1  0.2239487669966  0.4373266084004  0.7494364749493 1.0
C      1  0.5819323461429  0.2407114293785  0.2254692454262 1.0
C      1  0.3961882509526  0.7468633868469  0.2308498577940 1.0
C      1  0.4400205895404  0.2593727880207  0.7626453046022 1.0
C      1  0.7592597528624  0.1982182598912  0.4141443254257 1.0
C      1  0.2328475790114  0.7836526391714  0.4277551963428 1.0
C      1  0.2481504927480  0.2425977461878  0.5673596651096 1.0
C      1  0.2149794704429  0.6006572806080  0.7500385657293 1.0
C      1  0.4180451345538  0.7594285443159  0.7745093276847 1.0
C      1  0.2406419571129  0.8020263199983  0.5860158702203 1.0
C      1  0.2080590141705  0.4256918690511  0.2368227815216 1.0
C      1  0.7761180309446  0.5626763049932  0.2503310933362 1.0
C      1  0.8023971374891  0.4148569636656  0.7486684995138 1.0
C      1  0.4226626814835  0.2614239728684  0.2157889917641 1.0
C      1  0.5599123575813  0.7407056541781  0.2374155550629 1.0
C      1  0.6037720708427  0.2532042715384  0.7694096615079 1.0
C      1  0.2479718802212  0.2349031093044  0.4044129998788 1.0
C      1  0.7519269851048  0.7572200897366  0.4325400173276 1.0
C      1  0.7671954155608  0.2164506612403  0.5724755011593 1.0
C      1  0.4045820557416  0.7623364162498  0.5521734727199 1.0
C      1  0.7599997685051  0.5411606907540  0.4114817756398 1.0
C      1  0.5772422556516  0.4261076770161  0.7256955011479 1.0
C      1  0.4194323339821  0.2762757209615  0.4397753349828 1.0
C      1  0.5762210118115  0.7273624104727  0.4603014384077 1.0
C      1  0.5882801517392  0.2420273978181  0.5440453151267 1.0
C      1  0.7445281013053  0.4646345825023  0.5906276957316 1.0
C      1  0.2590910341334  0.5502501666298  0.5838163122716 1.0
C      1  0.2466663617924  0.4421065106567  0.4037886827209 1.0
C      1  0.5144208405226  0.5766905975806  0.2644505867730 1.0
C      1  0.4847898194525  0.4220443770116  0.2628165561366 1.0
C      1  0.4232192385785  0.5818302506300  0.7295304152083 1.0
C      1  0.5805989617317  0.7237701142256  0.5603343834665 1.0
C      1  0.2554929482962  0.5351328320925  0.4093820300079 1.0
C      1  0.4855384361972  0.4235179922077  0.7354996313529 1.0
C      1  0.5953791034854  0.2377262381781  0.4480705364958 1.0
C      1  0.4117430351628  0.7580051160664  0.4562082450838 1.0
C      1  0.4238073563836  0.2726280294083  0.5398081419193 1.0
C      1  0.2399489992875  0.4585935744755  0.5882097285628 1.0
C      1  0.7534264185006  0.5576411357431  0.5960458267249 1.0
C      1  0.7408653535319  0.4494861064051  0.4158796106153 1.0
C      1  0.4227480370685  0.5740008215429  0.2743183336168 1.0
C      1  0.5767381445330  0.4183054566580  0.2702867476355 1.0
C      1  0.5151710621341  0.5779950853964  0.7370658935241 1.0
C      1  0.1547490753187  0.6713263370601  0.5335712434733 1.0
C      1  0.6169357672782  0.5403091116298  0.1351950381548 1.0
C      1  0.5345219271456  0.1521760302116  0.6565235930879 1.0
C      1  0.1412489814707  0.3448331146965  0.4679016870178 1.0
C      1  0.8948674612326  0.6147042535338  0.4576105821293 1.0
C      1  0.8795809349324  0.3749975479441  0.5363884193287 1.0
C      1  0.6817389291651  0.4708548196995  0.8437582078733 1.0
C      1  0.3313332569976  0.5316855034287  0.8456362305606 1.0
C      1  0.3770279500774  0.4636507993139  0.1384501696386 1.0
C      1  0.5437511504336  0.8685257042574  0.3845010108799 1.0
C      1  0.4718088978431  0.1579190041226  0.3365262598802 1.0
C      1  0.4597618455978  0.8890596717461  0.6252262618188 1.0
C      1  0.8587772302511  0.6549174371210  0.5319711712872 1.0
C      1  0.3181463079815  0.5292595043034  0.1563156995919 1.0
C      1  0.4562671547320  0.1314276606844  0.6157095517697 1.0
C      1  0.8454507206694  0.3287233139935  0.4665099816679 1.0
C      1  0.1206900631806  0.6250449355630  0.4636994145556 1.0
C      1  0.1050098453781  0.3850111556768  0.5422572519252 1.0
C      1  0.3830573340956  0.4598229066546  0.8648218496852 1.0
C      1  0.6228338644428  0.5364592221321  0.8615238735894 1.0
C      1  0.6686464775635  0.4684020345470  0.1542445467427 1.0
C      1  0.4655049920499  0.8477908557941  0.3437621478786 1.0
C      1  0.5402357102354  0.1111243849170  0.3748351614254 1.0
C      1  0.5282453622774  0.8422379002852  0.6633885007091 1.0
C      1  0.4553681969047  0.3554322439736  0.5896578611277 1.0
C      1  0.3566988467701  0.5306459694355  0.4432464871371 1.0
C      1  0.5747407913832  0.4665312920684  0.3657896065085 1.0
C      1  0.4837886463991  0.7036128549866  0.4309630030706 1.0
C      1  0.5579758507850  0.3050891378334  0.4039601633737 1.0
C      1  0.5210001379193  0.6546861762580  0.5957934202721 1.0
C      1  0.3221017551733  0.4375565215313  0.5469337202334 1.0
C      1  0.6735947589225  0.5672075207596  0.5452823499058 1.0
C      1  0.6439294148060  0.4647536767509  0.4453804087988 1.0
C      1  0.5275206740867  0.5652902148404  0.6389969359080 1.0
C      1  0.4664347532118  0.4390718031819  0.6400360129648 1.0
C      1  0.4292347466921  0.5297818326265  0.3691837611543 1.0
C      1  0.5162276956765  0.2964192816646  0.5692229002816 1.0
C      1  0.6779678453436  0.5621957688172  0.4528901701964 1.0
C      1  0.4724923445831  0.4347674966011  0.3608564474627 1.0
C      1  0.5445824650450  0.6445719355863  0.4104146936208 1.0
C      1  0.4790111353767  0.3454259672780  0.4042393023041 1.0
C      1  0.4420511672061  0.6950290541518  0.5963057136322 1.0
C      1  0.6433614231391  0.4691986170275  0.5566613548391 1.0
C      1  0.3560509095281  0.5350456450315  0.5544763403994 1.0
C      1  0.3265449317710  0.4325561753197  0.4545267346426 1.0
C      1  0.4252200124546  0.5335238531811  0.6340621254578 1.0
C      1  0.5708040726121  0.4702363818162  0.6307875440249 1.0
C      1  0.5335592244066  0.5609939639441  0.3599039658795 1.0
C      1  0.2438407189803  0.7401356694973  0.3411495700380 1.0
C      1  0.7462106103526  0.3094704776170  0.2652634335434 1.0
C      1  0.3454327988618  0.2829343160309  0.7256870768702 1.0
C      1  0.2731481163326  0.2807889065363  0.6574122160394 1.0
C      1  0.7363081768464  0.7282839409824  0.6850186039669 1.0
C      1  0.7416533470646  0.2352218399506  0.3268216469083 1.0
C      1  0.7430742938596  0.6582574116988  0.7501335292908 1.0
C      1  0.2707664091202  0.3490254697177  0.7269762036474 1.0
C      1  0.2342845945067  0.6728906476824  0.2729204581242 1.0
C      1  0.3073241963467  0.7347593528605  0.2697227027964 1.0
C      1  0.6724466334566  0.2474820877262  0.2624942768541 1.0
C      1  0.6688238065528  0.7205882496912  0.7529330555602 1.0
C      1  0.7269181350475  0.7190917940768  0.3424879412835 1.0
C      1  0.2568713021817  0.3416682722505  0.2497684253183 1.0
C      1  0.6926443728821  0.2652291708169  0.7305572908242 1.0
C      1  0.7561729357250  0.2598526372557  0.6591269005156 1.0
C      1  0.2583136580134  0.7649207444903  0.6732374100979 1.0
C      1  0.2636329247273  0.2715467036076  0.3147967468905 1.0
C      1  0.2537673148659  0.6905602111135  0.7346606267038 1.0
C      1  0.7656333695711  0.3270957239130  0.7273497856772 1.0
C      1  0.7292969771031  0.6509384255076  0.2728365130067 1.0
C      1  0.6546044954875  0.7170587868025  0.2742823897726 1.0
C      1  0.3311895351220  0.2794654865089  0.2470110212257 1.0
C      1  0.3275232057256  0.7525839885732  0.7375367200149 1.0
C      1  0.7463560480257  0.4792411778882  0.2065802696429 1.0
C      1  0.2537031344153  0.5207915933158  0.7931865308196 1.0
C      1  0.1975018836377  0.7539388576109  0.5148624115264 1.0
C      1  0.5238646186432  0.2115313398817  0.7313570827264 1.0
C      1  0.8025512095127  0.2461929647531  0.4853185944856 1.0
C      1  0.4761300955176  0.7884855833905  0.2688691863215 1.0
C      1  0.7629147025357  0.4875527458100  0.7992805923624 1.0
C      1  0.2369671556180  0.5124906085569  0.2007956429853 1.0
C      1  0.2021266868278  0.2728184632535  0.4821676016996 1.0
C      1  0.7979097829395  0.7269547790637  0.5177173982081 1.0
C      1  0.4926015363979  0.2087733958749  0.2575810793567 1.0
C      1  0.5074195005636  0.7913825479399  0.7423560925508 1.0
END
