TITL C-28945-2386-19 -3.813 3375.00 -665.98619415 0 0 80 (C1) n - 1
REM
REM Run started: at 2020.12.29 08:21:43 in /gpfs/home/chem/mssmkc/CARBON/AIRSS/Generating-Clusters/Str-Search/Higher-Symm/C4-100
REM VASP from code version vasp.5.4.4.18Apr17-6-g9f103f2a35 (build Oct 11 2019 16:45:47) gamma-only
REM
REM
REM
REM
REM ./C.cell (6bd13a13d554368a30d355f37ece5b26)
REM AIRSS Version 0.9.1 bugfix July 2018 build 013d7b7c2542+ Fri, 06 Jul 2018 19:26:36 +0100
REM compiler GCC version 6.3.0
REM options -cpp -iprefix /gpfs/warwick/csc/orac/software/Core/GCCcore/6.3.0/bin/../lib/gcc/x86_64-pc-linux-gnu/6.3.0/ -mtune=generic -march=x86-64 -g -O0
REM seed -759819912 -1517733796 -680063592 -1639201677 -711732185 1912989715 -1210567353 -657422796 -461007305 -822660712 1593741806 -1732339194
REM
REM C.POTCAR (d86ddea03c3ceb6dc662c8ad6801f873)
REM 
CELL 1.54180   15.00000   15.00000   15.00000   90.00000   90.00000   90.00000
LATT -1
SFAC C  
C      1  0.6524595413240  0.5436177637984  0.7152003072424 1.0
C      1  0.5652874000032  0.5521210157792  0.7568483079712 1.0
C      1  0.3693438890760  0.5616072259127  0.7329612755439 1.0
C      1  0.2929478556054  0.5635744742239  0.6736952659736 1.0
C      1  0.2382101866482  0.5048332510907  0.5279406817871 1.0
C      1  0.3013811636572  0.4959376644897  0.3351386850450 1.0
C      1  0.3778694544765  0.4913412895384  0.2747922551638 1.0
C      1  0.5730957150996  0.4701799495282  0.2376334381530 1.0
C      1  0.6559600229842  0.4850845957040  0.2853606858911 1.0
C      1  0.7550762781640  0.5092594930965  0.4524298860978 1.0
C      1  0.7562196736884  0.5209741403194  0.5486085589527 1.0
C      1  0.3577257832410  0.7612279512528  0.5795436147814 1.0
C      1  0.3358808690451  0.7365680743841  0.4889450850901 1.0
C      1  0.3645403898714  0.7255401582467  0.3851405715080 1.0
C      1  0.4434270961982  0.7227716028685  0.3265845709812 1.0
C      1  0.5265180423430  0.7699238606063  0.3455142025685 1.0
C      1  0.6136696229781  0.7280734793738  0.3478811761282 1.0
C      1  0.6722321729991  0.7372770810946  0.4226073371755 1.0
C      1  0.6742290712716  0.7517325723828  0.5272895377067 1.0
C      1  0.6265716762136  0.7634737469011  0.6073138006389 1.0
C      1  0.5328826273339  0.7718429107281  0.6546623143216 1.0
C      1  0.4390903596236  0.7720076436804  0.6438385854382 1.0
C      1  0.7210469066510  0.4486871240106  0.5974147972992 1.0
C      1  0.6704015742950  0.4595398879692  0.6772743217814 1.0
C      1  0.5107058454572  0.4760831365508  0.7482006941149 1.0
C      1  0.4167244675212  0.4811040831649  0.7353764311226 1.0
C      1  0.2832079017587  0.4911266098666  0.6127291474493 1.0
C      1  0.2551371653595  0.4256354023751  0.4794946705916 1.0
C      1  0.2903127714254  0.4209718087548  0.3911690666031 1.0
C      1  0.4259809518058  0.4079461235923  0.2807604777201 1.0
C      1  0.5188931917493  0.3978201620310  0.2658133165070 1.0
C      1  0.6788007387938  0.4138944496390  0.3428445983611 1.0
C      1  0.7260418427132  0.4246858739679  0.4232848597800 1.0
C      1  0.7452096900997  0.6077462899971  0.5895982518796 1.0
C      1  0.6949895206468  0.6189369746096  0.6718136193873 1.0
C      1  0.5181179087376  0.6365923029167  0.7594126515853 1.0
C      1  0.4219035283423  0.6408545885033  0.7499824277864 1.0
C      1  0.2502156438585  0.6455262454545  0.6498380230857 1.0
C      1  0.2373490833357  0.5805774668875  0.4698835379148 1.0
C      1  0.2643733816831  0.5744772443481  0.3739974500096 1.0
C      1  0.4299616089792  0.5614809487836  0.2384828318872 1.0
C      1  0.5228099922347  0.5444295671877  0.2139892225284 1.0
C      1  0.6825873416465  0.5742397873644  0.3133808424617 1.0
C      1  0.7373548444216  0.5831814345149  0.3925763007473 1.0
C      1  0.4148502707245  0.4104108656001  0.6699715179601 1.0
C      1  0.3451899794095  0.4133147212804  0.6045777534324 1.0
C      1  0.3240651438506  0.3706306444219  0.5174453561705 1.0
C      1  0.3595501530101  0.3583383582161  0.4198778417801 1.0
C      1  0.4298803799015  0.3488588829583  0.3600679811661 1.0
C      1  0.5317436976530  0.3431212913337  0.3456044175135 1.0
C      1  0.6158015795022  0.3486287820424  0.3845384075896 1.0
C      1  0.6673971128939  0.3621637251384  0.4721062246567 1.0
C      1  0.6636023760849  0.3764929952318  0.5642561664797 1.0
C      1  0.6056322914223  0.3906859059180  0.6497212005297 1.0
C      1  0.5195716925134  0.4021395004272  0.6848499735145 1.0
C      1  0.7359574280397  0.6673394106631  0.4355486216970 1.0
C      1  0.7414818612889  0.6798701397047  0.5297881337114 1.0
C      1  0.6498982066479  0.7009942528241  0.6797253090371 1.0
C      1  0.5653048568532  0.7101326077484  0.7225830494422 1.0
C      1  0.3896074664979  0.7174523673444  0.7057757974610 1.0
C      1  0.3093114401943  0.7149012190393  0.6517022050646 1.0
C      1  0.2659534268451  0.6730336057045  0.4699981657704 1.0
C      1  0.2912310435799  0.6670385201318  0.3756613406994 1.0
C      1  0.4574499850285  0.6554054545418  0.2617761113063 1.0
C      1  0.5497247103234  0.6328837303903  0.2380934261144 1.0
C      1  0.6254814342706  0.6504284071639  0.2901187674898 1.0
C      1  0.5018363092369  0.6712088647929  0.5028396384496 1.0
C      1  0.5179224775274  0.8195474918151  0.4251676739768 1.0
C      1  0.4610567922666  0.1783966928967  0.5624845523867 1.0
C      1  0.5144844365080  0.2394153676716  0.5050268354249 1.0
C      1  0.4932906146700  0.3274456464062  0.5255353732809 1.0
C      1  0.4853777302228  0.8591804126848  0.4995551699846 1.0
C      1  0.4422082993228  0.0946854393865  0.5788346402969 1.0
C      1  0.4493843690204  0.0111328525184  0.5617328198643 1.0
C      1  0.5034856694509  0.5875750268260  0.5018184689909 1.0
C      1  0.4534953169267  0.9277839208488  0.5458068215722 1.0
C      1  0.5019476922136  0.4996460074326  0.5011296477184 1.0
C      1  0.5061423514802  0.7610623772402  0.4971850967343 1.0
C      1  0.4403910030018  0.2676536107684  0.5788851989562 1.0
C      1  0.5003113082552  0.4162674433973  0.5081762090132 1.0
END
