TITL C-28945-2386-140 -1.967 3375.00 -324.50355974 0 0 40 (C1) n - 1
REM
REM Run started: at 2020.12.30 09:52:57 in /gpfs/home/chem/mssmkc/CARBON/AIRSS/Generating-Clusters/Str-Search/Higher-Symm/C4-100
REM VASP from code version vasp.5.4.4.18Apr17-6-g9f103f2a35 (build Oct 11 2019 16:45:47) gamma-only
REM
REM
REM
REM
REM ./C.cell (6bd13a13d554368a30d355f37ece5b26)
REM AIRSS Version 0.9.1 bugfix July 2018 build 013d7b7c2542+ Fri, 06 Jul 2018 19:26:36 +0100
REM compiler GCC version 6.3.0
REM options -cpp -iprefix /gpfs/warwick/csc/orac/software/Core/GCCcore/6.3.0/bin/../lib/gcc/x86_64-pc-linux-gnu/6.3.0/ -mtune=generic -march=x86-64 -g -O0
REM seed -1109985201 1796102680 -195309522 1630051628 -1075880259 -493090746 1444574323 -224647579 1140144481 1584358530 -14544116 226484233
REM
REM C.POTCAR (d86ddea03c3ceb6dc662c8ad6801f873)
REM 
CELL 1.54180   15.00000   15.00000   15.00000   90.00000   90.00000   90.00000
LATT -1
SFAC C  
C      1  0.6132981453690  0.4204498297029  0.3909304989227 1.0
C      1  0.6096661154500  0.3359765945538  0.4445904235910 1.0
C      1  0.6251862427308  0.3577897202749  0.5377402915879 1.0
C      1  0.6125408875830  0.5128763982556  0.6731333026355 1.0
C      1  0.6084522120080  0.5955300187731  0.6574762203522 1.0
C      1  0.6188798935902  0.7075033159451  0.4725640010921 1.0
C      1  0.5928280278438  0.6840733796661  0.3923581994014 1.0
C      1  0.3986846181341  0.3740592720911  0.3728052814482 1.0
C      1  0.4162839960209  0.3130675455501  0.5147351386228 1.0
C      1  0.4135903875921  0.3901848617980  0.6517156896610 1.0
C      1  0.4333798591780  0.5450184182452  0.6690313622289 1.0
C      1  0.4012888729675  0.6694652966179  0.5792453738744 1.0
C      1  0.4171814504715  0.6577831193303  0.4230698256717 1.0
C      1  0.4218296039005  0.5247133234309  0.3376896651381 1.0
C      1  0.3436324770808  0.6004849819326  0.4505496933529 1.0
C      1  0.3488269953473  0.5178404758362  0.4019443148850 1.0
C      1  0.3389811374980  0.4240053252316  0.4294087025034 1.0
C      1  0.3425285837888  0.3803550884200  0.5146028134834 1.0
C      1  0.3442170339611  0.4264547534352  0.5978960326072 1.0
C      1  0.3725586219938  0.5212672913423  0.5919759454965 1.0
C      1  0.3414149279798  0.6033512378099  0.5463357207221 1.0
C      1  0.4673600132311  0.3303271185400  0.5947400537792 1.0
C      1  0.4680034426712  0.4572244287279  0.6932818846349 1.0
C      1  0.4585203849002  0.6366981161554  0.6502714488994 1.0
C      1  0.4554648119546  0.6983746313470  0.5044437268531 1.0
C      1  0.4656076029521  0.6108969106520  0.3521965848640 1.0
C      1  0.4569536045125  0.4347218399312  0.3259444441702 1.0
C      1  0.4470644936859  0.3078029890326  0.4238250119666 1.0
C      1  0.5359550625031  0.3096768058467  0.3916469425341 1.0
C      1  0.5604842517861  0.3578908451134  0.6072851118838 1.0
C      1  0.5608297464610  0.4357994442897  0.6720179456501 1.0
C      1  0.5499834791506  0.6604597146991  0.6269128217152 1.0
C      1  0.5475574605000  0.7012388441668  0.5342273874166 1.0
C      1  0.5538769726796  0.6386285559301  0.3293480769314 1.0
C      1  0.5433242905073  0.3932830646006  0.3331476473136 1.0
C      1  0.7623461852129  0.4701418446789  0.5443532871569 1.0
C      1  0.4587780139994  0.5108653912205  0.5343253037050 1.0
C      1  0.5330892358724  0.5130238805080  0.4972066425882 1.0
C      1  0.6155029304512  0.4843974895578  0.4626737176878 1.0
C      1  0.6816785264796  0.4398101367593  0.5299584629711 1.0
END
