TITL C-2874-4087-33 -7.695 3375.00 -1470.55988938 0 0 180 (D2) n - 1
REM
REM Run started: at 2020.12.30 22:25:22 in /gpfs/home/chem/mssmkc/CARBON/AIRSS/Generating-Clusters/Str-Search/Higher-Symm/C100-200
REM VASP from code version vasp.5.4.4.18Apr17-6-g9f103f2a35 (build Oct 11 2019 16:45:47) gamma-only
REM
REM
REM
REM
REM ./C.cell (533062f00bc710175b3da973d35f2034)
REM AIRSS Version 0.9.1 bugfix July 2018 build 013d7b7c2542+ Fri, 06 Jul 2018 19:26:36 +0100
REM compiler GCC version 6.3.0
REM options -cpp -iprefix /gpfs/warwick/csc/orac/software/Core/GCCcore/6.3.0/bin/../lib/gcc/x86_64-pc-linux-gnu/6.3.0/ -mtune=generic -march=x86-64 -g -O0
REM seed 418235954 1663782457 -360507863 604548495 -1917728219 -433141228 -1131612952 -2039260309 -2105242675 1149705744 -607991593 836281326
REM
REM C.POTCAR (d86ddea03c3ceb6dc662c8ad6801f873)
REM 
CELL 1.54180   15.00000   15.00000   15.00000   90.00000   90.00000   90.00000
LATT -1
SFAC C  
C      1  0.4890229202084  0.8926873759561  0.3842539040984 1.0
C      1  0.4890176437423  0.1073156636162  0.6157491283489 1.0
C      1  0.5110455651016  0.8926646427289  0.6158845516676 1.0
C      1  0.5110394344633  0.1073367960845  0.3841193408458 1.0
C      1  0.4895152685354  0.3834891918234  0.8968445706289 1.0
C      1  0.4895224113822  0.6165085091565  0.1031550807018 1.0
C      1  0.5106879298983  0.6164557335299  0.8969729654937 1.0
C      1  0.5106935092601  0.3835420695923  0.1030283117634 1.0
C      1  0.7833831788178  0.7123485924966  0.5344679332981 1.0
C      1  0.7833802882026  0.2876486291929  0.4655361469513 1.0
C      1  0.2164996560713  0.7124365252030  0.4654891409559 1.0
C      1  0.2164942648436  0.2875651268183  0.5345090878984 1.0
C      1  0.7843460216093  0.5343555933255  0.7138923344370 1.0
C      1  0.7843476203116  0.4656409970736  0.2861101548365 1.0
C      1  0.2156261880009  0.4657238144981  0.7141093907439 1.0
C      1  0.2156313936640  0.5342819963985  0.2858789121865 1.0
C      1  0.6877546295261  0.2965789345145  0.2318266091101 1.0
C      1  0.6877549511064  0.7034185912869  0.7681731239430 1.0
C      1  0.3123803371166  0.2966035145571  0.7681514944013 1.0
C      1  0.3123873487846  0.7034010510534  0.2318484337507 1.0
C      1  0.6862648180776  0.2351353504152  0.2982913283582 1.0
C      1  0.6862686786359  0.7648607313203  0.7017142224424 1.0
C      1  0.3137629108891  0.7649020393392  0.2982479282942 1.0
C      1  0.3137567064688  0.2350988281461  0.7017490901829 1.0
C      1  0.6044297043176  0.5543093396367  0.4991166610065 1.0
C      1  0.6044253984487  0.4456948053494  0.5008727845782 1.0
C      1  0.3953690409711  0.5543127750956  0.5008651487758 1.0
C      1  0.3953695630436  0.4456896412899  0.4991406899790 1.0
C      1  0.5880741399306  0.5045280058585  0.5739960280153 1.0
C      1  0.5880758448894  0.4954696278024  0.4260161511046 1.0
C      1  0.4117130763192  0.4954801916933  0.5739828998722 1.0
C      1  0.4117103984623  0.5045155505904  0.4260048113889 1.0
C      1  0.6201928453511  0.5002085614342  0.1196653382977 1.0
C      1  0.6201875944122  0.4997905632570  0.8803375805561 1.0
C      1  0.3800527963996  0.5002049607816  0.8803043326147 1.0
C      1  0.3800617197280  0.4997955546694  0.1196878620666 1.0
C      1  0.6193048994803  0.1230803205210  0.5005476806629 1.0
C      1  0.6193105668444  0.8769201862716  0.4994552613476 1.0
C      1  0.3807467195100  0.8770780074583  0.5006224607141 1.0
C      1  0.3807416413400  0.1229219793282  0.4993806610705 1.0
C      1  0.5039118189066  0.7065258969485  0.5485092372163 1.0
C      1  0.5039093647763  0.2934779738012  0.4514934289860 1.0
C      1  0.4959773780614  0.7065684831869  0.4515182141485 1.0
C      1  0.4959698223389  0.2934322022852  0.5484815764511 1.0
C      1  0.5049119480241  0.5489858694998  0.7153679248188 1.0
C      1  0.5049109206889  0.4510127673793  0.2846348278423 1.0
C      1  0.4950386096885  0.4511083988373  0.7153642143497 1.0
C      1  0.4950382024954  0.5488907598883  0.2846357027618 1.0
C      1  0.4398707767694  0.3940017316199  0.3231934058001 1.0
C      1  0.4398711108663  0.6059982581444  0.6768042047000 1.0
C      1  0.5600083751679  0.3939795581161  0.6768171930496 1.0
C      1  0.5600139116210  0.6060186176963  0.3231863636114 1.0
C      1  0.4391828703037  0.3284009469163  0.3938416584813 1.0
C      1  0.4391887526011  0.6715997016291  0.6061562056478 1.0
C      1  0.5606823059201  0.6716249009401  0.3938519378678 1.0
C      1  0.5606805482348  0.3283734934340  0.6061505259447 1.0
C      1  0.2765113045735  0.2805179024540  0.3660983980334 1.0
C      1  0.2765167547756  0.7194785225531  0.6339034870341 1.0
C      1  0.7234432104075  0.2806847629444  0.6339361752779 1.0
C      1  0.7234470258110  0.7193148597385  0.3660695448707 1.0
C      1  0.2759669722772  0.3664880752389  0.2779376051543 1.0
C      1  0.2759682482650  0.6335175795875  0.7220509638561 1.0
C      1  0.7240857069314  0.6334196744611  0.2781443332469 1.0
C      1  0.7240807746733  0.3665771071006  0.7218582497421 1.0
C      1  0.4144255112071  0.4060261685208  0.7369333175716 1.0
C      1  0.4144279095351  0.5939704120873  0.2630692720192 1.0
C      1  0.5855241134061  0.4058629563080  0.2630619317650 1.0
C      1  0.5855289443034  0.5941330361309  0.7369374667699 1.0
C      1  0.4149626887501  0.7268554194759  0.4061899657959 1.0
C      1  0.4149587985964  0.2731461319138  0.5938095029786 1.0
C      1  0.5849374892424  0.2731982049398  0.4061580475432 1.0
C      1  0.5849477472574  0.7268025581210  0.5938415639477 1.0
C      1  0.6575897426851  0.6560661137774  0.4107081949883 1.0
C      1  0.6575869031480  0.3439323285164  0.5892937302063 1.0
C      1  0.3422686774746  0.6561030502713  0.5893004461195 1.0
C      1  0.3422618491147  0.3438951419459  0.4106962203142 1.0
C      1  0.6571102006312  0.4122723426961  0.6611349546274 1.0
C      1  0.6571155215803  0.5877273940327  0.3388676305462 1.0
C      1  0.3427485817350  0.5877902626288  0.6611634142295 1.0
C      1  0.3427441686306  0.4122102420461  0.3388315491770 1.0
C      1  0.2445522355653  0.7641097530365  0.5426339854521 1.0
C      1  0.2445448057474  0.2358925585162  0.4573660192562 1.0
C      1  0.7554002461374  0.7639858854564  0.4573171508734 1.0
C      1  0.7553972474982  0.2360140073610  0.5426871985678 1.0
C      1  0.2429586326665  0.5432864345381  0.7671815557000 1.0
C      1  0.2429665890076  0.4567167460561  0.2328019190073 1.0
C      1  0.7572512639543  0.4567857513588  0.7669914918685 1.0
C      1  0.7572554667299  0.5432103869619  0.2330106825729 1.0
C      1  0.6037656515643  0.8765281666168  0.5960120128104 1.0
C      1  0.6037593296299  0.1234733083353  0.4039918729683 1.0
C      1  0.3962692845709  0.8766749159118  0.4040887929531 1.0
C      1  0.3962632105390  0.1233253493138  0.5959146718871 1.0
C      1  0.6040299244170  0.5970010043926  0.8819203234902 1.0
C      1  0.6040323282346  0.4029973079547  0.1180823665976 1.0
C      1  0.3961744598258  0.4029957631265  0.8818385879860 1.0
C      1  0.3961809897058  0.5970053602399  0.1181593475632 1.0
C      1  0.3302025557538  0.4952272291776  0.6303295209066 1.0
C      1  0.3301999706995  0.5047706662457  0.3696677596273 1.0
C      1  0.6696212870927  0.4951703978546  0.3696923484186 1.0
C      1  0.6696176696233  0.5048266692129  0.6303066945690 1.0
C      1  0.3246792919539  0.6213573997963  0.4983755415739 1.0
C      1  0.3246756739718  0.3786432260554  0.5016185474231 1.0
C      1  0.6751689921675  0.3787011274828  0.4983913050656 1.0
C      1  0.6751680560851  0.6212960427378  0.5016122901673 1.0
C      1  0.7382463164699  0.2912020364528  0.3679790809180 1.0
C      1  0.7382498691731  0.7087947021289  0.6320250254054 1.0
C      1  0.2616702541772  0.2911969553766  0.6321380028188 1.0
C      1  0.2616746061921  0.7088054687095  0.3678597859055 1.0
C      1  0.7400528615797  0.3676963548021  0.2867366227887 1.0
C      1  0.7400536736994  0.6323007241227  0.7132661297430 1.0
C      1  0.2599083568359  0.6322939021961  0.2866331970484 1.0
C      1  0.2599036309809  0.3677079442404  0.7133612826014 1.0
C      1  0.4996725085645  0.8318360495459  0.3120619244880 1.0
C      1  0.4996667654979  0.1681672180484  0.6879384704457 1.0
C      1  0.5003758167318  0.8317767344370  0.6880541206370 1.0
C      1  0.5003664580898  0.1682232578683  0.3119490951725 1.0
C      1  0.4997265057799  0.3105103577293  0.8367842207904 1.0
C      1  0.4997329415651  0.6894907377625  0.1632199639089 1.0
C      1  0.5004383387199  0.6895114564792  0.8369990989898 1.0
C      1  0.5004386055165  0.3104892406761  0.1629998949517 1.0
C      1  0.6618233234747  0.4247660919445  0.3051733876325 1.0
C      1  0.6618204052705  0.5752329296446  0.6948317007626 1.0
C      1  0.3380249240697  0.4248741126970  0.6948756574376 1.0
C      1  0.3380284950131  0.5751271321582  0.3051188715996 1.0
C      1  0.6603244882452  0.3162164235070  0.4242671193332 1.0
C      1  0.6603238384907  0.6837860702240  0.5757373179203 1.0
C      1  0.3395209163930  0.6838655314941  0.4242999177946 1.0
C      1  0.3395159653354  0.3161342352269  0.5756962397829 1.0
C      1  0.6815235652577  0.8313333391220  0.4389459207490 1.0
C      1  0.6815187676330  0.1686674102605  0.5610573221831 1.0
C      1  0.3185516470559  0.8313877583252  0.5610625278944 1.0
C      1  0.3185470719132  0.1686121606879  0.4389386592248 1.0
C      1  0.6832451554869  0.4392704246985  0.8346134962770 1.0
C      1  0.6832501027980  0.5607274390940  0.1653892135708 1.0
C      1  0.3169964247309  0.5607858250399  0.8347009774873 1.0
C      1  0.3170030882915  0.4392154115732  0.1652901834788 1.0
C      1  0.6003364791554  0.7999047905764  0.6626866711324 1.0
C      1  0.6003315758653  0.2000971386615  0.3373176009334 1.0
C      1  0.3996454097103  0.8000150921379  0.3374040304810 1.0
C      1  0.3996379895588  0.1999886991750  0.6625970879439 1.0
C      1  0.6016548060129  0.6655940599004  0.8067565676710 1.0
C      1  0.6016552864815  0.3344050468043  0.1932458152139 1.0
C      1  0.3984760951717  0.3344582708005  0.8066378130835 1.0
C      1  0.3984814686097  0.6655430290891  0.1933612322780 1.0
C      1  0.3385977656364  0.6522059776785  0.8004052579346 1.0
C      1  0.3385995511396  0.3477963860060  0.1995868752961 1.0
C      1  0.6616077800298  0.6521374225898  0.1997088896553 1.0
C      1  0.6616021897046  0.3478598362793  0.8002930785682 1.0
C      1  0.3391203898447  0.7976662206679  0.6525556762811 1.0
C      1  0.3391166976693  0.2023322962456  0.3474447906684 1.0
C      1  0.6609342082440  0.2023853485706  0.6525457057562 1.0
C      1  0.6609391356858  0.7976148457305  0.3474580231479 1.0
C      1  0.7727831204721  0.4754635990002  0.3937727509108 1.0
C      1  0.7727819288924  0.5245342174645  0.6062294028441 1.0
C      1  0.2270550538977  0.4755382514192  0.6062955042585 1.0
C      1  0.2270549569094  0.5244640694707  0.3936956709674 1.0
C      1  0.7746590264953  0.3949190876394  0.4760703020561 1.0
C      1  0.7746599443654  0.6050780111254  0.5239328898945 1.0
C      1  0.2251861705431  0.6051333487991  0.4760333572085 1.0
C      1  0.2251821514940  0.3948685844981  0.5239608239602 1.0
C      1  0.4175917679981  0.7113301735812  0.7879676907790 1.0
C      1  0.4175912267915  0.2886696281243  0.2120307700406 1.0
C      1  0.5825882233084  0.7113392969596  0.2121726383695 1.0
C      1  0.5825820861496  0.2886605644240  0.7878295522487 1.0
C      1  0.4173762078105  0.7856797351474  0.7126145397610 1.0
C      1  0.4173720776782  0.2143207819109  0.2873866053271 1.0
C      1  0.5826853840690  0.2143058621297  0.7124978077081 1.0
C      1  0.5826958300598  0.7856926426304  0.2875035788922 1.0
C      1  0.4660552021358  0.0927407393598  0.4663525244303 1.0
C      1  0.4660606356837  0.9072589111784  0.5336509611648 1.0
C      1  0.5340252775163  0.0928142679121  0.5335080624586 1.0
C      1  0.5340287870469  0.9071866948696  0.4664951185139 1.0
C      1  0.4658913906894  0.4664238303611  0.0917705041094 1.0
C      1  0.4658842912407  0.5335790007274  0.9082264018044 1.0
C      1  0.5343561907862  0.5336605515198  0.0917925030569 1.0
C      1  0.5343511648521  0.4663431425088  0.9082087453176 1.0
C      1  0.8139648975606  0.5319256941511  0.4670818024745 1.0
C      1  0.8139650104211  0.4680714451290  0.5329214507820 1.0
C      1  0.1859152773978  0.5319422123906  0.5328999909632 1.0
C      1  0.1859138513986  0.4680601236647  0.4670943917241 1.0
END
