TITL C-28985-4898-11 -8.386 3375.00 -1474.17154883 0 0 180 (Td) n - 1
REM
REM Run started: at 2020.12.30 10:48:58 in /rds/project/t2_vol4/rds-t2-cs072/BORA/CARBON/AIRSS/Generating-Clusters/Str-Search/Higher-Symm/Only-C180/Try1-3A
REM VASP from code version vasp.5.4.4.18Apr17-6-g9f103f2a35 (build Oct 11 2019 16:45:47) gamma-only
REM
REM
REM
REM
REM ./C.cell (dfbf6805b19190ca01ef1908a0670cb0)
REM AIRSS Version 0.9.1 bugfix July 2018 build 013d7b7c2542+ Fri, 06 Jul 2018 19:26:36 +0100
REM compiler GCC version 4.8.5 20150623 (Red Hat 4.8.5-39)
REM options -cpp -mtune=generic -march=x86-64 -g -O0
REM seed -1820767836 -1951691514 -1229057365 -22404749 208638402 -1551336008 -1784110014 1449714815 982391761 -818784025 -1309685413 -661050935
REM
REM C.POTCAR (d86ddea03c3ceb6dc662c8ad6801f873)
REM 
CELL 1.54180   15.00000   15.00000   15.00000   90.00000   90.00000   90.00000
LATT -1
SFAC C  
C      1  0.4773734658621  0.3981888365408  0.2609775965991 1.0
C      1  0.2609764196639  0.4773748059999  0.3981890475220 1.0
C      1  0.3981899880605  0.2609761701188  0.4773734214620 1.0
C      1  0.5226261142108  0.6018094746785  0.2609769942742 1.0
C      1  0.5226264601007  0.3981894318853  0.7390241630026 1.0
C      1  0.4773742266152  0.6018114575035  0.7390232146157 1.0
C      1  0.7390228139088  0.5226245985899  0.3981894145335 1.0
C      1  0.7390232092058  0.4773738807018  0.6018100778218 1.0
C      1  0.2609755912168  0.5226275154471  0.6018105802154 1.0
C      1  0.6018109988626  0.7390227621186  0.4773732386360 1.0
C      1  0.6018102389759  0.2609766727378  0.5226256918014 1.0
C      1  0.3981899223279  0.7390237577999  0.5226261895060 1.0
C      1  0.3981891295466  0.4773737701230  0.2609772853687 1.0
C      1  0.4773740195518  0.2609766750174  0.3981905214322 1.0
C      1  0.2609758064668  0.3981894362506  0.4773732099002 1.0
C      1  0.6018084412036  0.5226255573005  0.2609763564974 1.0
C      1  0.3981894049799  0.5226272837157  0.7390242363187 1.0
C      1  0.6018112233395  0.4773742943904  0.7390238005344 1.0
C      1  0.5226262025497  0.7390227979697  0.3981893025856 1.0
C      1  0.4773746225052  0.7390237222707  0.6018100002710 1.0
C      1  0.5226264901510  0.2609763544924  0.6018107194362 1.0
C      1  0.7390230406783  0.6018090962160  0.4773728911085 1.0
C      1  0.2609762977986  0.6018109018500  0.5226266281269 1.0
C      1  0.7390238348383  0.3981901112854  0.5226255725918 1.0
C      1  0.8369415899782  0.2863369840911  0.4559997982927 1.0
C      1  0.4560000877511  0.8369413348145  0.2863375711970 1.0
C      1  0.2863367728732  0.4560022135176  0.8369415673309 1.0
C      1  0.1630581237875  0.7136634966500  0.4560019632249 1.0
C      1  0.1630569821374  0.2863377583418  0.5439987955416 1.0
C      1  0.8369412378097  0.7136618195842  0.5439986340824 1.0
C      1  0.5439995176786  0.1630579024711  0.2863386912057 1.0
C      1  0.5440009742989  0.8369414573630  0.7136611642253 1.0
C      1  0.4560014803771  0.1630589384208  0.7136644172773 1.0
C      1  0.7136637536199  0.5439992063305  0.8369421681403 1.0
C      1  0.7136602623228  0.4559987335806  0.1630590293978 1.0
C      1  0.2863371156945  0.5440005906237  0.1630590167635 1.0
C      1  0.2863379426794  0.8369411603340  0.4560000708682 1.0
C      1  0.8369399656319  0.4559974290104  0.2863363399531 1.0
C      1  0.4560012385754  0.2863376981712  0.8369424306422 1.0
C      1  0.7136622766667  0.1630578036058  0.4560003249479 1.0
C      1  0.2863367430977  0.1630597995149  0.5440003995400 1.0
C      1  0.7136634575327  0.8369411341211  0.5439984040565 1.0
C      1  0.1630574502648  0.5439987305784  0.2863374394826 1.0
C      1  0.8369411285872  0.5440014483262  0.7136617793328 1.0
C      1  0.1630588100095  0.4560028354919  0.7136630716714 1.0
C      1  0.5440008817055  0.7136631187789  0.8369403294837 1.0
C      1  0.4559989734852  0.7136620318488  0.1630600931947 1.0
C      1  0.5440000200764  0.2863362297063  0.1630591392271 1.0
C      1  0.1131523747476  0.4628384003047  0.2884691401048 1.0
C      1  0.2884726942095  0.1131532345728  0.4628398409880 1.0
C      1  0.4628396628252  0.2884734741537  0.1131534698351 1.0
C      1  0.8868478275746  0.5371563832050  0.2884727951848 1.0
C      1  0.8868460221351  0.4628399479542  0.7115260672154 1.0
C      1  0.1131533305155  0.5371635272747  0.7115308776234 1.0
C      1  0.7115311937834  0.8868460498791  0.4628374308142 1.0
C      1  0.7115270928524  0.1131528047531  0.5371605953297 1.0
C      1  0.2884736642634  0.8868491361332  0.5371579133695 1.0
C      1  0.5371567719816  0.7115257344224  0.1131519975515 1.0
C      1  0.5371631540632  0.2884703677684  0.8868470823931 1.0
C      1  0.4628402469111  0.7115285177353  0.8868475121521 1.0
C      1  0.4628400204423  0.1131520630286  0.2884745154804 1.0
C      1  0.1131526222614  0.2884697376987  0.4628365865244 1.0
C      1  0.2884740570576  0.4628391448992  0.1131538743255 1.0
C      1  0.5371609665419  0.8868468340795  0.2884739071321 1.0
C      1  0.4628407340105  0.8868469449998  0.7115267940110 1.0
C      1  0.5371617263155  0.1131535730284  0.7115312058353 1.0
C      1  0.8868463738603  0.7115245376620  0.4628376950366 1.0
C      1  0.1131526202836  0.7115328254064  0.5371622195575 1.0
C      1  0.8868486157818  0.2884745417687  0.5371582861109 1.0
C      1  0.7115239988034  0.5371569880013  0.1131519202141 1.0
C      1  0.2884689364161  0.5371630151474  0.8868468862139 1.0
C      1  0.7115315813336  0.4628386024550  0.8868470093916 1.0
C      1  0.5734553815520  0.3565558653586  0.4991942970143 1.0
C      1  0.4991943256712  0.5734541563891  0.3565552031788 1.0
C      1  0.3565543221030  0.4991949296750  0.5734544889230 1.0
C      1  0.4265447471520  0.6434447988555  0.4991946994786 1.0
C      1  0.4265452107434  0.3565553944528  0.5008054254141 1.0
C      1  0.5734555034174  0.6434441301997  0.5008049805261 1.0
C      1  0.5008050346261  0.4265457130917  0.3565549674426 1.0
C      1  0.5008057069772  0.5734544908466  0.6434449695862 1.0
C      1  0.4991944743363  0.4265460525342  0.6434461011553 1.0
C      1  0.6434452200028  0.5008052352270  0.5734546740458 1.0
C      1  0.6434451138607  0.4991941707300  0.4265446620263 1.0
C      1  0.3565538870529  0.5008059584456  0.4265452891414 1.0
C      1  0.3565557958077  0.5734558987729  0.4991941978764 1.0
C      1  0.5734543948322  0.4991937724659  0.3565548298511 1.0
C      1  0.4991945662202  0.3565548428010  0.5734541998442 1.0
C      1  0.6434449017991  0.4265441350470  0.4991946297747 1.0
C      1  0.3565545988259  0.4265452298899  0.5008052495913 1.0
C      1  0.6434442288069  0.5734547547575  0.5008049205820 1.0
C      1  0.4265455451119  0.5008060681602  0.3565550477398 1.0
C      1  0.5734548398570  0.5008060136548  0.6434453149661 1.0
C      1  0.4265453011653  0.4991945597373  0.6434453754549 1.0
C      1  0.5008059723719  0.6434455710862  0.5734545885203 1.0
C      1  0.4991947416693  0.6434454075458  0.4265450377554 1.0
C      1  0.5008057711895  0.3565543782071  0.4265454028528 1.0
C      1  0.6219141437287  0.2029361472386  0.4422467857792 1.0
C      1  0.4422445878989  0.6219130975289  0.2029374126993 1.0
C      1  0.2029314229094  0.4422445781929  0.6219104397544 1.0
C      1  0.3780870625267  0.7970649796283  0.4422459781672 1.0
C      1  0.3780898237526  0.2029331948324  0.5577588341182 1.0
C      1  0.6219141045846  0.7970641583383  0.5577534947360 1.0
C      1  0.5577534816386  0.3780845333439  0.2029370017652 1.0
C      1  0.5577559269060  0.6219129827413  0.7970639394334 1.0
C      1  0.4422441012607  0.3780888908877  0.7970679540592 1.0
C      1  0.7970651963076  0.5577558580227  0.6219138218991 1.0
C      1  0.7970630706741  0.4422459139340  0.3780843051401 1.0
C      1  0.2029344384474  0.5577555551401  0.3780873026350 1.0
C      1  0.2029346641915  0.6219132472202  0.4422461923788 1.0
C      1  0.6219126400851  0.4422463429120  0.2029365515366 1.0
C      1  0.4422423957516  0.2029328105627  0.6219112335157 1.0
C      1  0.7970633256390  0.3780844008144  0.4422472267814 1.0
C      1  0.2029314078451  0.3780903172607  0.5577569564473 1.0
C      1  0.7970638021140  0.6219134882654  0.5577539816816 1.0
C      1  0.3780860674908  0.5577554818942  0.2029370178613 1.0
C      1  0.6219143547785  0.5577552719897  0.7970666965685 1.0
C      1  0.3780883534169  0.4422448188339  0.7970678866038 1.0
C      1  0.5577558143379  0.7970645218466  0.6219120465845 1.0
C      1  0.4422449834717  0.7970640709311  0.3780876218918 1.0
C      1  0.5577531920719  0.2029363153484  0.3780864130091 1.0
C      1  0.3286870678380  0.2578610457697  0.4020625088909 1.0
C      1  0.4020616677787  0.3286863389884  0.2578615285873 1.0
C      1  0.2578611014804  0.4020628751450  0.3286870414844 1.0
C      1  0.6713135144275  0.7421377112094  0.4020615658218 1.0
C      1  0.6713130346025  0.2578618647723  0.5979369302646 1.0
C      1  0.3286874984433  0.7421396677854  0.5979371683574 1.0
C      1  0.5979369041503  0.6713124614575  0.2578611559578 1.0
C      1  0.5979379143706  0.3286872148001  0.7421391059733 1.0
C      1  0.4020631153868  0.6713141388080  0.7421391363346 1.0
C      1  0.7421380903949  0.5979351430552  0.3286863254582 1.0
C      1  0.7421389888286  0.4020627581693  0.6713124510895 1.0
C      1  0.2578610443978  0.5979388941706  0.6713135841627 1.0
C      1  0.2578605877542  0.3286868914559  0.4020619430204 1.0
C      1  0.3286865682134  0.4020621177797  0.2578611121649 1.0
C      1  0.4020626983654  0.2578611640812  0.3286875094527 1.0
C      1  0.7421385950397  0.6713112149610  0.4020614928623 1.0
C      1  0.2578613965802  0.6713141395497  0.5979376622221 1.0
C      1  0.7421391764070  0.3286874412547  0.5979366508707 1.0
C      1  0.6713119289228  0.5979361925211  0.2578610441567 1.0
C      1  0.3286869476044  0.5979385231904  0.7421394589878 1.0
C      1  0.6713135866595  0.4020629171820  0.7421388700547 1.0
C      1  0.5979372020753  0.7421385283897  0.3286865837678 1.0
C      1  0.4020633574241  0.7421398137253  0.6713126995022 1.0
C      1  0.5979381378310  0.2578617717202  0.6713130976767 1.0
C      1  0.1560419262956  0.3890879036681  0.3188736702067 1.0
C      1  0.3188758408304  0.1560415820901  0.3890877178197 1.0
C      1  0.3890895295168  0.3188755439002  0.1560422982167 1.0
C      1  0.8439572937008  0.6109081551557  0.3188748429832 1.0
C      1  0.8439588076001  0.3890888180056  0.6811228525159 1.0
C      1  0.1560416526482  0.6109153978238  0.6811253424571 1.0
C      1  0.6811263296260  0.8439568244231  0.3890876370556 1.0
C      1  0.6811239529647  0.1560426801532  0.6109118276743 1.0
C      1  0.3188756901822  0.8439584692287  0.6109112061858 1.0
C      1  0.6109096978555  0.6811231986764  0.1560424873218 1.0
C      1  0.6109144773362  0.3188748264129  0.8439584253064 1.0
C      1  0.3890882780783  0.6811257027049  0.8439579918715 1.0
C      1  0.3890892341221  0.1560419918005  0.3188766509574 1.0
C      1  0.1560413564379  0.3188743617018  0.3890852070823 1.0
C      1  0.3188765649835  0.3890881241167  0.1560412816180 1.0
C      1  0.6109124425928  0.8439585517520  0.3188756931695 1.0
C      1  0.3890889679275  0.8439596962669  0.6811232092979 1.0
C      1  0.6109131236303  0.1560432689373  0.6811250425703 1.0
C      1  0.8439583787038  0.6811213431895  0.3890872103156 1.0
C      1  0.1560424453606  0.6811270665431  0.6109124863748 1.0
C      1  0.8439580534611  0.3188763367960  0.6109098083513 1.0
C      1  0.6811226173956  0.6109094613272  0.1560423395338 1.0
C      1  0.3188752206041  0.6109140535933  0.8439593752298 1.0
C      1  0.6811267159387  0.3890878659250  0.8439576425928 1.0
C      1  0.4409101795049  0.7898712225429  0.2101293933335 1.0
C      1  0.2101293171685  0.4409136407399  0.7898704621643 1.0
C      1  0.5590898249520  0.2101275296826  0.2101293067266 1.0
C      1  0.5590898983045  0.7898711252078  0.7898701610582 1.0
C      1  0.4409127892527  0.2101299374042  0.7898716198443 1.0
C      1  0.7898708695635  0.5590898298274  0.7898704184604 1.0
C      1  0.7898697014994  0.4409083440561  0.2101272383232 1.0
C      1  0.2101289721946  0.5590889455635  0.2101302117587 1.0
C      1  0.7898710063210  0.2101285265171  0.4409109108802 1.0
C      1  0.2101301554325  0.7898704787920  0.4409118804843 1.0
C      1  0.2101285712548  0.2101303114013  0.5590876142623 1.0
C      1  0.7898710065688  0.7898699418788  0.5590878454503 1.0
END
