TITL C-28866-6487-8 -8.131 3375.00 -1423.43851428 0 0 173 (C1) n - 1
REM
REM Run started: at 2020.12.26 22:17:37 in /rds/project/t2_vol4/rds-t2-cs072/BORA/CARBON/AIRSS/Generating-Clusters/Str-Search/Higher-Symm/C100-200
REM VASP from code version vasp.5.4.4.18Apr17-6-g9f103f2a35 (build Oct 11 2019 16:45:47) gamma-only
REM
REM
REM
REM
REM ./C.cell (533062f00bc710175b3da973d35f2034)
REM AIRSS Version 0.9.1 bugfix July 2018 build 013d7b7c2542+ Fri, 06 Jul 2018 19:26:36 +0100
REM compiler GCC version 4.8.5 20150623 (Red Hat 4.8.5-39)
REM options -cpp -mtune=generic -march=x86-64 -g -O0
REM seed 1209377410 517797551 -147360520 1479280980 474269449 -223928056 -641174211 -1681953790 1106877634 2045097194 -355832826 -554977996
REM
REM C.POTCAR (d86ddea03c3ceb6dc662c8ad6801f873)
REM 
CELL 1.54180   15.00000   15.00000   15.00000   90.00000   90.00000   90.00000
LATT -1
SFAC C  
C      1  0.6158548896680  0.3350500327305  0.2984081126875 1.0
C      1  0.3906196224113  0.6655034147848  0.7100323977839 1.0
C      1  0.4561181419298  0.1430976613314  0.2984357280856 1.0
C      1  0.5498250037529  0.8559857118805  0.7035959854858 1.0
C      1  0.3129809276154  0.7947419447662  0.6984927319163 1.0
C      1  0.6956025562898  0.2056129317955  0.3210061572923 1.0
C      1  0.4153077052817  0.6509639708514  0.2074692503270 1.0
C      1  0.5905378579845  0.3288991641674  0.7868434656022 1.0
C      1  0.5077109951849  0.2080588435991  0.7332610070899 1.0
C      1  0.4893283385711  0.7753461882624  0.2684238058063 1.0
C      1  0.6710804813554  0.2082663966999  0.6970059876336 1.0
C      1  0.3255141597995  0.7555823548916  0.3085053503735 1.0
C      1  0.3793457386841  0.8600802191416  0.6655905956770 1.0
C      1  0.6263438558914  0.1418092655188  0.3507802670948 1.0
C      1  0.2535794502842  0.2327275268413  0.3873737347686 1.0
C      1  0.7418317967768  0.7740694469778  0.6093980236616 1.0
C      1  0.5057338840105  0.6572548550921  0.1704136450446 1.0
C      1  0.4999917781337  0.3344560836716  0.8242492702958 1.0
C      1  0.4183072610937  0.2398157766846  0.5734563316941 1.0
C      1  0.5614446334522  0.7732458417549  0.4168881530921 1.0
C      1  0.4931418740521  0.1544765767660  0.6524939612439 1.0
C      1  0.4991162553509  0.8292121900417  0.3523449792679 1.0
C      1  0.7805270709540  0.7298269420948  0.4496307127083 1.0
C      1  0.2118535286095  0.2790926169427  0.5498014987010 1.0
C      1  0.7772620443260  0.6346366346172  0.6682174876097 1.0
C      1  0.2247773443209  0.3767569697447  0.3324872279801 1.0
C      1  0.8298458575666  0.3426416061159  0.4906125852237 1.0
C      1  0.1744631935304  0.6582457356690  0.5382503158962 1.0
C      1  0.2159531044791  0.5212984164516  0.2325696823077 1.0
C      1  0.7891351211982  0.4682083869701  0.7274977431674 1.0
C      1  0.7852930784669  0.3998199122508  0.5613228861865 1.0
C      1  0.2024399794776  0.6113893973398  0.4602380757064 1.0
C      1  0.5473044679778  0.1873376638632  0.4978717800507 1.0
C      1  0.4450382787924  0.8201207324977  0.5083897011530 1.0
C      1  0.6514175962299  0.4071976136363  0.8003949813494 1.0
C      1  0.3578433174524  0.5826909649977  0.1622111642380 1.0
C      1  0.2977404604349  0.6352299136160  0.6782577415283 1.0
C      1  0.7069243924991  0.3664916565917  0.3336437442287 1.0
C      1  0.4489589038515  0.5938458324944  0.7514204382273 1.0
C      1  0.5586902921857  0.4019314287451  0.2490345460083 1.0
C      1  0.5083028844569  0.4540686912290  0.6850527874523 1.0
C      1  0.5048984751295  0.5390829803921  0.3174116642449 1.0
C      1  0.2921899701701  0.5553692203403  0.6209091508399 1.0
C      1  0.7072406470196  0.4515346231528  0.3845612070488 1.0
C      1  0.5893338442824  0.4003643728365  0.7090310550461 1.0
C      1  0.4284269625811  0.5954050032735  0.2981714522250 1.0
C      1  0.6448723510204  0.2486448121912  0.2515004371040 1.0
C      1  0.3618919980231  0.7483035148720  0.7648223340429 1.0
C      1  0.5195756688176  0.4963317293013  0.8647724436581 1.0
C      1  0.4981863510009  0.4969490154305  0.1247291911026 1.0
C      1  0.5686197427055  0.5793268056335  0.3747970735968 1.0
C      1  0.4400496054192  0.4176606277172  0.6326759238341 1.0
C      1  0.6410935772456  0.6599335464889  0.2444647955438 1.0
C      1  0.3602460854441  0.3369494767978  0.7596062116490 1.0
C      1  0.4009242553287  0.7406435221739  0.2529981446347 1.0
C      1  0.5980489385569  0.2364822557041  0.7502087307453 1.0
C      1  0.4770627045733  0.5832499312622  0.8455152096938 1.0
C      1  0.5403901523167  0.4129709274929  0.1516348041807 1.0
C      1  0.6155716205504  0.4896405310955  0.8485207219692 1.0
C      1  0.4020727454712  0.5004049118315  0.1309910012054 1.0
C      1  0.5109216751644  0.7475958699459  0.8169118939652 1.0
C      1  0.4984068769626  0.2512161296591  0.1880518018312 1.0
C      1  0.7328505869803  0.4559440529081  0.2828633191689 1.0
C      1  0.2743761594773  0.5447299490201  0.7252390080586 1.0
C      1  0.7940264687001  0.6362267695731  0.4276360221773 1.0
C      1  0.2028890870329  0.3744496933002  0.5734321766068 1.0
C      1  0.6768004802880  0.8680593735390  0.3783839696258 1.0
C      1  0.3104378747467  0.1427839566373  0.6233298135733 1.0
C      1  0.4690211111631  0.6605291498179  0.5258197532335 1.0
C      1  0.5338992458094  0.3472648244697  0.4754396763907 1.0
C      1  0.6947696356451  0.5012998286000  0.6238585742646 1.0
C      1  0.2973810384046  0.5150441657011  0.3756392249428 1.0
C      1  0.2691316861821  0.2250148313552  0.6066636461851 1.0
C      1  0.7169515467719  0.7839204940496  0.3980406772960 1.0
C      1  0.3387620310334  0.5281632151385  0.5331372161665 1.0
C      1  0.6574580655836  0.4757976884552  0.4715021957796 1.0
C      1  0.8106016415882  0.6436151622223  0.5795082018113 1.0
C      1  0.1931576595869  0.3668978074166  0.4212829567818 1.0
C      1  0.5115364440406  0.3295798506573  0.1456250548079 1.0
C      1  0.5042239129313  0.6675292219930  0.8579310985282 1.0
C      1  0.4550206572360  0.2935980724102  0.3479370252197 1.0
C      1  0.5430492837973  0.7075397550633  0.6550310094525 1.0
C      1  0.6515656252805  0.1812599770683  0.6082459383361 1.0
C      1  0.3334849108437  0.7987325987802  0.3979103030995 1.0
C      1  0.2334605267917  0.7362834286559  0.5509837467613 1.0
C      1  0.7727611251136  0.2697386671089  0.4694134044754 1.0
C      1  0.2034997036775  0.2762664473388  0.4536530350326 1.0
C      1  0.7955836001186  0.7340482649283  0.5451776237829 1.0
C      1  0.7960749180002  0.4944047950611  0.3490672092503 1.0
C      1  0.2066576341626  0.5105473037828  0.6618383297237 1.0
C      1  0.7476531917873  0.3977946778338  0.7754183035275 1.0
C      1  0.2676075802489  0.5832607164639  0.1802453648601 1.0
C      1  0.2031712946483  0.4280914315886  0.4909921088532 1.0
C      1  0.7938924852794  0.5831147401988  0.5111810410747 1.0
C      1  0.5760268606284  0.7612402209363  0.7409152355148 1.0
C      1  0.4268061987596  0.2384738139502  0.2585933337909 1.0
C      1  0.5870254309278  0.1998548321650  0.4178643194331 1.0
C      1  0.4121846371998  0.8054169041725  0.5919906707054 1.0
C      1  0.5110677036077  0.5504120864148  0.6896361255704 1.0
C      1  0.4931344840792  0.4439399426201  0.3068722671479 1.0
C      1  0.7056639200390  0.5324473792731  0.2251064383102 1.0
C      1  0.3015078999535  0.4662134146774  0.7796206418133 1.0
C      1  0.2499531725168  0.4671128705940  0.3066921517552 1.0
C      1  0.7449441568914  0.5452262606057  0.6923951709505 1.0
C      1  0.7210472614932  0.2489157808703  0.5689678279883 1.0
C      1  0.2658017479811  0.7574741469477  0.4582395516464 1.0
C      1  0.6191219152366  0.3919372518222  0.5207552521911 1.0
C      1  0.4109840419767  0.5834833602694  0.4743130400741 1.0
C      1  0.5781555902389  0.5468879121094  0.4715324171078 1.0
C      1  0.4167078244506  0.4568574575579  0.5449402681268 1.0
C      1  0.5670337229251  0.1530079343181  0.5855091926503 1.0
C      1  0.4170477181176  0.8373391431695  0.4170720354513 1.0
C      1  0.4808932500674  0.2598762942771  0.5044107045395 1.0
C      1  0.5135635388727  0.7503585511809  0.4975710173213 1.0
C      1  0.5875224283031  0.7343421578076  0.5659491758856 1.0
C      1  0.4184030821076  0.2377025644531  0.4220049007997 1.0
C      1  0.6674892327532  0.6503382710951  0.8164201741669 1.0
C      1  0.3373222112930  0.3479484020546  0.1774564911277 1.0
C      1  0.6415846770546  0.4141105321623  0.6257575619040 1.0
C      1  0.3709374230924  0.5753165192160  0.3736203369987 1.0
C      1  0.3765548615059  0.4204562634305  0.8124621670477 1.0
C      1  0.6290554289950  0.5757372260797  0.1917997610124 1.0
C      1  0.5462841727391  0.5741703169214  0.1475621485580 1.0
C      1  0.4653028590629  0.4218978232743  0.8453920988727 1.0
C      1  0.5855203522309  0.8652402865308  0.3898183847845 1.0
C      1  0.4033854938949  0.1521984074280  0.6119729708065 1.0
C      1  0.5720526443972  0.1992545732703  0.2159113161315 1.0
C      1  0.4364649015490  0.8013137285088  0.7951545023336 1.0
C      1  0.5584098354261  0.6092412928212  0.6397712740582 1.0
C      1  0.4421227836946  0.3918128842309  0.3616781328413 1.0
C      1  0.2655947931362  0.7339263952574  0.6415874511391 1.0
C      1  0.7414493921311  0.2696479861112  0.3759583973201 1.0
C      1  0.2539755570249  0.5148477259073  0.4676614420962 1.0
C      1  0.7388416755979  0.4995797077587  0.5337255508729 1.0
C      1  0.3562750900743  0.4198450200616  0.1397459890637 1.0
C      1  0.6622156561762  0.5687142186371  0.8382716048762 1.0
C      1  0.6420823069457  0.7244088517016  0.3908936123221 1.0
C      1  0.3443269123917  0.2890074208423  0.6050580457773 1.0
C      1  0.7872875805100  0.3287492197624  0.7116473924247 1.0
C      1  0.2172117561630  0.6331368481038  0.2468535843675 1.0
C      1  0.4593490652255  0.4174526621975  0.4580341629511 1.0
C      1  0.5694390586927  0.6230001233210  0.5424052755801 1.0
C      1  0.7853577917955  0.5940859494559  0.3453586546840 1.0
C      1  0.2158687717203  0.4109406624630  0.6590364965538 1.0
C      1  0.7376864235747  0.7177411880643  0.6909603095454 1.0
C      1  0.2637405766182  0.2906738638177  0.3077660201093 1.0
C      1  0.2632613267106  0.3867910359242  0.7367660262353 1.0
C      1  0.7385756521566  0.6144771965311  0.2664108660978 1.0
C      1  0.1163461443187  0.5516483110032  0.6516909568451 1.0
C      1  0.8799733176903  0.4521326520744  0.3766105619792 1.0
C      1  0.3835497960336  0.3498835026274  0.6630156891904 1.0
C      1  0.6183771212856  0.6491192540445  0.3421438857849 1.0
C      1  0.4446204101170  0.2712323510522  0.7831587499921 1.0
C      1  0.5561686576555  0.7215453373690  0.2177202520797 1.0
C      1  0.1409568596020  0.5730266649183  0.2661760874952 1.0
C      1  0.8181886897596  0.4008676448559  0.6580521021883 1.0
C      1  0.4073388875975  0.1433753170482  0.3816402886964 1.0
C      1  0.6076153156002  0.8717884797214  0.6368239081425 1.0
C      1  0.4445568385374  0.7077370491226  0.6249629191077 1.0
C      1  0.5563841979763  0.2954124068468  0.3802592447612 1.0
C      1  0.6693090570813  0.7214006565239  0.7588402724314 1.0
C      1  0.3323684762401  0.2808180065123  0.2403973404491 1.0
C      1  0.2317854346034  0.6848898350362  0.4049641656708 1.0
C      1  0.6943431136118  0.3479409930511  0.5671837309449 1.0
C      1  0.5488214922520  0.1354024571839  0.2841633313829 1.0
C      1  0.4548180269537  0.8670180027112  0.7277246753208 1.0
C      1  0.2547185858155  0.6921773373184  0.3132737490985 1.0
C      1  0.7514484743588  0.2538603740803  0.6728523503902 1.0
C      1  0.6536304647006  0.8109448921566  0.5899765763735 1.0
C      1  0.3349395362091  0.1862055409160  0.4089787340729 1.0
C      1  0.1244347372526  0.6191212172898  0.6032972606804 1.0
C      1  0.8801591891256  0.3867673284308  0.4274858088480 1.0
C      1  0.4827561397959  0.5088205721230  0.4847243979832 1.0
END
