TITL C-28165-8331-25 -4.129 3375.00 -690.53631014 0 0 86 (C2) n - 1
REM
REM Run started: at 2020.12.04 09:03:19 in /rds/project/t2_vol4/rds-t2-cs072/BORA/CARBON/AIRSS/Generating-Clusters/Str-Search/Higher-Symm/C10-100
REM VASP from code version vasp.5.4.4.18Apr17-6-g9f103f2a35 (build Oct 11 2019 16:45:47) gamma-only
REM
REM
REM
REM
REM ./C.cell (f39ce9773e2efe3fa5bbdf770a4156b8)
REM AIRSS Version 0.9.1 bugfix July 2018 build 013d7b7c2542+ Fri, 06 Jul 2018 19:26:36 +0100
REM compiler GCC version 4.8.5 20150623 (Red Hat 4.8.5-39)
REM options -cpp -mtune=generic -march=x86-64 -g -O0
REM seed 1652178592 -323076912 1190734898 1912819818 958303214 1643268824 -1933627502 -1020773523 -1783356314 -1402293806 -1963622984 1063613635
REM
REM C.POTCAR (d86ddea03c3ceb6dc662c8ad6801f873)
REM 
CELL 1.54180   15.00000   15.00000   15.00000   90.00000   90.00000   90.00000
LATT -1
SFAC C  
C      1  0.3555964442807  0.7757078582763  0.6075088081261 1.0
C      1  0.3555890316562  0.2242850855082  0.3924864721088 1.0
C      1  0.6427074238425  0.2237840147221  0.6077352144509 1.0
C      1  0.6427106939640  0.7762179640911  0.3922710866235 1.0
C      1  0.7691736266373  0.6585594211379  0.3571304794818 1.0
C      1  0.7691743106593  0.3414402182216  0.6428734997650 1.0
C      1  0.2286319190037  0.3415138742175  0.3571761866823 1.0
C      1  0.2286354707282  0.6584861717782  0.6428205697510 1.0
C      1  0.7832164814168  0.6320043740003  0.5225431277430 1.0
C      1  0.7832135937097  0.3679950695541  0.4774610919311 1.0
C      1  0.2142907569601  0.3679467374650  0.5225530776700 1.0
C      1  0.2142918976861  0.6320533111931  0.4774441581897 1.0
C      1  0.3525744652041  0.7440279793293  0.6857607920611 1.0
C      1  0.3525628303996  0.2559683973464  0.3142370499833 1.0
C      1  0.6456491085376  0.2551863485974  0.6861129448467 1.0
C      1  0.6456490829071  0.7448141503600  0.3138928782140 1.0
C      1  0.6690489471564  0.2995457430152  0.3603246340262 1.0
C      1  0.6690514616458  0.7004534707656  0.6396797077535 1.0
C      1  0.3283055464386  0.7005895213013  0.3601820588297 1.0
C      1  0.3283067808807  0.2994111019367  0.6398130445502 1.0
C      1  0.7085188844397  0.4172603751459  0.7464410756433 1.0
C      1  0.7085168253649  0.5827399069925  0.2535639367511 1.0
C      1  0.2886007529329  0.5826010734617  0.7466442140575 1.0
C      1  0.2885982434451  0.4173973600086  0.2533528510624 1.0
C      1  0.2359505036874  0.3136800792759  0.4450942102228 1.0
C      1  0.2359537466422  0.6863186438383  0.5549028726667 1.0
C      1  0.7618736578067  0.6863823403061  0.4450575861113 1.0
C      1  0.7618715682034  0.3136184118158  0.5549475845702 1.0
C      1  0.3784806225761  0.6137129707060  0.3368407409723 1.0
C      1  0.3784801015149  0.3862884601605  0.6631541729135 1.0
C      1  0.6186411075945  0.3862913190506  0.3370126326049 1.0
C      1  0.6186431277094  0.6137066256888  0.6629880640120 1.0
C      1  0.2984234103646  0.4474318354781  0.6770479736566 1.0
C      1  0.2984239275666  0.5525681092314  0.3229478253437 1.0
C      1  0.6986823362502  0.5523891555123  0.6767977332930 1.0
C      1  0.6986812188857  0.4476090816157  0.3232026929653 1.0
C      1  0.6597766432077  0.4980056371243  0.7455793727621 1.0
C      1  0.6597758294730  0.5019941328128  0.2544221253594 1.0
C      1  0.3373139208261  0.5018440938449  0.7458308294179 1.0
C      1  0.3373138995595  0.4981545190091  0.2541657419586 1.0
C      1  0.4209560957982  0.4525506015585  0.7349393844752 1.0
C      1  0.4209554374663  0.5474482500893  0.2650579570806 1.0
C      1  0.5762036056658  0.5474198682997  0.7348096025097 1.0
C      1  0.5762031887975  0.4525783214278  0.2651904486743 1.0
C      1  0.2044425543158  0.4648762757315  0.5338572197939 1.0
C      1  0.2044429858356  0.5351248440984  0.4661393658558 1.0
C      1  0.7930170170772  0.5350963038673  0.5338336453754 1.0
C      1  0.7930154137376  0.4649027837811  0.4661696600104 1.0
C      1  0.3049232359403  0.2435271109814  0.4683570188192 1.0
C      1  0.3049279055588  0.7564702397458  0.5316389729165 1.0
C      1  0.6929643838931  0.7566607583831  0.4683280221295 1.0
C      1  0.6929600097723  0.2433417969073  0.5316780225338 1.0
C      1  0.2489615742404  0.3120176732657  0.5935085184258 1.0
C      1  0.2489612659552  0.6879833800411  0.4064883859894 1.0
C      1  0.7484373742176  0.6878417634166  0.5934761335324 1.0
C      1  0.7484328816861  0.3121577356922  0.4065288156246 1.0
C      1  0.4177620876195  0.5066911633357  0.4540196134928 1.0
C      1  0.4177615402987  0.4933144455849  0.5459795104439 1.0
C      1  0.5791663987752  0.4932694687808  0.4540221333742 1.0
C      1  0.5791671520497  0.5067316627899  0.5459772369111 1.0
C      1  0.7753159317092  0.4308458714237  0.6730899628504 1.0
C      1  0.7753128823190  0.5691545138576  0.3269140276831 1.0
C      1  0.2219695047921  0.5691555471163  0.6731195205121 1.0
C      1  0.2219683091014  0.4308439164711  0.3268776569312 1.0
C      1  0.6997678015863  0.3259606515198  0.7118760537317 1.0
C      1  0.6997657832585  0.6740404182511  0.2881299315660 1.0
C      1  0.2980410505130  0.6737467780354  0.7118190630345 1.0
C      1  0.2980354326349  0.3262522553738  0.2881768298527 1.0
C      1  0.7676330543255  0.4882924501749  0.3738020494465 1.0
C      1  0.7676350367691  0.5117066916109  0.6262011263622 1.0
C      1  0.2296097785959  0.5117784102396  0.3737270626264 1.0
C      1  0.2296096558960  0.4882223559337  0.6262695565346 1.0
C      1  0.4741794994359  0.4468396135586  0.3924976425136 1.0
C      1  0.4741825513291  0.5531625258097  0.6075013415956 1.0
C      1  0.5226534751636  0.5530436642876  0.3925174957817 1.0
C      1  0.5226558174426  0.4469586961474  0.6074809373060 1.0
C      1  0.5589882907765  0.4042709662690  0.4171609903973 1.0
C      1  0.5589915722250  0.5957305786372  0.5828387212459 1.0
C      1  0.4379068235549  0.5956929011061  0.4171177989013 1.0
C      1  0.4379058902668  0.4043109607913  0.5828797163954 1.0
C      1  0.6876856924925  0.2447183573573  0.4375187388828 1.0
C      1  0.6876932016344  0.7552837451959  0.5624870219956 1.0
C      1  0.3098805952892  0.7553276658013  0.4374455169362 1.0
C      1  0.3098778172169  0.2446711450741  0.5625515675321 1.0
C      1  0.4985244492953  0.5000263614624  0.6942709042583 1.0
C      1  0.4985235919102  0.4999735668197  0.3057279780256 1.0
END
