TITL C-28945-2386-95 -2.37 3375.00 -404.49750796 0 0 49 (C1) n - 1
REM
REM Run started: at 2020.12.30 00:22:38 in /gpfs/home/chem/mssmkc/CARBON/AIRSS/Generating-Clusters/Str-Search/Higher-Symm/C4-100
REM VASP from code version vasp.5.4.4.18Apr17-6-g9f103f2a35 (build Oct 11 2019 16:45:47) gamma-only
REM
REM
REM
REM
REM ./C.cell (6bd13a13d554368a30d355f37ece5b26)
REM AIRSS Version 0.9.1 bugfix July 2018 build 013d7b7c2542+ Fri, 06 Jul 2018 19:26:36 +0100
REM compiler GCC version 6.3.0
REM options -cpp -iprefix /gpfs/warwick/csc/orac/software/Core/GCCcore/6.3.0/bin/../lib/gcc/x86_64-pc-linux-gnu/6.3.0/ -mtune=generic -march=x86-64 -g -O0
REM seed 1460310188 573555512 -1576070635 -625059923 52599877 1885905145 -75541731 966797274 602625217 1262315879 -2131437033 -1062534734
REM
REM C.POTCAR (d86ddea03c3ceb6dc662c8ad6801f873)
REM 
CELL 1.54180   15.00000   15.00000   15.00000   90.00000   90.00000   90.00000
LATT -1
SFAC C  
C      1  0.6387595708936  0.4470707739280  0.3609714289168 1.0
C      1  0.3650200564488  0.5542403393997  0.6432549326337 1.0
C      1  0.3765792221980  0.5885452428531  0.3774878958230 1.0
C      1  0.6260243052241  0.4171270657355  0.6287832714842 1.0
C      1  0.3368556800032  0.5081956250309  0.4225288386072 1.0
C      1  0.6663890293384  0.4979015516102  0.5916179629619 1.0
C      1  0.2806511660755  0.5161055959066  0.5123989860608 1.0
C      1  0.7077490189503  0.4897053132286  0.5004033939645 1.0
C      1  0.4263558429954  0.7107979768533  0.5498229578637 1.0
C      1  0.5769843550965  0.2925591420084  0.4576348274015 1.0
C      1  0.2827477501363  0.4388969023280  0.5676000740983 1.0
C      1  0.7061650683355  0.5634910443577  0.4421096642957 1.0
C      1  0.5992491853732  0.6931289863446  0.5042865118405 1.0
C      1  0.4000409011154  0.3103199027881  0.5030872223751 1.0
C      1  0.5416919613325  0.7245875751982  0.4332295072901 1.0
C      1  0.4579111559864  0.2809163568728  0.5745603845733 1.0
C      1  0.4364212347002  0.3143570762426  0.6625566653361 1.0
C      1  0.5637865949050  0.6888571626263  0.3444498858730 1.0
C      1  0.4825123277085  0.6705374670645  0.6157769594643 1.0
C      1  0.5221893623557  0.3319756954292  0.3905521755234 1.0
C      1  0.5207202903424  0.6184964349362  0.2984492567581 1.0
C      1  0.4809533856490  0.3868241723561  0.7043616991732 1.0
C      1  0.4514164297652  0.7295320192605  0.4585301437566 1.0
C      1  0.5491256076298  0.2773981802525  0.5499791028669 1.0
C      1  0.3159832053936  0.5901990504746  0.5653199121568 1.0
C      1  0.6844603534301  0.4134830059002  0.4428932384983 1.0
C      1  0.3758841864047  0.6680092433365  0.4277667650984 1.0
C      1  0.6246703287672  0.3367555416492  0.5786984173305 1.0
C      1  0.5770170653744  0.6636734088681  0.5924231936191 1.0
C      1  0.4294973500715  0.3337348073063  0.4125274931495 1.0
C      1  0.3355596876717  0.4616837599433  0.6489608830269 1.0
C      1  0.6677783805074  0.5400061809136  0.3533640073412 1.0
C      1  0.4546599210470  0.5896734571384  0.6612372531627 1.0
C      1  0.5497236517203  0.4124185185351  0.3413294130097 1.0
C      1  0.3547356905292  0.3905093598154  0.5268973666501 1.0
C      1  0.6255809160992  0.6075081848761  0.4689924286365 1.0
C      1  0.3894901564702  0.3938402525614  0.6867823041733 1.0
C      1  0.6110907894150  0.6083168785569  0.3195790388451 1.0
C      1  0.5518538228367  0.4436725996763  0.6872494177221 1.0
C      1  0.4496208347460  0.5589864831460  0.3182543421544 1.0
C      1  0.4661566259179  0.4650222835868  0.3242238105356 1.0
C      1  0.5381555728409  0.5375916007337  0.6770978405770 1.0
C      1  0.5511822940063  0.5485060091127  0.4807308672903 1.0
C      1  0.4085749304829  0.4589087477609  0.4753385670210 1.0
C      1  0.6116938479813  0.5748269021002  0.6270220745108 1.0
C      1  0.3950011162512  0.4234753729526  0.3776722304564 1.0
C      1  0.6565690121493  0.3373779179660  0.4849630917631 1.0
C      1  0.3465521244526  0.6647176898833  0.5217391161966 1.0
C      1  0.4894687328744  0.4974787405948  0.4998932781327 1.0
END
