TITL C-28945-2386-30 -4.658 3375.00 -795.78793803 0 0 98 (C1) n - 1
REM
REM Run started: at 2020.12.29 11:07:53 in /gpfs/home/chem/mssmkc/CARBON/AIRSS/Generating-Clusters/Str-Search/Higher-Symm/C4-100
REM VASP from code version vasp.5.4.4.18Apr17-6-g9f103f2a35 (build Oct 11 2019 16:45:47) gamma-only
REM
REM
REM
REM
REM ./C.cell (6bd13a13d554368a30d355f37ece5b26)
REM AIRSS Version 0.9.1 bugfix July 2018 build 013d7b7c2542+ Fri, 06 Jul 2018 19:26:36 +0100
REM compiler GCC version 6.3.0
REM options -cpp -iprefix /gpfs/warwick/csc/orac/software/Core/GCCcore/6.3.0/bin/../lib/gcc/x86_64-pc-linux-gnu/6.3.0/ -mtune=generic -march=x86-64 -g -O0
REM seed 206837370 -2067352399 -2141307292 1628450391 442269160 1093429810 15263706 -502268718 1584518157 -1522893827 441839565 -1743498541
REM
REM C.POTCAR (d86ddea03c3ceb6dc662c8ad6801f873)
REM 
CELL 1.54180   15.00000   15.00000   15.00000   90.00000   90.00000   90.00000
LATT -1
SFAC C  
C      1  0.5698503975383  0.4466481777700  0.7761843109623 1.0
C      1  0.4530537378871  0.2630316389764  0.7182981775690 1.0
C      1  0.7980846835809  0.5311927667822  0.4646838144098 1.0
C      1  0.6310906376100  0.4906475639439  0.5458841755771 1.0
C      1  0.1913721485122  0.3885523785698  0.5187338958306 1.0
C      1  0.4755053870755  0.5582924817927  0.7103798237781 1.0
C      1  0.7615339292838  0.4511547232583  0.6379367541345 1.0
C      1  0.2647554887951  0.6193212252166  0.5813140934184 1.0
C      1  0.6965665546874  0.3630053253589  0.3772928883494 1.0
C      1  0.7636542427412  0.3050219691822  0.5772741354997 1.0
C      1  0.3949588598652  0.2675759576157  0.5921861484070 1.0
C      1  0.3518119720648  0.5087091510749  0.4416239063344 1.0
C      1  0.6570899565939  0.5749230537127  0.6783620293338 1.0
C      1  0.7207213320894  0.5438920177909  0.2933470936336 1.0
C      1  0.6627851663946  0.6799934391696  0.6760848183403 1.0
C      1  0.3535641433228  0.7436118714690  0.5182321421775 1.0
C      1  0.7031639804200  0.4746589508728  0.2285952033504 1.0
C      1  0.5308383943902  0.7903522239884  0.3796076939407 1.0
C      1  0.2690543740113  0.3406371930531  0.7017710628555 1.0
C      1  0.8052153730305  0.4359678594915  0.4825049140293 1.0
C      1  0.2178689416075  0.5832986865273  0.3738745349158 1.0
C      1  0.2527712142201  0.3639620258607  0.5990912064290 1.0
C      1  0.2252833904622  0.4191042280479  0.3576500701187 1.0
C      1  0.3685817901515  0.5909211105657  0.4780250483808 1.0
C      1  0.4374041106343  0.4552230108012  0.4366928765273 1.0
C      1  0.4510968975933  0.4814760876603  0.2335913820431 1.0
C      1  0.5995084305898  0.5281664234073  0.4688378274861 1.0
C      1  0.7717195394597  0.4197004676938  0.3939884395080 1.0
C      1  0.7017760131866  0.2814886013259  0.6426810244729 1.0
C      1  0.2413526567218  0.5269055260887  0.5855436002179 1.0
C      1  0.7170108028107  0.4251468410672  0.7158395129754 1.0
C      1  0.2889871973881  0.4046743201965  0.2837586971894 1.0
C      1  0.6545938848267  0.4932523705197  0.7506712772641 1.0
C      1  0.6654571079384  0.3974689804142  0.2489221221876 1.0
C      1  0.3146365677924  0.4246079525133  0.7193686579767 1.0
C      1  0.5281005103538  0.7016874266109  0.7619680914557 1.0
C      1  0.2192455780793  0.3525370063641  0.4332580049858 1.0
C      1  0.5839680406931  0.3631184261715  0.7305229170553 1.0
C      1  0.4190534124864  0.6171346963238  0.2466436705966 1.0
C      1  0.4631053650354  0.5931560791180  0.5083257526683 1.0
C      1  0.3058573773440  0.6686846011260  0.6471982533208 1.0
C      1  0.2295441127220  0.6587934135947  0.4153108708749 1.0
C      1  0.4831591003847  0.5479872419811  0.6009984497508 1.0
C      1  0.6791026839515  0.7174954178834  0.5869286324991 1.0
C      1  0.6755030718887  0.6973081098854  0.4448740044403 1.0
C      1  0.2546559681081  0.4964845065308  0.4222203220924 1.0
C      1  0.4540183447795  0.3921935971136  0.2629776559641 1.0
C      1  0.7944531109504  0.3939204454119  0.5663204192530 1.0
C      1  0.3251014160594  0.3136271992924  0.5429960924729 1.0
C      1  0.7330893007985  0.6725239318806  0.5223794401526 1.0
C      1  0.3668713986448  0.3547168908257  0.2940553240472 1.0
C      1  0.6744700351251  0.3367031265999  0.7131581521358 1.0
C      1  0.5607351546313  0.5527039502962  0.6585866460629 1.0
C      1  0.3990257395144  0.4142661479679  0.7672342902392 1.0
C      1  0.7653042734209  0.5857426682188  0.5331350756565 1.0
C      1  0.4434954432037  0.7034746432893  0.2828178336354 1.0
C      1  0.5032649212521  0.5647168880038  0.2286039837964 1.0
C      1  0.6647407869738  0.3114406391996  0.2945121484810 1.0
C      1  0.3743614517163  0.3165213138635  0.3828539923520 1.0
C      1  0.5029372887416  0.5150197230271  0.4585150437940 1.0
C      1  0.2040263608278  0.5167219476021  0.3054667078862 1.0
C      1  0.5218053719162  0.3551982190447  0.3314965990417 1.0
C      1  0.2771431467612  0.4582944931742  0.6364238119250 1.0
C      1  0.3669543869202  0.5366259703014  0.2377038040826 1.0
C      1  0.2074040791632  0.4799476979670  0.5083321361971 1.0
C      1  0.4544964733141  0.6551329324364  0.7373567988601 1.0
C      1  0.5920238038624  0.7556865150854  0.3187112835620 1.0
C      1  0.3057617621602  0.3121364786372  0.4497675909965 1.0
C      1  0.5790486902286  0.6212557884471  0.2389221473711 1.0
C      1  0.5955911898141  0.2265722814821  0.4075496964256 1.0
C      1  0.5282827805705  0.6627899101641  0.4766129238893 1.0
C      1  0.3159432868544  0.2703645649442  0.7398188000193 1.0
C      1  0.6664824178157  0.6220941259841  0.2862171106955 1.0
C      1  0.2957035313045  0.6614956581041  0.4916366666489 1.0
C      1  0.3800849252618  0.6969989716620  0.6952110868366 1.0
C      1  0.7715812523591  0.5130321179284  0.3682563538480 1.0
C      1  0.6669817257541  0.7015878957421  0.3441643046505 1.0
C      1  0.3727597930853  0.2245674761553  0.6753515466604 1.0
C      1  0.4006359607290  0.3147659020304  0.7783963162599 1.0
C      1  0.4537533092374  0.3665597290457  0.4052043691443 1.0
C      1  0.2836218484113  0.4951028055059  0.2515438196666 1.0
C      1  0.5766721038367  0.2679230985806  0.3276699557076 1.0
C      1  0.6138289711913  0.3988952748976  0.3390347251718 1.0
C      1  0.5342261211889  0.3749123372757  0.6444167815153 1.0
C      1  0.6061173976233  0.6242300156312  0.4488170146173 1.0
C      1  0.5505668112556  0.4670617684476  0.6053818082027 1.0
C      1  0.5265195066378  0.7653032309482  0.4760672904796 1.0
C      1  0.6216129827717  0.7574206566927  0.5182607478102 1.0
C      1  0.7128571251101  0.5308372056178  0.6013136662979 1.0
C      1  0.6073777183882  0.7160876859397  0.7374386402946 1.0
C      1  0.5374822344857  0.7054339216319  0.2596524300526 1.0
C      1  0.4196841248678  0.7720337034820  0.4590021902254 1.0
C      1  0.4799017465946  0.3022617947301  0.6311305831784 1.0
C      1  0.4743920880702  0.4743942018726  0.7665128580674 1.0
C      1  0.4391601233713  0.7656212023175  0.3629521439205 1.0
C      1  0.3602598583270  0.7387956471245  0.6123117612132 1.0
C      1  0.6414959851915  0.2294210619633  0.4785752395829 1.0
C      1  0.6918762126010  0.2478909190438  0.5520899615879 1.0
END
