TITL C-28837-525-5 -7.369 3375.00 -1436.48321020 0 0 180 (Th) n - 1
REM
REM Run started: at 2020.12.30 03:42:30 in /rds/project/t2_vol4/rds-t2-cs072/BORA/CARBON/AIRSS/Generating-Clusters/Str-Search/Higher-Symm/Only-C180/Try1-3A
REM VASP from code version vasp.5.4.4.18Apr17-6-g9f103f2a35 (build Oct 11 2019 16:45:47) gamma-only
REM
REM
REM
REM
REM ./C.cell (dfbf6805b19190ca01ef1908a0670cb0)
REM AIRSS Version 0.9.1 bugfix July 2018 build 013d7b7c2542+ Fri, 06 Jul 2018 19:26:36 +0100
REM compiler GCC version 4.8.5 20150623 (Red Hat 4.8.5-39)
REM options -cpp -mtune=generic -march=x86-64 -g -O0
REM seed -2019505742 2011968132 -982879778 -1819247601 -305912774 -1477469935 -185270029 947466870 1296390617 -1078272413 -227713446 161019641
REM
REM C.POTCAR (d86ddea03c3ceb6dc662c8ad6801f873)
REM 
CELL 1.54180   15.00000   15.00000   15.00000   90.00000   90.00000   90.00000
LATT -1
SFAC C  
C      1  0.6909715587507  0.6912563072107  0.6261464283159 1.0
C      1  0.6912559304353  0.6261463310564  0.6909717233725 1.0
C      1  0.6261449512497  0.6909708402312  0.6912556092154 1.0
C      1  0.6909695896506  0.3087459598036  0.3738539251114 1.0
C      1  0.3090377040646  0.6912457674279  0.3738440621382 1.0
C      1  0.3090295249428  0.3087452239379  0.6261446051923 1.0
C      1  0.6912533625902  0.3738553650095  0.3090321670514 1.0
C      1  0.3087536354971  0.6261572765334  0.3090350824989 1.0
C      1  0.3087471801250  0.3738571778819  0.6909676112275 1.0
C      1  0.6261457099434  0.3090316302127  0.3087470740260 1.0
C      1  0.3738409997401  0.6909664295161  0.3087505307520 1.0
C      1  0.3738524258582  0.3090289477323  0.6912552474581 1.0
C      1  0.3090325766776  0.6912519760332  0.6261481422274 1.0
C      1  0.3087493461292  0.6261465896626  0.6909655626378 1.0
C      1  0.3738517818770  0.6909669869349  0.6912512585288 1.0
C      1  0.3090311568749  0.3087468972430  0.3738495256397 1.0
C      1  0.6909669651138  0.6912514602350  0.3738502542564 1.0
C      1  0.6909601455059  0.3087562465199  0.6261584917927 1.0
C      1  0.3087471956737  0.3738507833743  0.3090309502396 1.0
C      1  0.6912494803023  0.6261485060170  0.3090357219070 1.0
C      1  0.6912441974355  0.3738400605300  0.6909630163269 1.0
C      1  0.3738519356577  0.3090321768763  0.3087472358430 1.0
C      1  0.6261527106659  0.6909679368597  0.3087478640937 1.0
C      1  0.6261605416682  0.3090360670158  0.6912468364237 1.0
C      1  0.5912778635642  0.7487008203443  0.7532570312296 1.0
C      1  0.7487015938566  0.7532573114913  0.5912791732798 1.0
C      1  0.7532564552965  0.5912787152429  0.7487022645413 1.0
C      1  0.5912778051606  0.2512999722736  0.2467443583406 1.0
C      1  0.4087240285627  0.7487072102394  0.2467387552201 1.0
C      1  0.4087205738453  0.2512984344428  0.7532561943124 1.0
C      1  0.7487015158985  0.2467432490795  0.4087214311854 1.0
C      1  0.2512949940094  0.7532594398504  0.4087254738914 1.0
C      1  0.2512984771829  0.2467433152596  0.5912780860143 1.0
C      1  0.7532563429486  0.4087220890320  0.2512999183591 1.0
C      1  0.2467401298471  0.5912751196733  0.2512933654676 1.0
C      1  0.2467441058999  0.4087219787659  0.7486993382050 1.0
C      1  0.4087229484321  0.7487009784173  0.7532566405598 1.0
C      1  0.2512979809561  0.7532571873966  0.5912780069804 1.0
C      1  0.2467435931748  0.5912764054890  0.7487001704147 1.0
C      1  0.4087231414443  0.2512983767606  0.2467420208722 1.0
C      1  0.5912784173570  0.7487030413094  0.2467421679249 1.0
C      1  0.5912749979712  0.2512923658786  0.7532616319802 1.0
C      1  0.2512978537052  0.2467423254578  0.4087221540922 1.0
C      1  0.7487022595511  0.7532579943062  0.4087235385597 1.0
C      1  0.7487055274191  0.2467399184435  0.5912739812548 1.0
C      1  0.2467425131341  0.4087222825403  0.2512967383612 1.0
C      1  0.7532572004840  0.5912768073354  0.2512994841056 1.0
C      1  0.7532604061788  0.4087252921036  0.7487072857884 1.0
C      1  0.1611361295699  0.3931665039258  0.5958576904393 1.0
C      1  0.3931674185459  0.5958588161581  0.1611359025281 1.0
C      1  0.5958583674079  0.1611365075859  0.3931669101604 1.0
C      1  0.1611369528846  0.6068328653829  0.4041413230633 1.0
C      1  0.8388641931556  0.3931667226149  0.4041414259005 1.0
C      1  0.8388627369964  0.6068327512404  0.5958587299774 1.0
C      1  0.3931670778981  0.4041414528676  0.8388625801927 1.0
C      1  0.6068326159259  0.5958583421466  0.8388641095356 1.0
C      1  0.6068330479388  0.4041420966165  0.1611372749799 1.0
C      1  0.5958583738696  0.8388636599410  0.6068333281144 1.0
C      1  0.4041410239412  0.1611363978371  0.6068325885451 1.0
C      1  0.4041418063556  0.8388635662740  0.3931668935770 1.0
C      1  0.8388629656897  0.3931670833647  0.5958586295528 1.0
C      1  0.6068328267288  0.5958582112235  0.1611374992591 1.0
C      1  0.4041417637454  0.1611366520944  0.3931670063966 1.0
C      1  0.8388637254655  0.6068334495940  0.4041424109268 1.0
C      1  0.1611371624010  0.3931672302441  0.4041412066029 1.0
C      1  0.1611361397584  0.6068329652674  0.5958584175496 1.0
C      1  0.6068325065949  0.4041411240255  0.8388640060897 1.0
C      1  0.3931670709252  0.5958576982246  0.8388628794599 1.0
C      1  0.3931670996222  0.4041415719417  0.1611356903558 1.0
C      1  0.4041417147217  0.8388632636295  0.6068330585580 1.0
C      1  0.5958581606094  0.1611362073798  0.6068332170425 1.0
C      1  0.5958588673325  0.8388638821440  0.3931673445379 1.0
C      1  0.6993477597781  0.1644982437259  0.5811904014234 1.0
C      1  0.1644969535851  0.5811912131459  0.6993472651185 1.0
C      1  0.5811892169944  0.6993474524605  0.1644977298608 1.0
C      1  0.6993479578962  0.8355031831585  0.4188101396275 1.0
C      1  0.3006525049599  0.1644970254655  0.4188101106518 1.0
C      1  0.3006523001403  0.8355031031558  0.5811904490760 1.0
C      1  0.1644972583055  0.4188101246833  0.3006518593983 1.0
C      1  0.8355037495589  0.5811924221660  0.3006532033944 1.0
C      1  0.8355012581138  0.4188105581381  0.6993482232352 1.0
C      1  0.5811879776910  0.3006512550733  0.8355020833437 1.0
C      1  0.4188095813771  0.6993467115066  0.8355023869650 1.0
C      1  0.4188096383848  0.3006521861156  0.1644964092838 1.0
C      1  0.3006512205812  0.1644979386468  0.5811899988159 1.0
C      1  0.8355027244606  0.5811899050661  0.6993482880906 1.0
C      1  0.4188122546153  0.6993488133785  0.1644978849346 1.0
C      1  0.3006519964304  0.8355017136122  0.4188097423680 1.0
C      1  0.6993477517599  0.1644967846878  0.4188092727704 1.0
C      1  0.6993477173324  0.8355038034871  0.5811911352116 1.0
C      1  0.8355038081270  0.4188079342235  0.3006524420059 1.0
C      1  0.1644986457418  0.5811894720470  0.3006516672847 1.0
C      1  0.1644962780069  0.4188071041072  0.6993470162587 1.0
C      1  0.4188104981911  0.3006524688087  0.8355019961856 1.0
C      1  0.5811904872831  0.6993478435177  0.8355034051504 1.0
C      1  0.5811909778963  0.3006529043292  0.1644975180538 1.0
C      1  0.6999688164952  0.5465791361945  0.8213237146586 1.0
C      1  0.5465792724594  0.8213221156949  0.6999701580791 1.0
C      1  0.8213220446235  0.6999698901614  0.5465803696468 1.0
C      1  0.6999703716449  0.4534217688423  0.1786799398096 1.0
C      1  0.3000309962019  0.5465789212304  0.1786765836314 1.0
C      1  0.3000304118172  0.4534197685429  0.8213212103672 1.0
C      1  0.5465797926884  0.1786783457728  0.3000304624283 1.0
C      1  0.4534220853273  0.8213232108245  0.3000309447862 1.0
C      1  0.4534196922690  0.1786772177738  0.6999696863875 1.0
C      1  0.8213225109326  0.3000299518826  0.4534205501500 1.0
C      1  0.1786776810140  0.6999688102155  0.4534213934505 1.0
C      1  0.1786772603131  0.3000305472591  0.5465786300573 1.0
C      1  0.3000297996467  0.5465777948717  0.8213198708402 1.0
C      1  0.4534202330518  0.8213215727645  0.6999694677590 1.0
C      1  0.1786776867060  0.6999695564788  0.5465794923580 1.0
C      1  0.3000302658494  0.4534208945338  0.1786765900028 1.0
C      1  0.6999695614480  0.5465797679719  0.1786788816224 1.0
C      1  0.6999686168146  0.4534210120791  0.8213232589403 1.0
C      1  0.4534207800298  0.1786782091613  0.3000301623128 1.0
C      1  0.5465801835591  0.8213229703560  0.3000303500109 1.0
C      1  0.5465779284365  0.1786767913815  0.6999689656610 1.0
C      1  0.1786780843613  0.3000304340384  0.4534196892240 1.0
C      1  0.8213220706877  0.6999698406014  0.4534214472283 1.0
C      1  0.8213222387378  0.3000311863442  0.5465787096635 1.0
C      1  0.2311024533445  0.4515843374815  0.5484652724306 1.0
C      1  0.4515837511313  0.5484654908271  0.2311031241094 1.0
C      1  0.5484655623592  0.2311028415009  0.4515847551024 1.0
C      1  0.2311035506994  0.5484159646039  0.4515348127504 1.0
C      1  0.7688976916520  0.4515843127150  0.4515340982059 1.0
C      1  0.7688961753866  0.5484151535451  0.5484655490373 1.0
C      1  0.4515848880866  0.4515343005762  0.7688964770573 1.0
C      1  0.5484158535052  0.5484654333058  0.7688971088148 1.0
C      1  0.5484152332029  0.4515347556336  0.2311030802428 1.0
C      1  0.5484657914915  0.7688972774254  0.5484159290064 1.0
C      1  0.4515340597244  0.2311032173304  0.5484154628595 1.0
C      1  0.4515351416968  0.7688968472807  0.4515840413895 1.0
C      1  0.7688965223781  0.4515837796795  0.5484649384418 1.0
C      1  0.5484150644804  0.5484655064723  0.2311035014678 1.0
C      1  0.4515345966126  0.2311029852184  0.4515841136739 1.0
C      1  0.7688976260273  0.5484154914438  0.4515346558940 1.0
C      1  0.2311037370064  0.4515846105547  0.4515343498144 1.0
C      1  0.2311024955914  0.5484155392494  0.5484655560138 1.0
C      1  0.5484161821726  0.4515344904749  0.7688968992284 1.0
C      1  0.4515845721300  0.5484650605221  0.7688968458331 1.0
C      1  0.4515839197717  0.4515345203396  0.2311025935331 1.0
C      1  0.4515347990147  0.7688971080400  0.5484153998619 1.0
C      1  0.5484650134566  0.2311029252973  0.5484160582666 1.0
C      1  0.5484660461374  0.7688969744078  0.4515845472550 1.0
C      1  0.4517738868113  0.0939960894400  0.5490395279982 1.0
C      1  0.0939963239799  0.5490395992386  0.4517737235135 1.0
C      1  0.5490402780556  0.4517743741850  0.0939966917711 1.0
C      1  0.4517744075326  0.9060038961612  0.4509604353994 1.0
C      1  0.5482256846199  0.0939962450488  0.4509600764858 1.0
C      1  0.5482257955626  0.9060036588843  0.5490399957105 1.0
C      1  0.0939964800774  0.4509602161849  0.5482251986714 1.0
C      1  0.9060033658096  0.5490397702609  0.5482264583152 1.0
C      1  0.9060036442810  0.4509602871948  0.4517748416256 1.0
C      1  0.5490393593499  0.5482255002150  0.9060039265095 1.0
C      1  0.4509596567206  0.4517738682903  0.9060034954713 1.0
C      1  0.4509609448342  0.5482260006100  0.0939957491491 1.0
C      1  0.5482254843144  0.0939959724950  0.5490395549588 1.0
C      1  0.9060035061498  0.5490397902978  0.4517749010568 1.0
C      1  0.4509606167205  0.4517744644806  0.0939959339336 1.0
C      1  0.5482258943101  0.9060039953061  0.4509604744319 1.0
C      1  0.4517741688739  0.0939962948481  0.4509599622177 1.0
C      1  0.4517742124341  0.9060037641350  0.5490399769253 1.0
C      1  0.9060037020662  0.4509603654573  0.5482263281037 1.0
C      1  0.0939963909498  0.5490397059308  0.5482251462518 1.0
C      1  0.0939964415173  0.4509602128830  0.4517735744148 1.0
C      1  0.4509598108678  0.5482253772863  0.9060035031457 1.0
C      1  0.5490391728792  0.4517739937009  0.9060041855279 1.0
C      1  0.5490404336921  0.5482258550694  0.0939965071117 1.0
C      1  0.5000007215396  0.7311638814160  0.1340144745506 1.0
C      1  0.4999994358790  0.2688361405826  0.8659851003454 1.0
C      1  0.8659823549709  0.4999992287163  0.7311635085248 1.0
C      1  0.8659789478014  0.5000005581962  0.2688388414804 1.0
C      1  0.1340177051098  0.5000004538868  0.2688364799008 1.0
C      1  0.1340212436580  0.4999991327163  0.7311615338310 1.0
C      1  0.7311621216611  0.1340193363563  0.5000005394703 1.0
C      1  0.2688375598938  0.8659805876625  0.4999996514843 1.0
C      1  0.4999992496504  0.7311625264964  0.8659819565181 1.0
C      1  0.7311625918364  0.8659829939051  0.5000008002947 1.0
C      1  0.5000008592959  0.2688375164716  0.1340185940258 1.0
C      1  0.2688368365142  0.1340169456676  0.4999997624362 1.0
END
