TITL C-28945-2386-206 -1.115 3375.00 -164.98906161 0 0 21 (Cs) n - 1
REM
REM Run started: at 2020.12.30 21:30:57 in /gpfs/home/chem/mssmkc/CARBON/AIRSS/Generating-Clusters/Str-Search/Higher-Symm/C4-100
REM VASP from code version vasp.5.4.4.18Apr17-6-g9f103f2a35 (build Oct 11 2019 16:45:47) gamma-only
REM
REM
REM
REM
REM ./C.cell (6bd13a13d554368a30d355f37ece5b26)
REM AIRSS Version 0.9.1 bugfix July 2018 build 013d7b7c2542+ Fri, 06 Jul 2018 19:26:36 +0100
REM compiler GCC version 6.3.0
REM options -cpp -iprefix /gpfs/warwick/csc/orac/software/Core/GCCcore/6.3.0/bin/../lib/gcc/x86_64-pc-linux-gnu/6.3.0/ -mtune=generic -march=x86-64 -g -O0
REM seed -383137923 1700060214 -1701682637 -1365453063 -1713617636 -1651098472 -2008379199 -2126507733 -2064687992 -916463743 726966178 -1592777605
REM
REM C.POTCAR (d86ddea03c3ceb6dc662c8ad6801f873)
REM 
CELL 1.54180   15.00000   15.00000   15.00000   90.00000   90.00000   90.00000
LATT -1
SFAC C  
C      1  0.7496150207163  0.5467611866594  0.5027019815188 1.0
C      1  0.2401201357852  0.5427752761383  0.5166431015712 1.0
C      1  0.7500312607172  0.4627007137461  0.5024460699170 1.0
C      1  0.2397142951635  0.4583488648339  0.5158779557155 1.0
C      1  0.5332129313443  0.6158213025352  0.5514485924178 1.0
C      1  0.4586733431824  0.6177194446491  0.4838057003437 1.0
C      1  0.5350564510882  0.3862633341576  0.5505293004175 1.0
C      1  0.4601503553462  0.3838017199309  0.4832588723187 1.0
C      1  0.4678648137815  0.5011877440255  0.3369900788834 1.0
C      1  0.5223247106882  0.5425442754769  0.6072209510725 1.0
C      1  0.4692685475918  0.4536095592441  0.4185719490526 1.0
C      1  0.5226555543503  0.4587393060473  0.6070996472593 1.0
C      1  0.2919705157606  0.6138708641307  0.5088243922687 1.0
C      1  0.6982116684984  0.6179406316852  0.5164211377940 1.0
C      1  0.2938266029146  0.3889506511894  0.5073121663948 1.0
C      1  0.6999386784628  0.3905088142740  0.5152450207107 1.0
C      1  0.6200189312487  0.6426208923376  0.5336570511984 1.0
C      1  0.3713103938306  0.6405386989931  0.5005276646361 1.0
C      1  0.6227031837800  0.3625236732406  0.5319084231946 1.0
C      1  0.3726765744333  0.3605588660238  0.5000399391912 1.0
C      1  0.4686752313159  0.5481348806813  0.4189504041236 1.0
END
