TITL C-28483-7622-8 -8.124 3375.00 -1614.74285884 0 0 194 (C1) n - 1
REM
REM Run started: at 2020.12.21 07:23:46 in /rds/project/t2_vol4/rds-t2-cs072/BORA/CARBON/AIRSS/Generating-Clusters/Str-Search/Higher-Symm/C100-200
REM VASP from code version vasp.5.4.4.18Apr17-6-g9f103f2a35 (build Oct 11 2019 16:45:47) gamma-only
REM
REM
REM
REM
REM ./C.cell (533062f00bc710175b3da973d35f2034)
REM AIRSS Version 0.9.1 bugfix July 2018 build 013d7b7c2542+ Fri, 06 Jul 2018 19:26:36 +0100
REM compiler GCC version 4.8.5 20150623 (Red Hat 4.8.5-39)
REM options -cpp -mtune=generic -march=x86-64 -g -O0
REM seed 814588049 -1571687157 -2118533923 -1187821472 -172928015 -1265365692 344240966 914034021 981004171 -1773959967 -1184511963 263256278
REM
REM C.POTCAR (d86ddea03c3ceb6dc662c8ad6801f873)
REM 
CELL 1.54180   15.00000   15.00000   15.00000   90.00000   90.00000   90.00000
LATT -1
SFAC C  
C      1  0.8818047737755  0.3628374423669  0.4620506756071 1.0
C      1  0.7768724177022  0.7606399542980  0.6043656247954 1.0
C      1  0.4213129240713  0.9091760020456  0.4420952624210 1.0
C      1  0.1131410165754  0.6341838142560  0.5362275663025 1.0
C      1  0.2155560759543  0.2397690712388  0.3896937388254 1.0
C      1  0.5668711419210  0.0970507725267  0.5557560528467 1.0
C      1  0.7262129203378  0.6834112015858  0.7308602588887 1.0
C      1  0.4938850499196  0.8519346452543  0.3165053674300 1.0
C      1  0.1641828840420  0.6374623776037  0.6810555629430 1.0
C      1  0.2765499573031  0.3165202724880  0.2649744849752 1.0
C      1  0.5092581114794  0.1465547338059  0.6908292128322 1.0
C      1  0.8302440208617  0.3578015616289  0.3178155485115 1.0
C      1  0.6192985162401  0.4478754004218  0.1141103173587 1.0
C      1  0.6943000532792  0.5876478989199  0.8557004028134 1.0
C      1  0.4372008284643  0.6772203603253  0.1460700065169 1.0
C      1  0.3797881014625  0.5595218076010  0.8859813925969 1.0
C      1  0.3054182744106  0.4069060679590  0.1343137263749 1.0
C      1  0.5538459339680  0.3182038382635  0.8584294925433 1.0
C      1  0.1575840758385  0.4111283879461  0.4593005380354 1.0
C      1  0.4132536984833  0.1404255497157  0.4763929704718 1.0
C      1  0.7688376553993  0.2289073336489  0.5141896185537 1.0
C      1  0.8507111130127  0.5964321899362  0.5306519535143 1.0
C      1  0.5756865019569  0.8863524210672  0.5305545068729 1.0
C      1  0.2292028974453  0.7677947541603  0.4888612016318 1.0
C      1  0.3836224086106  0.8518055313317  0.5137805069834 1.0
C      1  0.1528950405336  0.5866081965018  0.4583070411656 1.0
C      1  0.2331254877360  0.1980638160520  0.4713322972501 1.0
C      1  0.6296801402891  0.1091445826166  0.4853456602288 1.0
C      1  0.8471116164623  0.4220393032396  0.5343706535810 1.0
C      1  0.7270971408074  0.7871187293162  0.5190352302751 1.0
C      1  0.4629362039406  0.5226410462864  0.9195904045825 1.0
C      1  0.3760034473188  0.4510037440930  0.0880206254114 1.0
C      1  0.5645879426648  0.3960555450833  0.9137893551899 1.0
C      1  0.5364411268026  0.4828667215445  0.0779443736639 1.0
C      1  0.6232684643083  0.5480463005499  0.9046604395208 1.0
C      1  0.4301071615135  0.6045274219889  0.0844655849318 1.0
C      1  0.4975317109660  0.3564358747856  0.1574202139747 1.0
C      1  0.7164423363494  0.4347282872309  0.8557056540401 1.0
C      1  0.5841248606905  0.6352199041421  0.1088644459528 1.0
C      1  0.5039609872519  0.6466930823510  0.8370504005421 1.0
C      1  0.2810910825183  0.5587824199431  0.1438662064036 1.0
C      1  0.4092512325636  0.3707585857614  0.8916608124275 1.0
C      1  0.2848662249816  0.2325593390679  0.3220022835522 1.0
C      1  0.5899581838661  0.1339855135709  0.6423125161871 1.0
C      1  0.8756966576599  0.4159343802720  0.3791710429894 1.0
C      1  0.7175598621593  0.7669048498546  0.6754773622824 1.0
C      1  0.4043011400871  0.8648209821031  0.3580054155948 1.0
C      1  0.1223393100845  0.5793522026895  0.6153347232834 1.0
C      1  0.5611686011256  0.8898138490176  0.3719319350196 1.0
C      1  0.1780492342869  0.7280277461406  0.6457923460793 1.0
C      1  0.2011253062211  0.3729355194378  0.2940732824000 1.0
C      1  0.4295929539372  0.1143339730886  0.6398832857619 1.0
C      1  0.8148883081653  0.2680753987093  0.3562907746329 1.0
C      1  0.8012230647145  0.6278282576169  0.7001991395767 1.0
C      1  0.8672373117568  0.5148687700804  0.5724716182288 1.0
C      1  0.6602195206827  0.8606852733136  0.4898262642534 1.0
C      1  0.2961688124405  0.8094554723013  0.5372163461826 1.0
C      1  0.1568544634458  0.4954660362183  0.4176803672639 1.0
C      1  0.3322151234222  0.1987205302347  0.5035949467945 1.0
C      1  0.7024461757790  0.1743144706272  0.4712539202523 1.0
C      1  0.5777939165988  0.3776967401901  0.6852728634323 1.0
C      1  0.6842323713831  0.5540861966168  0.2927472516008 1.0
C      1  0.4992235050925  0.6379128273065  0.6694204827817 1.0
C      1  0.4169578322207  0.6200458378450  0.3245058102309 1.0
C      1  0.3121961270069  0.4427205831343  0.7058038024399 1.0
C      1  0.4996806187314  0.3551531691519  0.3293276745830 1.0
C      1  0.1796278566444  0.5301349856160  0.3232187177929 1.0
C      1  0.2953079056320  0.2033022033267  0.6069090150887 1.0
C      1  0.6822529280757  0.1785600093717  0.3704738593415 1.0
C      1  0.8459991154960  0.4830489989489  0.6627666118951 1.0
C      1  0.7154438349095  0.7932500509465  0.3629530608483 1.0
C      1  0.3115679425896  0.8149698020182  0.6354374468946 1.0
C      1  0.3582067429793  0.5450075570887  0.0871455140259 1.0
C      1  0.4768192264946  0.4320093826130  0.9274591619846 1.0
C      1  0.4656045323128  0.4222547901957  0.0945988480071 1.0
C      1  0.6383839505536  0.4541692597997  0.9094626373332 1.0
C      1  0.5195012902974  0.5729839838242  0.0693967445692 1.0
C      1  0.5348083688626  0.5812470166024  0.9004077489042 1.0
C      1  0.1608884386197  0.4831123271875  0.6189977542866 1.0
C      1  0.3798075667225  0.2182347291573  0.3361315218498 1.0
C      1  0.6445632547980  0.2258188981169  0.6322418703364 1.0
C      1  0.8391708224090  0.5138476631547  0.3732067714612 1.0
C      1  0.6184798631337  0.7664264940579  0.6347445994533 1.0
C      1  0.3446430726317  0.7860711479736  0.3522625904702 1.0
C      1  0.3655987185444  0.6894348164903  0.2057597013064 1.0
C      1  0.3095666000945  0.4968396395699  0.8956495590556 1.0
C      1  0.3302263686840  0.3308575291376  0.1823087250055 1.0
C      1  0.6269972809864  0.2972518720982  0.8024454103244 1.0
C      1  0.6879423994751  0.5125487989204  0.1069508361545 1.0
C      1  0.6712301472009  0.6663401105440  0.8109063634489 1.0
C      1  0.5757339014155  0.5654029684715  0.4962194622609 1.0
C      1  0.4873848226608  0.5937691744153  0.5026406362572 1.0
C      1  0.4168365869642  0.5356370728272  0.5065631891540 1.0
C      1  0.4261086972531  0.4442802403793  0.5116497481024 1.0
C      1  0.5143783905294  0.4138913842989  0.5094659526751 1.0
C      1  0.5847775438986  0.4729121574096  0.5000178534176 1.0
C      1  0.6096062704350  0.1072770099107  0.3907319710855 1.0
C      1  0.8367983755294  0.3929991751237  0.6302094351748 1.0
C      1  0.7677232241539  0.7602695474638  0.4345387832006 1.0
C      1  0.3907420686099  0.8826581602767  0.6114546899562 1.0
C      1  0.1480556732957  0.6272188316251  0.3654945768216 1.0
C      1  0.2072510587779  0.2272817283120  0.5589752823585 1.0
C      1  0.3532823714879  0.6075056405975  0.7300168512124 1.0
C      1  0.3792726261972  0.4626601695616  0.3180291293915 1.0
C      1  0.4341038148798  0.3159210716890  0.7336563750790 1.0
C      1  0.6439687990387  0.3905970114938  0.2699224152420 1.0
C      1  0.6206616303482  0.5314004870100  0.6859898031641 1.0
C      1  0.5598865325719  0.6799927882494  0.2692681226705 1.0
C      1  0.3377346597402  0.3467505422352  0.7015176393547 1.0
C      1  0.5863786766774  0.3245068025670  0.3217436055968 1.0
C      1  0.6470981247597  0.4404948211401  0.6830773439332 1.0
C      1  0.6597532372594  0.6496782916879  0.2903455300681 1.0
C      1  0.4134211627053  0.6717191200089  0.6784092373486 1.0
C      1  0.3518495846960  0.5529887285300  0.3264746145194 1.0
C      1  0.3772125874836  0.5096058227536  0.7172617173336 1.0
C      1  0.4717956360573  0.4459753626845  0.3184446719866 1.0
C      1  0.4903516092887  0.3956390125753  0.7054277317059 1.0
C      1  0.6190522357909  0.4880067379618  0.2852958849356 1.0
C      1  0.5273612028662  0.5484751446746  0.6869486589325 1.0
C      1  0.5046260948900  0.6015570982396  0.3018347397586 1.0
C      1  0.1615186166310  0.7189820904252  0.5477639709363 1.0
C      1  0.1983834266848  0.3447627534164  0.3931349813101 1.0
C      1  0.4683897389598  0.1086467594301  0.5478024979751 1.0
C      1  0.8315881795265  0.2792664697211  0.4540380812752 1.0
C      1  0.8045277838774  0.6580732393906  0.5997530249387 1.0
C      1  0.5163420892844  0.9170943280451  0.4551032535785 1.0
C      1  0.4975822786949  0.2458402409481  0.6894903773207 1.0
C      1  0.7420582742380  0.4061145332834  0.3083437663406 1.0
C      1  0.6577453432422  0.6218588108550  0.6685474959219 1.0
C      1  0.4983003146059  0.7517496562224  0.3155753491229 1.0
C      1  0.2544551982310  0.5916612299106  0.6891649296869 1.0
C      1  0.3443426502058  0.3696306759775  0.3269735160156 1.0
C      1  0.3581933013689  0.3810888349034  0.4967445750077 1.0
C      1  0.5295750560886  0.3241736747197  0.5293866684228 1.0
C      1  0.6671638414016  0.4353855436355  0.4798835559784 1.0
C      1  0.6447086019268  0.6288439043017  0.5016694012348 1.0
C      1  0.4750450412437  0.6846812666822  0.4861123066758 1.0
C      1  0.3329059197958  0.5727719037190  0.5205542803657 1.0
C      1  0.6994837169598  0.6346810746825  0.5798754954392 1.0
C      1  0.4917987285100  0.7397079532329  0.4158795009312 1.0
C      1  0.2785946565542  0.5933861237186  0.5907358389201 1.0
C      1  0.3051309137371  0.3568964483751  0.4175077061651 1.0
C      1  0.4964224863243  0.2583254136407  0.5856366836144 1.0
C      1  0.7181567411458  0.4100248819043  0.4079786497764 1.0
C      1  0.5981781023766  0.2328952274339  0.3393127950644 1.0
C      1  0.7212780096250  0.3796257755806  0.7131138042054 1.0
C      1  0.7252430378985  0.7037330148545  0.3241244769302 1.0
C      1  0.4026749694777  0.7654137627093  0.6734029537108 1.0
C      1  0.2652402192351  0.5967444438745  0.3011347212505 1.0
C      1  0.2816493706629  0.2966061522111  0.6491981070914 1.0
C      1  0.7568780225068  0.4257041720941  0.4912821744046 1.0
C      1  0.6530413119439  0.7161366526743  0.5444524369795 1.0
C      1  0.4431738215923  0.7709647988405  0.4894483344069 1.0
C      1  0.2451270234520  0.5897252022484  0.5031221914205 1.0
C      1  0.3483561497307  0.2942303725505  0.4782861114356 1.0
C      1  0.5857164765917  0.2555449818963  0.5550045496762 1.0
C      1  0.7550284245638  0.5184580089047  0.8175670720705 1.0
C      1  0.5328349474019  0.6847824295548  0.1702626976848 1.0
C      1  0.4006931840935  0.6267117607608  0.8243810740913 1.0
C      1  0.2441426034896  0.4729750900161  0.1727038811177 1.0
C      1  0.4574637889210  0.3150237934860  0.8334407436710 1.0
C      1  0.5980313947358  0.3780205095002  0.1737630227642 1.0
C      1  0.1637602517144  0.4025741518021  0.5579326455715 1.0
C      1  0.4405535514117  0.1640992963133  0.3888235401099 1.0
C      1  0.7415031761042  0.2518562288777  0.6060826025133 1.0
C      1  0.8358637613138  0.5979577394126  0.4319265933178 1.0
C      1  0.5538083372651  0.8396537461547  0.6119551098890 1.0
C      1  0.2639651749724  0.7505547707846  0.3946112736214 1.0
C      1  0.3434464950019  0.1358122172280  0.6583882155576 1.0
C      1  0.7591441863474  0.2058219075268  0.3193006938590 1.0
C      1  0.8105194571701  0.5402465641591  0.7358054576504 1.0
C      1  0.6497023973237  0.8558815372992  0.3943287070450 1.0
C      1  0.2349669814301  0.7888816887438  0.6863313449948 1.0
C      1  0.1920158999030  0.4573121734870  0.2541799567840 1.0
C      1  0.5781603083562  0.6868970980573  0.7908127437996 1.0
C      1  0.2912012851623  0.6271803362971  0.2064883777405 1.0
C      1  0.3273640962914  0.4150324971752  0.8875206746324 1.0
C      1  0.4236987999439  0.3143491902311  0.2010651614952 1.0
C      1  0.7042323848744  0.3561425457610  0.8045435871544 1.0
C      1  0.6675158968079  0.5938992960232  0.1130264871471 1.0
C      1  0.2016802975512  0.3176279861479  0.5938897861905 1.0
C      1  0.5358936997789  0.1640267852215  0.3635918370162 1.0
C      1  0.7730433112181  0.3263014030169  0.6524582493547 1.0
C      1  0.7939201757458  0.6756216113429  0.3957655639326 1.0
C      1  0.4647397811278  0.8332882548160  0.6477035580760 1.0
C      1  0.2277395828304  0.6741434108034  0.3517140068858 1.0
C      1  0.7654003236132  0.5063978131052  0.3135732183892 1.0
C      1  0.5802147356441  0.6898253108341  0.6871289020976 1.0
C      1  0.3979484943375  0.7168997260698  0.2980688728589 1.0
C      1  0.2329762825940  0.4901646751599  0.6813425673482 1.0
C      1  0.4210976427668  0.3031227503159  0.3018264984659 1.0
C      1  0.5956102291320  0.2816077530206  0.7056555592450 1.0
C      1  0.4644771098929  0.4835805661484  0.7064559843728 1.0
C      1  0.5320523453465  0.5137751669283  0.3009936002267 1.0
END
