TITL C-28945-2386-85 -4.396 3375.00 -764.25052546 0 0 91 (C1) n - 1
REM
REM Run started: at 2020.12.29 21:56:56 in /gpfs/home/chem/mssmkc/CARBON/AIRSS/Generating-Clusters/Str-Search/Higher-Symm/C4-100
REM VASP from code version vasp.5.4.4.18Apr17-6-g9f103f2a35 (build Oct 11 2019 16:45:47) gamma-only
REM
REM
REM
REM
REM ./C.cell (6bd13a13d554368a30d355f37ece5b26)
REM AIRSS Version 0.9.1 bugfix July 2018 build 013d7b7c2542+ Fri, 06 Jul 2018 19:26:36 +0100
REM compiler GCC version 6.3.0
REM options -cpp -iprefix /gpfs/warwick/csc/orac/software/Core/GCCcore/6.3.0/bin/../lib/gcc/x86_64-pc-linux-gnu/6.3.0/ -mtune=generic -march=x86-64 -g -O0
REM seed 910992902 862183140 -1559473451 438509424 1577279637 -1407691871 -497356372 275534134 875786203 1573352593 -1854851243 1498970429
REM
REM C.POTCAR (d86ddea03c3ceb6dc662c8ad6801f873)
REM 
CELL 1.54180   15.00000   15.00000   15.00000   90.00000   90.00000   90.00000
LATT -1
SFAC C  
C      1  0.4645277432625  0.7939691992952  0.5179958768342 1.0
C      1  0.4190638277252  0.6522922517248  0.2480220513766 1.0
C      1  0.3100984605564  0.6460605597379  0.6774592918161 1.0
C      1  0.4573275110872  0.2447987933107  0.3434614352652 1.0
C      1  0.6143645840970  0.7383885404863  0.5744427394585 1.0
C      1  0.5658662130929  0.4673513251582  0.3964552454169 1.0
C      1  0.3041523977014  0.3361467374894  0.4064156259952 1.0
C      1  0.6644885465896  0.7639296462947  0.5004269109972 1.0
C      1  0.3237165254238  0.2852918978370  0.5533119548717 1.0
C      1  0.2253005591528  0.5367511822931  0.5458130065835 1.0
C      1  0.5136386889405  0.3150226998746  0.7195176346444 1.0
C      1  0.4761575761066  0.3555909842496  0.2455091508163 1.0
C      1  0.2438676161580  0.4986509553444  0.6324843157041 1.0
C      1  0.2547528404996  0.3954561832111  0.4664991526264 1.0
C      1  0.5166682819127  0.5138749682916  0.2509478279744 1.0
C      1  0.6850996008333  0.2889256833636  0.4965033299679 1.0
C      1  0.3330278904721  0.3678225399471  0.6866750420978 1.0
C      1  0.4259996647830  0.6543574300605  0.5586562052322 1.0
C      1  0.4482337103126  0.4464610185746  0.2460128778744 1.0
C      1  0.5035733431984  0.6042066178483  0.2442816023062 1.0
C      1  0.2910363261353  0.5536924826633  0.6950645480482 1.0
C      1  0.4795935433400  0.6868973224498  0.6419125838897 1.0
C      1  0.4818246424397  0.4021910200204  0.7464557152914 1.0
C      1  0.4761688152326  0.8060868656533  0.4258768968622 1.0
C      1  0.6247303345246  0.5896291942654  0.4968023087622 1.0
C      1  0.2685037261095  0.6867647797263  0.6022504948665 1.0
C      1  0.6896114480306  0.6153634276603  0.4154395342775 1.0
C      1  0.3652743636128  0.5164781975937  0.7435694222422 1.0
C      1  0.7463755177464  0.5337554050886  0.6676806776398 1.0
C      1  0.6083043202359  0.3227129619664  0.7053643032577 1.0
C      1  0.5265964024967  0.5582830406202  0.7230591025869 1.0
C      1  0.7579339447786  0.3903500823878  0.6057020913651 1.0
C      1  0.7003313735489  0.2995075826647  0.4018658496300 1.0
C      1  0.7045102990762  0.7157910483912  0.4290580992305 1.0
C      1  0.5531762820019  0.6216319648882  0.6604514791704 1.0
C      1  0.5100268273233  0.3470085918941  0.4897467947280 1.0
C      1  0.4862927376042  0.4991342820347  0.5300563605325 1.0
C      1  0.5095950970909  0.2163767480078  0.5928398006646 1.0
C      1  0.5090009297192  0.2448113816750  0.4967002801453 1.0
C      1  0.4035834516741  0.6642363150857  0.7079087416165 1.0
C      1  0.7982973430103  0.4355157217019  0.5358603322282 1.0
C      1  0.3395448452259  0.7188134104361  0.4336506655795 1.0
C      1  0.7164504121093  0.6126343259127  0.6288841747909 1.0
C      1  0.6025491021935  0.5042231642843  0.3098886455105 1.0
C      1  0.2593995125978  0.3564971723966  0.5529084947990 1.0
C      1  0.3382077962187  0.3598842323826  0.3213020740655 1.0
C      1  0.3889519850340  0.4248644851177  0.7379575034319 1.0
C      1  0.6754721405016  0.2077443777570  0.4055787548500 1.0
C      1  0.7549051457450  0.4697226485530  0.3671826655892 1.0
C      1  0.5235693207485  0.7623426701500  0.5876531165084 1.0
C      1  0.6276650102886  0.6392695598664  0.5950952169360 1.0
C      1  0.2998583370803  0.7710684597579  0.5708850239705 1.0
C      1  0.5536737180742  0.4659727062100  0.7402055464843 1.0
C      1  0.2751747639945  0.5542612797018  0.3975998917358 1.0
C      1  0.6323449869637  0.6009749573764  0.3300946942667 1.0
C      1  0.3719002552730  0.2936110044929  0.6372933209832 1.0
C      1  0.4749337050365  0.4077545540674  0.5451202122320 1.0
C      1  0.5671013804615  0.5217142343275  0.4769165446479 1.0
C      1  0.5170020680757  0.3212438413804  0.3261417112087 1.0
C      1  0.6868001219922  0.4472566304937  0.3071588620522 1.0
C      1  0.3477591522063  0.2662900250135  0.4611332252592 1.0
C      1  0.3581213815515  0.4491735350207  0.2862558368454 1.0
C      1  0.6335535852151  0.4160055257668  0.7156376910567 1.0
C      1  0.4331383483268  0.5713095639715  0.5355983795010 1.0
C      1  0.4022077114543  0.7633037345558  0.3755922286063 1.0
C      1  0.5581873545092  0.8005438081658  0.3735868036685 1.0
C      1  0.2789024934097  0.6423625769047  0.4409715137696 1.0
C      1  0.4054566671834  0.3013764755820  0.2860650746556 1.0
C      1  0.5750937149746  0.6574965063447  0.2847110016122 1.0
C      1  0.7921794096450  0.5719158373262  0.5916547366865 1.0
C      1  0.3426395638913  0.6068428456902  0.2634372229081 1.0
C      1  0.7661859455646  0.5436092279475  0.4225378834407 1.0
C      1  0.3811020341693  0.7391952700028  0.5262682964195 1.0
C      1  0.4403615074152  0.7359505530801  0.2909005227333 1.0
C      1  0.5352092952639  0.7449347258599  0.3006912915229 1.0
C      1  0.3190385827537  0.5333166277993  0.3136869451544 1.0
C      1  0.7155086101111  0.4449694151984  0.6764228783064 1.0
C      1  0.6408659304965  0.7853928043658  0.4138540186657 1.0
C      1  0.2421759743280  0.4894685673326  0.4623165442826 1.0
C      1  0.8029822090921  0.5233038572161  0.5101821012408 1.0
C      1  0.4339567872185  0.5831160558312  0.7463615754329 1.0
C      1  0.4324626022471  0.2313030888267  0.4325494219172 1.0
C      1  0.2416175664616  0.6280300632263  0.5309299912136 1.0
C      1  0.6534025226302  0.2661231031566  0.6441510756902 1.0
C      1  0.7286965140115  0.3761478163437  0.3516132857826 1.0
C      1  0.7177456990886  0.3060336831016  0.5850733074169 1.0
C      1  0.6015873927956  0.2019254366154  0.5933558912454 1.0
C      1  0.5363373781163  0.3795486789457  0.4014155374877 1.0
C      1  0.2624053974104  0.4058903173435  0.6341746616985 1.0
C      1  0.6149855871316  0.2204198663496  0.4935023094070 1.0
C      1  0.4599355660753  0.2632793616190  0.6592953318357 1.0
END
