TITL C-28945-2386-128 -1.753 3375.00 -284.80144579 0 0 36 (C1) n - 1
REM
REM Run started: at 2020.12.30 08:28:20 in /gpfs/home/chem/mssmkc/CARBON/AIRSS/Generating-Clusters/Str-Search/Higher-Symm/C4-100
REM VASP from code version vasp.5.4.4.18Apr17-6-g9f103f2a35 (build Oct 11 2019 16:45:47) gamma-only
REM
REM
REM
REM
REM ./C.cell (6bd13a13d554368a30d355f37ece5b26)
REM AIRSS Version 0.9.1 bugfix July 2018 build 013d7b7c2542+ Fri, 06 Jul 2018 19:26:36 +0100
REM compiler GCC version 6.3.0
REM options -cpp -iprefix /gpfs/warwick/csc/orac/software/Core/GCCcore/6.3.0/bin/../lib/gcc/x86_64-pc-linux-gnu/6.3.0/ -mtune=generic -march=x86-64 -g -O0
REM seed 1249092944 15478308 1809897485 1410139637 -1837587708 1672163524 -561532969 -952018712 -566528825 1943927243 989744720 -1550374829
REM
REM C.POTCAR (d86ddea03c3ceb6dc662c8ad6801f873)
REM 
CELL 1.54180   15.00000   15.00000   15.00000   90.00000   90.00000   90.00000
LATT -1
SFAC C  
C      1  0.5891708221467  0.5142151562021  0.6932725135620 1.0
C      1  0.2722049606806  0.5505816065803  0.4707673660041 1.0
C      1  0.2982137866407  0.4858409359862  0.4237124406209 1.0
C      1  0.6518291994819  0.4847725755743  0.6238048515707 1.0
C      1  0.4365798230173  0.6844998093294  0.5484051054088 1.0
C      1  0.4987897912247  0.5412821978180  0.5436912891417 1.0
C      1  0.5777300149584  0.3852905123417  0.3401208275729 1.0
C      1  0.5950754373057  0.5950814223343  0.4022328762803 1.0
C      1  0.5513894468025  0.4232708042650  0.6803887302416 1.0
C      1  0.4578577494836  0.4278711414489  0.6523528530971 1.0
C      1  0.6227158768737  0.3601850015612  0.5312479311497 1.0
C      1  0.4353838767204  0.5819774205190  0.6988746370115 1.0
C      1  0.4399025469075  0.4978573809526  0.3427244204974 1.0
C      1  0.2791324340235  0.6253529968674  0.5184246854926 1.0
C      1  0.4649740793250  0.3155621172035  0.4704513431552 1.0
C      1  0.4795755599909  0.6131778864472  0.6107306029735 1.0
C      1  0.5314996584085  0.4697295514234  0.3202797751158 1.0
C      1  0.5336464400925  0.5904437094217  0.6923617298910 1.0
C      1  0.6579824523226  0.5138176458458  0.5350961462037 1.0
C      1  0.5617056940026  0.3067100620980  0.4833597719289 1.0
C      1  0.4807735261438  0.6919235572539  0.4624611452783 1.0
C      1  0.6231686289845  0.3910241916871  0.6223251661591 1.0
C      1  0.5464075288502  0.3093443423309  0.3861811900867 1.0
C      1  0.6605195157159  0.4341384717632  0.4769682508314 1.0
C      1  0.4250024273557  0.5914407047017  0.3454843773932 1.0
C      1  0.4575587951637  0.4576900970573  0.5484765852875 1.0
C      1  0.3458223995169  0.6716105249940  0.5413852231812 1.0
C      1  0.6089627034885  0.5268045172821  0.3412601926520 1.0
C      1  0.3811726123304  0.4491503772375  0.4032604489441 1.0
C      1  0.6394903483085  0.4424302608863  0.3861280501615 1.0
C      1  0.4248566955090  0.4007782128371  0.4810463365983 1.0
C      1  0.5738643270946  0.6648637897394  0.4559602202239 1.0
C      1  0.4183197112175  0.4942159141272  0.6969327538711 1.0
C      1  0.4328792984310  0.6650072913082  0.3839124747046 1.0
C      1  0.5869677351937  0.5750693944490  0.5013684660522 1.0
C      1  0.4588740962871  0.2669885181253  0.3845493216554 1.0
END
