TITL C-28945-2386-84 -4.516 3375.00 -786.03607554 0 0 95 (C1) n - 1
REM
REM Run started: at 2020.12.29 21:29:21 in /gpfs/home/chem/mssmkc/CARBON/AIRSS/Generating-Clusters/Str-Search/Higher-Symm/C4-100
REM VASP from code version vasp.5.4.4.18Apr17-6-g9f103f2a35 (build Oct 11 2019 16:45:47) gamma-only
REM
REM
REM
REM
REM ./C.cell (6bd13a13d554368a30d355f37ece5b26)
REM AIRSS Version 0.9.1 bugfix July 2018 build 013d7b7c2542+ Fri, 06 Jul 2018 19:26:36 +0100
REM compiler GCC version 6.3.0
REM options -cpp -iprefix /gpfs/warwick/csc/orac/software/Core/GCCcore/6.3.0/bin/../lib/gcc/x86_64-pc-linux-gnu/6.3.0/ -mtune=generic -march=x86-64 -g -O0
REM seed -988871856 91658870 2073309831 1242723963 -834763306 -565336915 -1372707227 1823221063 1721594956 -1808686656 439633683 2095303190
REM
REM C.POTCAR (d86ddea03c3ceb6dc662c8ad6801f873)
REM 
CELL 1.54180   15.00000   15.00000   15.00000   90.00000   90.00000   90.00000
LATT -1
SFAC C  
C      1  0.7721034916870  0.5608760391489  0.4446201785038 1.0
C      1  0.2376849846473  0.4339089246033  0.4458211232505 1.0
C      1  0.4707364762920  0.4642963877085  0.6124034237766 1.0
C      1  0.4917082593569  0.5930190999179  0.6329576092268 1.0
C      1  0.4312622022747  0.8026120268264  0.4705504895720 1.0
C      1  0.5724714890747  0.1859482644644  0.4727537030700 1.0
C      1  0.7039964217077  0.6334276999989  0.4287721628314 1.0
C      1  0.3075950352859  0.3632965411703  0.4298970481361 1.0
C      1  0.7262301608060  0.6090498324003  0.6716379804609 1.0
C      1  0.2821816003973  0.3870177518685  0.6755582096679 1.0
C      1  0.7770678695988  0.6113924865977  0.5903593281688 1.0
C      1  0.2357364921601  0.3851763581390  0.5919498315921 1.0
C      1  0.3113299267191  0.2811034260899  0.4841995499518 1.0
C      1  0.6981133501865  0.7156882280439  0.4828056621551 1.0
C      1  0.4017929159246  0.5127591743327  0.2106071551152 1.0
C      1  0.6105660511435  0.5454904836277  0.2342656982176 1.0
C      1  0.4192272443168  0.5427607538969  0.5926148575236 1.0
C      1  0.5588608038642  0.5190285480730  0.6187627841179 1.0
C      1  0.6053248811693  0.4045065397365  0.7313649599504 1.0
C      1  0.3838010018957  0.5916244528437  0.7528476708787 1.0
C      1  0.5374666977319  0.2084597492792  0.5568893478273 1.0
C      1  0.4651872166714  0.7808514351708  0.5548342475755 1.0
C      1  0.7329100255314  0.6964760220843  0.5662408626502 1.0
C      1  0.2767339577559  0.3000155538868  0.5675711500218 1.0
C      1  0.2298833448614  0.5478340012056  0.5745083561807 1.0
C      1  0.7748364754215  0.4461894699016  0.5706991325784 1.0
C      1  0.3729967907097  0.3560877977191  0.2773815483336 1.0
C      1  0.6446081827822  0.6433170106323  0.2705106968562 1.0
C      1  0.3758520050203  0.4974490352364  0.7632782211533 1.0
C      1  0.6072740006020  0.5019038510449  0.7222987636353 1.0
C      1  0.3368267567155  0.6981606361756  0.6321458354895 1.0
C      1  0.6626619485234  0.2949032380486  0.6280318251574 1.0
C      1  0.5025296733297  0.6881945401535  0.6741840243638 1.0
C      1  0.5007404334062  0.2950058286168  0.6839919689425 1.0
C      1  0.3967180585360  0.4116667752129  0.4522095574395 1.0
C      1  0.6157585375954  0.5831788125235  0.4537520821598 1.0
C      1  0.6417310375225  0.5985911086093  0.1735705209650 1.0
C      1  0.3963311273911  0.4299870594279  0.2219024335739 1.0
C      1  0.6037278825853  0.2151181012760  0.3853626121281 1.0
C      1  0.4019817377570  0.7708521515858  0.3853444524009 1.0
C      1  0.4349090924425  0.2234140444247  0.3852488379354 1.0
C      1  0.5713207427526  0.7632718310281  0.3815255027321 1.0
C      1  0.4262736644735  0.7351531163071  0.6290714482748 1.0
C      1  0.5740692995960  0.2575175843615  0.6321123237114 1.0
C      1  0.5868935155481  0.5250328458810  0.5212104636859 1.0
C      1  0.4305910917462  0.4789580875803  0.5201238961431 1.0
C      1  0.7347761433779  0.4445841051168  0.6567666071387 1.0
C      1  0.2642208484871  0.5500792025121  0.6634669560176 1.0
C      1  0.4417163873645  0.2199485825941  0.5559598583747 1.0
C      1  0.5628156856717  0.7698610944038  0.5531738912577 1.0
C      1  0.4603768578220  0.5677335959187  0.2640309208902 1.0
C      1  0.5442115341752  0.5123185217462  0.2975873913055 1.0
C      1  0.5323705918231  0.3247682073430  0.2974017674014 1.0
C      1  0.4768503104101  0.6669720895109  0.2773019796196 1.0
C      1  0.2981998791651  0.4698514705828  0.7131965741200 1.0
C      1  0.6998341265390  0.5261517060242  0.6995491878129 1.0
C      1  0.4539978790890  0.6092139690074  0.3573141982479 1.0
C      1  0.5187816078995  0.4186165492092  0.3201789900477 1.0
C      1  0.3183864316583  0.6254200247629  0.6920768407956 1.0
C      1  0.6775049700720  0.3708743678373  0.6824190779153 1.0
C      1  0.4874096352195  0.8033339515455  0.3943584066054 1.0
C      1  0.5172933700092  0.1816819850261  0.3972485669478 1.0
C      1  0.5167534289795  0.3739435417106  0.7379170449403 1.0
C      1  0.4787953238246  0.6130772004902  0.7386049231417 1.0
C      1  0.2187082603247  0.4591670701504  0.5361148313296 1.0
C      1  0.7910884052329  0.5358998163756  0.5345717464329 1.0
C      1  0.4416227510259  0.2880708546012  0.3083914110661 1.0
C      1  0.5713232042695  0.7037028286175  0.3037807327401 1.0
C      1  0.3908189365528  0.2292999342149  0.4734659949928 1.0
C      1  0.6155453337650  0.7622963248766  0.4718333474516 1.0
C      1  0.2987583783842  0.6411544125831  0.3480122068580 1.0
C      1  0.6927853661149  0.3516582213579  0.3520765589554 1.0
C      1  0.4661740956504  0.4587627770634  0.7671722233911 1.0
C      1  0.5276842686379  0.5330703041566  0.7702904457245 1.0
C      1  0.2447250223360  0.6221256028177  0.4229304374937 1.0
C      1  0.7530155041885  0.3711686141823  0.4217618299370 1.0
C      1  0.4772073204502  0.4207692575519  0.4061804971220 1.0
C      1  0.5361739550793  0.5623894927314  0.3937776769831 1.0
C      1  0.3307595894041  0.3013039567115  0.6480297286817 1.0
C      1  0.6770805003159  0.6935292752176  0.6452317980691 1.0
C      1  0.4173587281331  0.2678616588354  0.6399544438955 1.0
C      1  0.5891562317321  0.7231899607730  0.6358393416732 1.0
C      1  0.2882820171109  0.7049670226963  0.5515127454485 1.0
C      1  0.7144009971148  0.2893778401931  0.5494080162694 1.0
C      1  0.7080291795513  0.6123957160349  0.3316064811174 1.0
C      1  0.3038823885293  0.3834783399664  0.3322004300863 1.0
C      1  0.7410308950739  0.4338228732440  0.3531442650095 1.0
C      1  0.2543020663391  0.5589897174604  0.3531292228408 1.0
C      1  0.3888567129534  0.6847686185779  0.3413579704392 1.0
C      1  0.6178101842615  0.2934933230521  0.3338105717765 1.0
C      1  0.2495172502863  0.4641628837814  0.3566899388603 1.0
C      1  0.7553248728425  0.5287153268087  0.3562782118755 1.0
C      1  0.2437389436662  0.6291201629832  0.5191356835357 1.0
C      1  0.7611156716665  0.3637818253977  0.5171221994497 1.0
C      1  0.5107090019020  0.4946038147821  0.4637885898311 1.0
END
