TITL C-28527-7947-9 -5.404 3375.00 -967.12695518 0 0 116 (C1) n - 1
REM
REM Run started: at 2020.12.21 07:38:05 in /rds/project/t2_vol4/rds-t2-cs072/BORA/CARBON/AIRSS/Generating-Clusters/Str-Search/Higher-Symm/C100-200
REM VASP from code version vasp.5.4.4.18Apr17-6-g9f103f2a35 (build Oct 11 2019 16:45:47) gamma-only
REM
REM
REM
REM
REM ./C.cell (533062f00bc710175b3da973d35f2034)
REM AIRSS Version 0.9.1 bugfix July 2018 build 013d7b7c2542+ Fri, 06 Jul 2018 19:26:36 +0100
REM compiler GCC version 4.8.5 20150623 (Red Hat 4.8.5-39)
REM options -cpp -mtune=generic -march=x86-64 -g -O0
REM seed -1819202269 1585671711 -1303887597 -418469074 -1444431073 -412765061 -1762714278 -149955101 471312616 -624038432 -1961617234 1786936418
REM
REM C.POTCAR (d86ddea03c3ceb6dc662c8ad6801f873)
REM 
CELL 1.54180   15.00000   15.00000   15.00000   90.00000   90.00000   90.00000
LATT -1
SFAC C  
C      1  0.4265249708566  0.3518606651176  0.5954366308264 1.0
C      1  0.3804321541543  0.6157764341922  0.4513288971680 1.0
C      1  0.5931298404835  0.4718510936868  0.3954930487889 1.0
C      1  0.5507840974900  0.6118669976044  0.6106534146206 1.0
C      1  0.4634314672523  0.6144319630836  0.4028258294259 1.0
C      1  0.5469686836267  0.3864766447426  0.3975567685482 1.0
C      1  0.6089131296205  0.4169193009959  0.4685603445724 1.0
C      1  0.3436303746270  0.3875290742672  0.5482510440801 1.0
C      1  0.6047494833784  0.5917914924774  0.5339243123994 1.0
C      1  0.4080531617439  0.5478351201574  0.3895538946335 1.0
C      1  0.5922572557583  0.5245840842433  0.5907231310986 1.0
C      1  0.3767172641949  0.4352414633987  0.6271477655933 1.0
C      1  0.4540377572746  0.3952569729648  0.4165398906859 1.0
C      1  0.3901288752308  0.5888082063130  0.5416910675343 1.0
C      1  0.5812246724682  0.4315350674056  0.5707566305537 1.0
C      1  0.5512265858873  0.6381720736059  0.3821059142729 1.0
C      1  0.4576764849265  0.5967550218994  0.6034712440158 1.0
C      1  0.5197688098832  0.3600710748596  0.5867265232644 1.0
C      1  0.6658595683247  0.3919940733125  0.5410744996933 1.0
C      1  0.3826940783947  0.4100740391718  0.4650513540255 1.0
C      1  0.6242789191801  0.6195432851359  0.4457556580124 1.0
C      1  0.4051003747066  0.5224986220750  0.6024416464424 1.0
C      1  0.6086005823834  0.5585099170560  0.3705501231593 1.0
C      1  0.3872423705602  0.4562548734447  0.3807171919803 1.0
C      1  0.2276035026134  0.6103457227796  0.5528107152583 1.0
C      1  0.6415152753294  0.5543792602521  0.2147894806310 1.0
C      1  0.5355502405543  0.2637833773133  0.6214931818489 1.0
C      1  0.7660320925263  0.3709412639084  0.5487543485774 1.0
C      1  0.2186292504471  0.3554433346083  0.4544268650318 1.0
C      1  0.7752449954862  0.6119829462900  0.4576022032692 1.0
C      1  0.3912771468752  0.4618445872359  0.2291202900808 1.0
C      1  0.6405321417579  0.4611876220310  0.7925438917477 1.0
C      1  0.3900686016172  0.5587655415992  0.7798467908083 1.0
C      1  0.4507084289342  0.7713093994363  0.6082475571463 1.0
C      1  0.5423106508501  0.7927674630520  0.3592165848791 1.0
C      1  0.4511884094281  0.2248754480605  0.3804793049581 1.0
C      1  0.2301300483814  0.6082305240657  0.4564128211686 1.0
C      1  0.6425150810178  0.5563837344912  0.7957659822151 1.0
C      1  0.5452641240973  0.2324049026398  0.3850283960549 1.0
C      1  0.7877602163796  0.3634800261822  0.4519513067180 1.0
C      1  0.2430264106845  0.3604655240703  0.5563776255286 1.0
C      1  0.7762071239423  0.6123770270594  0.5529259043110 1.0
C      1  0.3901756692116  0.4640581924832  0.7807652056037 1.0
C      1  0.6469383401244  0.4599945938925  0.2159820585938 1.0
C      1  0.3883362820711  0.5565179865350  0.2238535930583 1.0
C      1  0.4482462587739  0.7962601913155  0.3579428802550 1.0
C      1  0.5452810170207  0.7661801424102  0.6072131965882 1.0
C      1  0.4343678490486  0.2530057487839  0.6269145990988 1.0
C      1  0.4744946187416  0.4098249660920  0.2185841990769 1.0
C      1  0.3965698937398  0.2016883753394  0.4588660823317 1.0
C      1  0.1971871478172  0.4496065365836  0.4574460440069 1.0
C      1  0.5469744991597  0.5534150164296  0.1864982029409 1.0
C      1  0.4743159019631  0.6081479521390  0.7912217583984 1.0
C      1  0.5450978105368  0.4620720589124  0.8219618167803 1.0
C      1  0.5455078327877  0.8154283987037  0.4557957700158 1.0
C      1  0.3980251916931  0.7867323766268  0.5265769051157 1.0
C      1  0.5369724506663  0.2009399293275  0.5439906417761 1.0
C      1  0.7927082102738  0.5297069228465  0.4048477455944 1.0
C      1  0.2185825243995  0.5280684091269  0.6055693881301 1.0
C      1  0.8165062566458  0.4565666334679  0.5521017903249 1.0
C      1  0.4706607573467  0.4117679258413  0.7975520219325 1.0
C      1  0.4440704187270  0.1930028200844  0.5430522746089 1.0
C      1  0.2007704347149  0.4530612027954  0.5527202758358 1.0
C      1  0.5465843154141  0.5574921035791  0.8208594652309 1.0
C      1  0.4720858228438  0.6067695194976  0.2088908608890 1.0
C      1  0.5483181137157  0.4591173235916  0.1894611330612 1.0
C      1  0.5978990826667  0.7825354554926  0.5268710718586 1.0
C      1  0.4497374494801  0.8175371759616  0.4559838184595 1.0
C      1  0.5934959179231  0.2165360988111  0.4679100832984 1.0
C      1  0.7873161990805  0.5283855015708  0.6028454752576 1.0
C      1  0.2190972969497  0.5272907653829  0.4040518987925 1.0
C      1  0.8217190013850  0.4537919699216  0.4561022304228 1.0
C      1  0.5748261266147  0.6968891911718  0.6747224959436 1.0
C      1  0.7168020761574  0.6826402699235  0.5886538448455 1.0
C      1  0.6935648760813  0.5900342950211  0.7240438954993 1.0
C      1  0.4029960801940  0.2844532237901  0.7167291761222 1.0
C      1  0.5735412551457  0.3121524149809  0.3281496182053 1.0
C      1  0.4087473440195  0.7275241458939  0.3043640421320 1.0
C      1  0.2614534787059  0.2974489191743  0.6309715956170 1.0
C      1  0.7214318069894  0.3097287500623  0.4096984878881 1.0
C      1  0.2986879152012  0.6776867445767  0.4262807624086 1.0
C      1  0.3216114858633  0.4310902854042  0.7135332044305 1.0
C      1  0.7006433027594  0.4267817354061  0.2868000733191 1.0
C      1  0.3164329374777  0.5926836859650  0.2828738158567 1.0
C      1  0.5753856355138  0.7113085532958  0.3146592958967 1.0
C      1  0.7045476863057  0.6804703883334  0.4275550669053 1.0
C      1  0.6868077058651  0.5908130968694  0.2933499838020 1.0
C      1  0.4134724243818  0.2871403190337  0.3129159656530 1.0
C      1  0.5705645882862  0.3033730170193  0.7039852494422 1.0
C      1  0.4158896285996  0.7173815226861  0.6812233254058 1.0
C      1  0.2747152321018  0.2990033932985  0.4010467877056 1.0
C      1  0.6972559182505  0.3063162203619  0.5818251781397 1.0
C      1  0.2827971520974  0.6834585537622  0.5869756990924 1.0
C      1  0.3263062072975  0.4311879547243  0.3003850706816 1.0
C      1  0.6908828619116  0.4251528044737  0.7193208818725 1.0
C      1  0.3172311858861  0.5925581097579  0.7233068308696 1.0
C      1  0.3168975124557  0.7358572645785  0.5128712037780 1.0
C      1  0.6762413733004  0.2568479876860  0.4840348672150 1.0
C      1  0.4824388210256  0.3246459807044  0.7557739626847 1.0
C      1  0.7457215258811  0.5140400444326  0.3248505468019 1.0
C      1  0.4894422845071  0.6836480097138  0.7339798805250 1.0
C      1  0.4840468030013  0.6878319936403  0.2543112367282 1.0
C      1  0.4882515676985  0.3284140001503  0.2669649851026 1.0
C      1  0.3097303509546  0.2291794067937  0.4559887646239 1.0
C      1  0.6818970740084  0.7357047303592  0.5151307976955 1.0
C      1  0.2661878009580  0.5171856702536  0.3204635191414 1.0
C      1  0.7345884185407  0.5115445413481  0.6813453407179 1.0
C      1  0.2658085678565  0.5183802982083  0.6889642583611 1.0
C      1  0.6827714578938  0.6867412194023  0.3223051889395 1.0
C      1  0.6620541352176  0.3361211476947  0.6846335566280 1.0
C      1  0.3270000502106  0.6761253310752  0.6750738057032 1.0
C      1  0.6770097472797  0.3390457480777  0.3291352622997 1.0
C      1  0.3241139149872  0.6812966656468  0.3237866661298 1.0
C      1  0.3096305926392  0.3254940913298  0.7049199272388 1.0
C      1  0.3250500592597  0.3278087941716  0.3221052158826 1.0
C      1  0.6749371623669  0.6718243199152  0.6760023031026 1.0
END
