TITL C-28945-2386-204 -4.263 3375.00 -731.14647053 0 0 89 (C1) n - 1
REM
REM Run started: at 2020.12.30 20:55:46 in /gpfs/home/chem/mssmkc/CARBON/AIRSS/Generating-Clusters/Str-Search/Higher-Symm/C4-100
REM VASP from code version vasp.5.4.4.18Apr17-6-g9f103f2a35 (build Oct 11 2019 16:45:47) gamma-only
REM
REM
REM
REM
REM ./C.cell (6bd13a13d554368a30d355f37ece5b26)
REM AIRSS Version 0.9.1 bugfix July 2018 build 013d7b7c2542+ Fri, 06 Jul 2018 19:26:36 +0100
REM compiler GCC version 6.3.0
REM options -cpp -iprefix /gpfs/warwick/csc/orac/software/Core/GCCcore/6.3.0/bin/../lib/gcc/x86_64-pc-linux-gnu/6.3.0/ -mtune=generic -march=x86-64 -g -O0
REM seed 308378392 606076088 470471060 -1803027836 467869187 -166285425 -1797322892 -364436652 -1534515100 31673148 1276875988 -1466146196
REM
REM C.POTCAR (d86ddea03c3ceb6dc662c8ad6801f873)
REM 
CELL 1.54180   15.00000   15.00000   15.00000   90.00000   90.00000   90.00000
LATT -1
SFAC C  
C      1  0.4297508706067  0.4661446852198  0.3925174715814 1.0
C      1  0.4822047595951  0.5576990063811  0.4010078853530 1.0
C      1  0.5669020880334  0.5130252604304  0.4424743422460 1.0
C      1  0.5075915199193  0.4247593413322  0.4441636294060 1.0
C      1  0.4472469888285  0.5148865044081  0.5755670484157 1.0
C      1  0.4975913031233  0.4281201533959  0.5467934294348 1.0
C      1  0.5809404661842  0.5018955156872  0.5461549201099 1.0
C      1  0.5249874880556  0.5765205749179  0.5876724359730 1.0
C      1  0.6813484110257  0.5055814106334  0.5302161540135 1.0
C      1  0.5096325397732  0.3250464838319  0.5401843718014 1.0
C      1  0.3068733055757  0.5001767288773  0.5073316818846 1.0
C      1  0.4956107869714  0.6572959435426  0.5322955756686 1.0
C      1  0.6654760034101  0.5381360217834  0.4448988620715 1.0
C      1  0.4309114403458  0.6219550442208  0.4653898367667 1.0
C      1  0.3322336463754  0.4556816072403  0.4321416833707 1.0
C      1  0.5394796431134  0.3321840493993  0.4522704065496 1.0
C      1  0.2496396897283  0.6214170165802  0.3694222496698 1.0
C      1  0.6226325013290  0.7424357433927  0.3872567473089 1.0
C      1  0.7467693585512  0.3784536402376  0.3802436499039 1.0
C      1  0.3876503420993  0.2524518034850  0.3750770336079 1.0
C      1  0.2637958606712  0.3845823743148  0.6159368061840 1.0
C      1  0.6202067109216  0.2579274444243  0.6279840729895 1.0
C      1  0.7466134677203  0.6149651909097  0.6245015487066 1.0
C      1  0.3895245406592  0.7425807892802  0.6093979130742 1.0
C      1  0.3967833532464  0.4247325209466  0.7195792514671 1.0
C      1  0.4222404806802  0.6060027172032  0.7128906265304 1.0
C      1  0.6133761975608  0.5774574894707  0.7211537438438 1.0
C      1  0.5819253794468  0.3979605125856  0.7232246939727 1.0
C      1  0.3938918901041  0.5863291391552  0.2794799419217 1.0
C      1  0.4178970857419  0.4173920857584  0.2999519197647 1.0
C      1  0.6004796605163  0.4166422813696  0.2892717223612 1.0
C      1  0.5899817047239  0.5977539283977  0.2895183566439 1.0
C      1  0.6434070219742  0.3309546169194  0.6870356948150 1.0
C      1  0.3329567796887  0.3633130641734  0.6797764081378 1.0
C      1  0.3649982146227  0.6713558099810  0.6730779242053 1.0
C      1  0.6776358756270  0.6409086297286  0.6864708289883 1.0
C      1  0.6452531525415  0.6566978388734  0.3409261165197 1.0
C      1  0.3366718392549  0.6398992666403  0.3330754105910 1.0
C      1  0.3580093034109  0.3401034901173  0.3407608133762 1.0
C      1  0.6559537408939  0.3589273579501  0.3446854207075 1.0
C      1  0.4851227235712  0.3757888429576  0.7235210739590 1.0
C      1  0.3720210775227  0.5192702633233  0.7090768182598 1.0
C      1  0.5233719764506  0.6172759972835  0.6917950931118 1.0
C      1  0.6356846108299  0.4839643482804  0.7222091335006 1.0
C      1  0.4905058248059  0.6131923214286  0.3128587597248 1.0
C      1  0.3608049489325  0.4963646561022  0.2598418943397 1.0
C      1  0.5111671048071  0.3773239013830  0.2709286414955 1.0
C      1  0.6339568233121  0.5097320550616  0.2735525075842 1.0
C      1  0.7425617212800  0.5231601534454  0.6034442607481 1.0
C      1  0.5277947588699  0.2635305583972  0.6112477032772 1.0
C      1  0.2624915487543  0.4758084988266  0.5911573974540 1.0
C      1  0.4830758177231  0.7299716918621  0.5873890274966 1.0
C      1  0.7768898856736  0.4495402454242  0.3274703826167 1.0
C      1  0.5339005519348  0.7721016209195  0.3768681026959 1.0
C      1  0.2187812437029  0.5510889099184  0.3155027733253 1.0
C      1  0.4549617702036  0.2254256483725  0.3142388477993 1.0
C      1  0.2556593268735  0.6771204073269  0.5564524552344 1.0
C      1  0.6847289116391  0.7485070591932  0.5637769111388 1.0
C      1  0.7498976017433  0.3267525923698  0.5656707873423 1.0
C      1  0.3370350289367  0.2515953940039  0.5640322201141 1.0
C      1  0.2716192047975  0.3093455104216  0.4625346893000 1.0
C      1  0.6827195023736  0.2660076926335  0.4675266267832 1.0
C      1  0.7442917373463  0.6769885465778  0.4617768411748 1.0
C      1  0.3199111616302  0.7354898967944  0.4552250473667 1.0
C      1  0.4666693433634  0.2914727362438  0.6784483241101 1.0
C      1  0.2879497140111  0.5378184978153  0.6603520151386 1.0
C      1  0.5455725198981  0.7115916128696  0.6601808505179 1.0
C      1  0.7164677756399  0.4633325408557  0.6716962667080 1.0
C      1  0.4740114049105  0.7124478108910  0.3502206717185 1.0
C      1  0.2674110285286  0.5000173082441  0.2682912584632 1.0
C      1  0.5003938861697  0.2862398882020  0.2750649451750 1.0
C      1  0.7280404123252  0.5026049198858  0.2837737863283 1.0
C      1  0.7523662658536  0.6805535541763  0.5568420107272 1.0
C      1  0.6854608162885  0.2522962761930  0.5609788829652 1.0
C      1  0.2602538192445  0.3132771277678  0.5548763305333 1.0
C      1  0.3208558005330  0.7527922622576  0.5489420633250 1.0
C      1  0.7588395978699  0.3283013999085  0.4635487754995 1.0
C      1  0.6801733193645  0.7529009954412  0.4616573769258 1.0
C      1  0.2444013512591  0.6747632096207  0.4546660072588 1.0
C      1  0.3388435119588  0.2374025886971  0.4608023380134 1.0
C      1  0.3778558046046  0.2831778860133  0.6467817184825 1.0
C      1  0.2838837004402  0.6292814844877  0.6356868160113 1.0
C      1  0.6356264628579  0.7212274388189  0.6452386188926 1.0
C      1  0.7215736088250  0.3727802586123  0.6461373123540 1.0
C      1  0.3881080404854  0.6945434550676  0.3968670762247 1.0
C      1  0.2952712294943  0.3756173813169  0.3987111708975 1.0
C      1  0.6151151517148  0.2982098883388  0.4089507790747 1.0
C      1  0.7074690360131  0.6134569797668  0.4031608805858 1.0
C      1  0.3828473219810  0.5575882030045  0.5243939982891 1.0
END
