TITL C-28527-7947-8 -5.046 3375.00 -880.32331109 0 0 108 (C1) n - 1
REM
REM Run started: at 2020.12.21 06:57:28 in /rds/project/t2_vol4/rds-t2-cs072/BORA/CARBON/AIRSS/Generating-Clusters/Str-Search/Higher-Symm/C100-200
REM VASP from code version vasp.5.4.4.18Apr17-6-g9f103f2a35 (build Oct 11 2019 16:45:47) gamma-only
REM
REM
REM
REM
REM ./C.cell (533062f00bc710175b3da973d35f2034)
REM AIRSS Version 0.9.1 bugfix July 2018 build 013d7b7c2542+ Fri, 06 Jul 2018 19:26:36 +0100
REM compiler GCC version 4.8.5 20150623 (Red Hat 4.8.5-39)
REM options -cpp -mtune=generic -march=x86-64 -g -O0
REM seed 1382944843 1877114050 111211035 868988175 -1785840282 568525302 1777809703 -940334328 1362675736 -1602041618 1116707581 -2014493053
REM
REM C.POTCAR (d86ddea03c3ceb6dc662c8ad6801f873)
REM 
CELL 1.54180   15.00000   15.00000   15.00000   90.00000   90.00000   90.00000
LATT -1
SFAC C  
C      1  0.4355414084110  0.4748822991701  0.2883846603273 1.0
C      1  0.4344045261954  0.5638260085977  0.3097737131872 1.0
C      1  0.5670636065461  0.5317580316693  0.3889989790866 1.0
C      1  0.5905220841398  0.4728833035505  0.3213081282589 1.0
C      1  0.5198034766351  0.4365025533020  0.2791821448928 1.0
C      1  0.4727229508593  0.6495720320664  0.4467800732955 1.0
C      1  0.6149161174886  0.5242739956907  0.4685008710176 1.0
C      1  0.6329793009409  0.3338322851013  0.4616285903959 1.0
C      1  0.4008490974558  0.2321836800659  0.4690004821516 1.0
C      1  0.3368254354710  0.5245101169919  0.4587796552610 1.0
C      1  0.3184837661004  0.5337326810906  0.2220129555817 1.0
C      1  0.4631411503855  0.6878111047571  0.2251006820493 1.0
C      1  0.6311930773009  0.6030460547684  0.2152914452458 1.0
C      1  0.5858863831786  0.4471676075784  0.1499113473613 1.0
C      1  0.4332023284119  0.3527048492107  0.1994881327583 1.0
C      1  0.6311040418676  0.2500540555037  0.7035392609504 1.0
C      1  0.3685475076949  0.3139863028799  0.7138805186640 1.0
C      1  0.2583781988562  0.5361526228352  0.6832480836004 1.0
C      1  0.5169175791259  0.9168260959950  0.6404866464018 1.0
C      1  0.8161333797724  0.6090199002371  0.6430728276276 1.0
C      1  0.6426059834157  0.5071592375887  0.1955722084265 1.0
C      1  0.5228029702674  0.3967349219402  0.1877905931589 1.0
C      1  0.3652467938424  0.4337593384860  0.2305982388741 1.0
C      1  0.3800576553900  0.6200045368092  0.2462980522896 1.0
C      1  0.5598637794869  0.6725326052387  0.2225656135471 1.0
C      1  0.4245339346357  0.3787417423358  0.7715443685214 1.0
C      1  0.3329190455727  0.5342578860286  0.7485613323439 1.0
C      1  0.4046925622545  0.6831387171398  0.7652091906524 1.0
C      1  0.5936800745242  0.4885815722770  0.8126253597817 1.0
C      1  0.5921731614351  0.3278143367504  0.7565930873553 1.0
C      1  0.4981192287839  0.2449061837197  0.3231276159016 1.0
C      1  0.2568708416966  0.4495840473537  0.3420561622784 1.0
C      1  0.3789577412728  0.7342415616793  0.3533983392040 1.0
C      1  0.6697942937833  0.7009828623491  0.3404413046995 1.0
C      1  0.7106656484942  0.3775012620117  0.3246737324773 1.0
C      1  0.6987400515163  0.3878870427073  0.4227437944773 1.0
C      1  0.4777529035857  0.2130305557999  0.4139807755075 1.0
C      1  0.2870515075544  0.4471712222581  0.4312249761467 1.0
C      1  0.3988570191325  0.7088877480829  0.4461324076468 1.0
C      1  0.6705145349168  0.7031684413911  0.4390515592842 1.0
C      1  0.2523155666798  0.6093793174570  0.6220543636255 1.0
C      1  0.5331559662220  0.8333648424489  0.6136035623452 1.0
C      1  0.8053474340051  0.5307749305356  0.6027435200032 1.0
C      1  0.5984212935140  0.1993950789181  0.6240499975317 1.0
C      1  0.3121245018768  0.3228947402728  0.6396048467808 1.0
C      1  0.3720190327881  0.6095102312273  0.8083877832562 1.0
C      1  0.5114041837424  0.5318480644009  0.8154035080259 1.0
C      1  0.5866319338271  0.3889968788849  0.8356640061604 1.0
C      1  0.5093669581698  0.3428215414465  0.8173050099313 1.0
C      1  0.3745970160464  0.4627141411011  0.8083503611564 1.0
C      1  0.4497164252858  0.7564423649503  0.2957735800056 1.0
C      1  0.6951040948028  0.6255654740057  0.2876780754921 1.0
C      1  0.6780733186795  0.2921961010526  0.3020365873699 1.0
C      1  0.4277906045461  0.2929203399309  0.2775088091178 1.0
C      1  0.2613227251417  0.5343575557122  0.2978784657856 1.0
C      1  0.3495753248706  0.3110660651036  0.3338392645811 1.0
C      1  0.2637835056658  0.6130031796255  0.3563168215109 1.0
C      1  0.5338553219095  0.7880148763746  0.3326129061024 1.0
C      1  0.7313360158052  0.5502806267173  0.3284489752570 1.0
C      1  0.6605749432154  0.2241962719090  0.3667992799730 1.0
C      1  0.7453803346363  0.5568983696162  0.4209217786444 1.0
C      1  0.6379590657582  0.2314509992180  0.4642950680544 1.0
C      1  0.3378915933766  0.2923523651394  0.4291038508761 1.0
C      1  0.2750260325085  0.6051428017102  0.4610683005307 1.0
C      1  0.5466951475039  0.8148817821460  0.4249244165818 1.0
C      1  0.5463957582008  0.1946057135883  0.4762876312834 1.0
C      1  0.2942001231813  0.3641873844104  0.4812226113805 1.0
C      1  0.3280005467608  0.6816784293554  0.5077933002514 1.0
C      1  0.5972442292060  0.7540379144041  0.4830897926996 1.0
C      1  0.7050627698953  0.4787678156522  0.4699987293985 1.0
C      1  0.4055382945238  0.6641158070560  0.6628051209470 1.0
C      1  0.6023044381088  0.5007750528121  0.7056882741742 1.0
C      1  0.5810643379051  0.4009790770105  0.6854866670441 1.0
C      1  0.4835588346907  0.4224627993247  0.6944195070499 1.0
C      1  0.4101450132898  0.5602784203197  0.6756652614354 1.0
C      1  0.3226270664675  0.6742544286390  0.6006356225782 1.0
C      1  0.5475816065271  0.7466333049098  0.5767879012299 1.0
C      1  0.7242286808019  0.4942345013489  0.5695506240769 1.0
C      1  0.5187400750768  0.1924128191783  0.5661368108766 1.0
C      1  0.2758667894041  0.3803168370987  0.5735249122385 1.0
C      1  0.5008620139153  0.9068398695081  0.5477895127615 1.0
C      1  0.7304576584906  0.6027968937954  0.5778055654085 1.0
C      1  0.6664857867549  0.2864651717266  0.6199361595212 1.0
C      1  0.4253541768732  0.2177801673197  0.5657214995423 1.0
C      1  0.2744014473617  0.4795354492300  0.5984684150786 1.0
C      1  0.4914543388100  0.6017235594057  0.5324189753327 1.0
C      1  0.5797618274660  0.5563888161326  0.5453675331558 1.0
C      1  0.5704434915498  0.3769963049341  0.5231730245435 1.0
C      1  0.4809634038399  0.4241745258914  0.5264767073365 1.0
C      1  0.4212624931538  0.5164208265354  0.5134605505677 1.0
C      1  0.2286142519288  0.5601309048716  0.5428360133790 1.0
C      1  0.4928319776992  0.8791346027060  0.4670007913299 1.0
C      1  0.7246570797363  0.6332685027624  0.4784287384637 1.0
C      1  0.6763471058814  0.2137579064254  0.5588625681692 1.0
C      1  0.3787027203808  0.2568143188759  0.6360250564425 1.0
C      1  0.5928261228488  0.2440125558022  0.3058944041653 1.0
C      1  0.3070901203129  0.3855417322969  0.2956639891113 1.0
C      1  0.3223440982638  0.6701981129296  0.3132004064340 1.0
C      1  0.5967362525202  0.7358614990278  0.2913077890590 1.0
C      1  0.6864265321589  0.4693452450824  0.2851128682417 1.0
C      1  0.4426038381348  0.4247047871477  0.6085657066961 1.0
C      1  0.3798151305387  0.4985314545113  0.6025719062758 1.0
C      1  0.4860783066767  0.6787713800464  0.5992722103081 1.0
C      1  0.6462012879794  0.5442586094952  0.6182485294693 1.0
C      1  0.6134597890530  0.3665808363037  0.6025016684522 1.0
C      1  0.4961177946773  0.5908758559744  0.3755884556867 1.0
C      1  0.4214068079842  0.5341036025879  0.8528334830645 1.0
C      1  0.4979748919944  0.5238294606520  0.7158746559509 1.0
END
