TITL C-28949-8776-12 -7.6 3375.00 -1473.31894928 0 0 180 (Td) n - 1
REM
REM Run started: at 2020.12.30 12:23:00 in /rds/project/t2_vol4/rds-t2-cs072/BORA/CARBON/AIRSS/Generating-Clusters/Str-Search/Higher-Symm/Only-C180/Try1-3A
REM VASP from code version vasp.5.4.4.18Apr17-6-g9f103f2a35 (build Oct 11 2019 16:45:47) gamma-only
REM
REM
REM
REM
REM ./C.cell (dfbf6805b19190ca01ef1908a0670cb0)
REM AIRSS Version 0.9.1 bugfix July 2018 build 013d7b7c2542+ Fri, 06 Jul 2018 19:26:36 +0100
REM compiler GCC version 4.8.5 20150623 (Red Hat 4.8.5-39)
REM options -cpp -mtune=generic -march=x86-64 -g -O0
REM seed -1486781442 -291615428 -852255144 -436293992 1540676053 1858904781 1753512432 -23956738 -970338270 -1891758385 -1799316974 638542140
REM
REM C.POTCAR (d86ddea03c3ceb6dc662c8ad6801f873)
REM 
CELL 1.54180   15.00000   15.00000   15.00000   90.00000   90.00000   90.00000
LATT -1
SFAC C  
C      1  0.3511460779083  0.5742516505524  0.4996840373129 1.0
C      1  0.4996841928989  0.3511467406313  0.5742526114949 1.0
C      1  0.5742517061834  0.4996832167467  0.3511446360991 1.0
C      1  0.3511462960657  0.4257481798511  0.5003165851614 1.0
C      1  0.6488548341768  0.4257484410064  0.4996834917608 1.0
C      1  0.6488547307404  0.5742518446233  0.5003156100176 1.0
C      1  0.4996837395097  0.6488535972768  0.4257473826924 1.0
C      1  0.5003166717062  0.6488549282344  0.5742510209429 1.0
C      1  0.5003165958228  0.3511455091208  0.4257488787904 1.0
C      1  0.5742526048599  0.5003166586221  0.6488545176743 1.0
C      1  0.4257482189518  0.5003155648940  0.3511454077021 1.0
C      1  0.4257491913442  0.4996842122053  0.6488552300293 1.0
C      1  0.3511467987748  0.4996838016521  0.5742521899925 1.0
C      1  0.4996834877594  0.5742509269665  0.3511445098748 1.0
C      1  0.5742522021006  0.3511459422809  0.4996843355537 1.0
C      1  0.3511461102659  0.5003160981247  0.4257486265909 1.0
C      1  0.6488546372132  0.4996837159077  0.4257475773520 1.0
C      1  0.6488553173159  0.5003165258855  0.5742513370661 1.0
C      1  0.4996843174390  0.4257490655641  0.6488556310124 1.0
C      1  0.5003169358896  0.5742523298530  0.6488541074523 1.0
C      1  0.5003161902517  0.4257476922158  0.3511456254125 1.0
C      1  0.5742520186839  0.6488544487195  0.5003153862826 1.0
C      1  0.4257485328327  0.3511459480632  0.5003167898584 1.0
C      1  0.4257483814107  0.6488540660932  0.4996833231988 1.0
C      1  0.6728905720931  0.7444685946252  0.5902263450217 1.0
C      1  0.5902287795493  0.6728902817584  0.7444668366437 1.0
C      1  0.7444685067994  0.5902287975966  0.6728894551501 1.0
C      1  0.6728898918080  0.2555321437258  0.4097725495131 1.0
C      1  0.3271112671169  0.2555334365871  0.5902293885721 1.0
C      1  0.3271102869838  0.7444665804651  0.4097711035996 1.0
C      1  0.5902276641331  0.3271090745339  0.2555327227033 1.0
C      1  0.4097723028409  0.3271108814720  0.7444686639022 1.0
C      1  0.4097705417194  0.6728883333409  0.2555320734426 1.0
C      1  0.7444675678220  0.4097714114331  0.3271090985781 1.0
C      1  0.2555332923409  0.4097723178025  0.6728899111560 1.0
C      1  0.2555318355917  0.5902276814637  0.3271112276861 1.0
C      1  0.6728898343432  0.5902293757892  0.7444670208241 1.0
C      1  0.5902282182834  0.7444683961691  0.6728888785001 1.0
C      1  0.7444685932128  0.6728908401456  0.5902265933986 1.0
C      1  0.6728887667011  0.4097707897439  0.2555320055069 1.0
C      1  0.3271089859309  0.5902273587465  0.2555327143598 1.0
C      1  0.3271102798683  0.4097724795577  0.7444682343940 1.0
C      1  0.5902279707977  0.2555318490309  0.3271113076945 1.0
C      1  0.4097707205627  0.7444663555687  0.3271096280039 1.0
C      1  0.4097723915106  0.2555337195577  0.6728906106514 1.0
C      1  0.7444677366153  0.3271100193564  0.4097717459414 1.0
C      1  0.2555320807815  0.6728889309999  0.4097719595090 1.0
C      1  0.2555332336004  0.3271110724637  0.5902291364199 1.0
C      1  0.2687619780649  0.3347714928510  0.4031658864156 1.0
C      1  0.4031650956543  0.2687617677235  0.3347727108067 1.0
C      1  0.3347714011575  0.4031642270144  0.2687619347221 1.0
C      1  0.2687622892409  0.6652283191879  0.5968353031849 1.0
C      1  0.7312380458524  0.6652281591946  0.4031634279467 1.0
C      1  0.7312385806400  0.3347720986927  0.5968350676715 1.0
C      1  0.4031654393439  0.7312382061852  0.6652277349432 1.0
C      1  0.5968339347452  0.7312373749079  0.3347705657805 1.0
C      1  0.5968352268065  0.2687629489774  0.6652290139178 1.0
C      1  0.3347725240216  0.5968357455489  0.7312387382649 1.0
C      1  0.6652279450995  0.5968338129093  0.2687604645915 1.0
C      1  0.6652290611700  0.4031663160574  0.7312388702282 1.0
C      1  0.2687619802133  0.4031646854905  0.3347725259712 1.0
C      1  0.4031647248102  0.3347710930620  0.2687620588538 1.0
C      1  0.3347717918061  0.2687617989938  0.4031660739714 1.0
C      1  0.2687628572330  0.5968350021777  0.6652285039255 1.0
C      1  0.7312385108103  0.4031657063022  0.6652285411405 1.0
C      1  0.7312379452053  0.5968344912606  0.3347703720492 1.0
C      1  0.4031660374095  0.6652289467898  0.7312379903691 1.0
C      1  0.5968358383749  0.3347724605795  0.7312394425970 1.0
C      1  0.5968339878076  0.6652274231792  0.2687605677059 1.0
C      1  0.3347721618095  0.7312381745616  0.5968342761378 1.0
C      1  0.6652287141621  0.2687624118861  0.5968361412348 1.0
C      1  0.6652281881769  0.7312377347495  0.4031632299082 1.0
C      1  0.7450670731682  0.3712361679496  0.5031849776920 1.0
C      1  0.5031843321009  0.7450649654054  0.3712358242792 1.0
C      1  0.3712364825497  0.5031856204564  0.7450677194825 1.0
C      1  0.7450675860431  0.6287638731096  0.4968137303141 1.0
C      1  0.2549325509116  0.6287640178493  0.5031854922660 1.0
C      1  0.2549331447444  0.3712359544688  0.4968157313249 1.0
C      1  0.5031853546140  0.2549355719735  0.6287636902935 1.0
C      1  0.4968152148114  0.2549332489729  0.3712378650381 1.0
C      1  0.4968157117226  0.7450677876526  0.6287627849773 1.0
C      1  0.3712357995743  0.4968143325633  0.2549334946876 1.0
C      1  0.6287639941225  0.4968157350057  0.7450664363696 1.0
C      1  0.6287632359921  0.5031841953460  0.2549326498311 1.0
C      1  0.7450670507905  0.5031845565910  0.3712351055722 1.0
C      1  0.5031852381146  0.3712366556232  0.7450684344861 1.0
C      1  0.3712363455773  0.7450661072366  0.5031843332929 1.0
C      1  0.7450682251830  0.4968157417135  0.6287639263731 1.0
C      1  0.2549351115194  0.5031851646769  0.6287631467129 1.0
C      1  0.2549338811702  0.4968147814377  0.3712376997030 1.0
C      1  0.5031841623964  0.6287628812162  0.2549326546580 1.0
C      1  0.4968146860393  0.3712358503545  0.2549337717196 1.0
C      1  0.4968156912002  0.6287637410916  0.7450655514422 1.0
C      1  0.3712362788250  0.2549334131254  0.4968160618427 1.0
C      1  0.6287639100926  0.7450676827967  0.4968135814357 1.0
C      1  0.6287643351549  0.2549324524386  0.5031858683417 1.0
C      1  0.1767140666947  0.5712934026115  0.4964269902533 1.0
C      1  0.4964263577435  0.1767172506650  0.5712939975687 1.0
C      1  0.5712925823158  0.4964259110676  0.1767143773193 1.0
C      1  0.1767147707641  0.4287060396864  0.5035745775445 1.0
C      1  0.8232854361325  0.4287068800964  0.4964258168306 1.0
C      1  0.8232858774480  0.5712924227508  0.5035728183893 1.0
C      1  0.4964258048606  0.8232832886659  0.4287057734580 1.0
C      1  0.5035733244732  0.8232865665839  0.5712923543501 1.0
C      1  0.5035730639415  0.1767146352831  0.4287082632376 1.0
C      1  0.5712931517374  0.5035737937144  0.8232844939685 1.0
C      1  0.4287059579341  0.5035731650287  0.1767151804659 1.0
C      1  0.4287065254414  0.4964265126080  0.8232862637748 1.0
C      1  0.1767164095986  0.4964263804280  0.5712931810341 1.0
C      1  0.4964255490424  0.5712928175415  0.1767141523373 1.0
C      1  0.5712935228306  0.1767141301815  0.4964275430105 1.0
C      1  0.1767151308014  0.5035730534719  0.4287079301777 1.0
C      1  0.8232854853886  0.4964257219234  0.4287057782485 1.0
C      1  0.8232869405737  0.5035735119870  0.5712929809765 1.0
C      1  0.4964262458474  0.4287066530436  0.8232868800896 1.0
C      1  0.5035736320027  0.5712932339327  0.8232837587749 1.0
C      1  0.5035728546411  0.4287064673602  0.1767155567118 1.0
C      1  0.5712927814929  0.8232860237403  0.5035724334202 1.0
C      1  0.4287061357317  0.1767153356160  0.5035751386208 1.0
C      1  0.4287065113878  0.8232842795153  0.4964253904014 1.0
C      1  0.7020996978052  0.3641944309972  0.1687795028106 1.0
C      1  0.1687794116996  0.7021001946048  0.3641964591350 1.0
C      1  0.3641975472888  0.1687808706763  0.7021029367402 1.0
C      1  0.7021013567598  0.6358052746376  0.8312195593876 1.0
C      1  0.2978967383080  0.6358025950332  0.1687805989732 1.0
C      1  0.2978988588556  0.3641969801873  0.8312204612599 1.0
C      1  0.1687807651976  0.2978997578719  0.6358052350456 1.0
C      1  0.8312199434198  0.2978985206537  0.3641954607939 1.0
C      1  0.8312204341542  0.7021023698733  0.6358028818731 1.0
C      1  0.3641951907562  0.8312188274505  0.2978977542477 1.0
C      1  0.6358042937496  0.8312206846838  0.7020997871557 1.0
C      1  0.6358033882809  0.1687795213483  0.2978997838739 1.0
C      1  0.7021009011457  0.1687796724484  0.3641967376547 1.0
C      1  0.1687805180682  0.3641972079365  0.7021022656839 1.0
C      1  0.3641940473886  0.7020997307503  0.1687798112274 1.0
C      1  0.7021011747943  0.8312210621976  0.6358020325595 1.0
C      1  0.2979003898676  0.1687808514750  0.6358056450892 1.0
C      1  0.2978986026799  0.8312192038726  0.3641956896396 1.0
C      1  0.1687791065089  0.6358026242963  0.2978994538720 1.0
C      1  0.8312195252152  0.3641950622615  0.2978975598425 1.0
C      1  0.8312202418929  0.6358059602350  0.7021008179726 1.0
C      1  0.3641959873542  0.2978997171256  0.8312208277688 1.0
C      1  0.6358036755579  0.7021022230263  0.8312194901347 1.0
C      1  0.6358026198434  0.2978970081770  0.1687803599377 1.0
C      1  0.8391174328218  0.2259621074084  0.2982903253182 1.0
C      1  0.2982882975179  0.8391163907494  0.2259628277092 1.0
C      1  0.2259631434308  0.2982906894217  0.8391192043067 1.0
C      1  0.8391179598767  0.7740387184751  0.7017087445225 1.0
C      1  0.1608808451793  0.7740363661727  0.2982917429134 1.0
C      1  0.1608829493747  0.2259635929517  0.7017094237782 1.0
C      1  0.2982902732787  0.1608833901352  0.7740377284196 1.0
C      1  0.7017098615161  0.1608817169050  0.2259638394768 1.0
C      1  0.7017099676330  0.8391187448711  0.7740355689330 1.0
C      1  0.2259611414562  0.7017093207344  0.1608821933389 1.0
C      1  0.7740368644344  0.7017111384340  0.8391170033413 1.0
C      1  0.7740359739225  0.2982893512525  0.1608813732584 1.0
C      1  0.8391168168275  0.2982888223776  0.2259622416447 1.0
C      1  0.2982902523399  0.2259637784038  0.8391193765652 1.0
C      1  0.2259618720461  0.8391170242578  0.2982911549410 1.0
C      1  0.8391179068443  0.7017117126117  0.7740363766196 1.0
C      1  0.1608830863627  0.2982900962882  0.7740373199842 1.0
C      1  0.1608812875040  0.7017097521993  0.2259639627978 1.0
C      1  0.2982887363446  0.7740359228791  0.1608815827514 1.0
C      1  0.7017094540756  0.2259616474261  0.1608822572180 1.0
C      1  0.7017097960513  0.7740381088925  0.8391165700681 1.0
C      1  0.2259640120157  0.1608827236841  0.7017095844444 1.0
C      1  0.7740370234727  0.8391192824428  0.7017082661423 1.0
C      1  0.7740367803886  0.1608812353499  0.2982911827250 1.0
C      1  0.5375969903960  0.5375972588304  0.0925786465278 1.0
C      1  0.4624002143486  0.9074209687810  0.5375951488367 1.0
C      1  0.5375971563554  0.0925801072971  0.5376014457830 1.0
C      1  0.4624002922500  0.4624005996444  0.0925796126252 1.0
C      1  0.0925796965358  0.4624008443192  0.4624027428393 1.0
C      1  0.4624005697089  0.0925794182752  0.4624045354658 1.0
C      1  0.4624022136629  0.5375997854709  0.9074206804073 1.0
C      1  0.5375987440956  0.4624030735688  0.9074212773564 1.0
C      1  0.0925796353189  0.5375974531349  0.5375998829748 1.0
C      1  0.9074210543367  0.5375974376745  0.4624003311010 1.0
C      1  0.9074215086318  0.4624008414669  0.5375966075630 1.0
C      1  0.5375968870812  0.9074200235278  0.4623984586877 1.0
END
