TITL C-28945-2386-132 -4.75 3375.00 -789.99803174 0 0 97 (C1) n - 1
REM
REM Run started: at 2020.12.30 09:01:21 in /gpfs/home/chem/mssmkc/CARBON/AIRSS/Generating-Clusters/Str-Search/Higher-Symm/C4-100
REM VASP from code version vasp.5.4.4.18Apr17-6-g9f103f2a35 (build Oct 11 2019 16:45:47) gamma-only
REM
REM
REM
REM
REM ./C.cell (6bd13a13d554368a30d355f37ece5b26)
REM AIRSS Version 0.9.1 bugfix July 2018 build 013d7b7c2542+ Fri, 06 Jul 2018 19:26:36 +0100
REM compiler GCC version 6.3.0
REM options -cpp -iprefix /gpfs/warwick/csc/orac/software/Core/GCCcore/6.3.0/bin/../lib/gcc/x86_64-pc-linux-gnu/6.3.0/ -mtune=generic -march=x86-64 -g -O0
REM seed 902408472 1187933584 359062217 797968081 -844181210 -409248036 1649497006 -1661726197 269295392 1444774454 281328534 802325588
REM
REM C.POTCAR (d86ddea03c3ceb6dc662c8ad6801f873)
REM 
CELL 1.54180   15.00000   15.00000   15.00000   90.00000   90.00000   90.00000
LATT -1
SFAC C  
C      1  0.5425067577333  0.3391023242654  0.5311417395823 1.0
C      1  0.3640168360280  0.4035842656562  0.5322229318426 1.0
C      1  0.3771419316972  0.5937894760286  0.5440482096165 1.0
C      1  0.5621507000576  0.6456837445718  0.5391219020357 1.0
C      1  0.6611137147612  0.4865508433730  0.5331279702674 1.0
C      1  0.5357039218300  0.3380647890025  0.4387229116863 1.0
C      1  0.3600076511242  0.4080976393007  0.4385365299218 1.0
C      1  0.3805153770767  0.5949790013983  0.4540209088178 1.0
C      1  0.5690058593246  0.6420801784876  0.4468505361790 1.0
C      1  0.6604236387521  0.4787519990005  0.4405563193792 1.0
C      1  0.7537920171078  0.5073762786631  0.5707747461917 1.0
C      1  0.5985249048332  0.2633773557417  0.5702886064610 1.0
C      1  0.3138318733297  0.3226984395204  0.5688442445359 1.0
C      1  0.3262399916443  0.6613570429098  0.5906991719927 1.0
C      1  0.5822666175124  0.7415354992769  0.5712728148667 1.0
C      1  0.7472090052376  0.4683101898762  0.4023340796947 1.0
C      1  0.5611952131685  0.2538998425427  0.4012565501082 1.0
C      1  0.2955988913481  0.3488298777885  0.3999777678908 1.0
C      1  0.3244121709309  0.6643476687525  0.4105818377240 1.0
C      1  0.6123850641814  0.7183804143570  0.4057236742235 1.0
C      1  0.5119848926526  0.5874791518386  0.1904208788078 1.0
C      1  0.5908632314824  0.5304371449978  0.1819982425751 1.0
C      1  0.5608914212082  0.4382619562738  0.1884781084245 1.0
C      1  0.4632046796025  0.4398996964107  0.2025611276151 1.0
C      1  0.4364887416402  0.5323420572078  0.2142294111882 1.0
C      1  0.5038206274376  0.5990952898474  0.8343830463965 1.0
C      1  0.5735811203776  0.5324803061116  0.8387927430513 1.0
C      1  0.5343939001050  0.4436553864604  0.8324662700761 1.0
C      1  0.4381441405928  0.4511391753674  0.8220315253074 1.0
C      1  0.4215403375615  0.5485181366695  0.8001341135118 1.0
C      1  0.6510659194195  0.3066611071790  0.6515328519738 1.0
C      1  0.3685843034255  0.2869799359973  0.6503488130430 1.0
C      1  0.2361249506209  0.5398575011114  0.6323444123915 1.0
C      1  0.5182574098078  0.7589742238436  0.6532125905574 1.0
C      1  0.7370594847137  0.5744434697304  0.6517839735213 1.0
C      1  0.6530680068067  0.2804443555159  0.3640432425541 1.0
C      1  0.3562256142167  0.2769814988982  0.3622389753428 1.0
C      1  0.1875228442386  0.5517915834339  0.4116561879067 1.0
C      1  0.5314541527666  0.7616879149643  0.3637452374953 1.0
C      1  0.7587069822004  0.5626204891301  0.3634198473054 1.0
C      1  0.6110100540597  0.3694444262314  0.2230897717223 1.0
C      1  0.4172607288445  0.3652593392680  0.2312279035431 1.0
C      1  0.3125652691774  0.6216244112049  0.3168389232242 1.0
C      1  0.5161232931499  0.6756775015150  0.2174284597510 1.0
C      1  0.6722243732665  0.5563636901072  0.2162392529956 1.0
C      1  0.5816066179536  0.3743646745637  0.7945793976139 1.0
C      1  0.3900997591543  0.3819068242276  0.7897242971953 1.0
C      1  0.3455062240158  0.5965140815398  0.7446582718388 1.0
C      1  0.5186352780635  0.6843039428320  0.8073983391873 1.0
C      1  0.6560652973003  0.5491805246913  0.8013824736262 1.0
C      1  0.2299040491227  0.3798860347909  0.5442271445875 1.0
C      1  0.3601516839372  0.7461006260095  0.5537228905728 1.0
C      1  0.6839596329378  0.7249486448936  0.5476072296930 1.0
C      1  0.7757200630148  0.4066430212405  0.5491348883720 1.0
C      1  0.5120114458078  0.2082772415458  0.5496039760108 1.0
C      1  0.2122955318740  0.3724058352790  0.4475692784201 1.0
C      1  0.3713832355877  0.7452139440697  0.4546226492962 1.0
C      1  0.6997782952382  0.7160269007787  0.4515293423024 1.0
C      1  0.7763326821250  0.3875264891954  0.4525160222552 1.0
C      1  0.4961182773065  0.1975947738650  0.4518312836708 1.0
C      1  0.3884705225515  0.3038419670481  0.2800101488088 1.0
C      1  0.2385346993769  0.6222495005562  0.3741068886675 1.0
C      1  0.5186097044004  0.7335894739576  0.2769376556965 1.0
C      1  0.7289579433116  0.5685902039484  0.2763693708977 1.0
C      1  0.6446075704595  0.3184428973263  0.2804589512498 1.0
C      1  0.3742958022288  0.3230459094522  0.7323453067211 1.0
C      1  0.2807084490768  0.6100714048864  0.6664014930560 1.0
C      1  0.5201723054308  0.7327367763201  0.7387640994920 1.0
C      1  0.7056245767495  0.5617321590332  0.7358508297147 1.0
C      1  0.6202985755289  0.3352930787640  0.7320909182044 1.0
C      1  0.7342851712843  0.6482602742625  0.5890433651667 1.0
C      1  0.7218703209841  0.3324384180410  0.5905280078173 1.0
C      1  0.4227086679233  0.2318054863141  0.5896727592298 1.0
C      1  0.2045004356958  0.4768864655824  0.5742232905766 1.0
C      1  0.4455023519980  0.7811505770275  0.5908266715691 1.0
C      1  0.7539335527424  0.6303382673314  0.4341270893112 1.0
C      1  0.7157016265398  0.3057661483114  0.4356651520844 1.0
C      1  0.4002585641423  0.2271974247990  0.4340311367520 1.0
C      1  0.1738965537046  0.4563127841289  0.4228249579008 1.0
C      1  0.4643866502140  0.7733676689244  0.4334810766784 1.0
C      1  0.5182001845588  0.4171064051888  0.5805347632448 1.0
C      1  0.4327257998522  0.4469023489906  0.5848289823952 1.0
C      1  0.4365210327708  0.5444949414293  0.6079761283019 1.0
C      1  0.5330516841108  0.5695473947898  0.5901404124395 1.0
C      1  0.5797928518959  0.4916842612538  0.5835460027536 1.0
C      1  0.5173207361814  0.4202402433042  0.3940886052732 1.0
C      1  0.4326462025012  0.4511543967947  0.3940882836242 1.0
C      1  0.4335075668458  0.5503728509803  0.3829076385116 1.0
C      1  0.5315694942510  0.5718650072316  0.3932804522000 1.0
C      1  0.5779450257834  0.4941807578679  0.3937968535330 1.0
C      1  0.6890237213754  0.2766594699362  0.5210589218607 1.0
C      1  0.1606211682678  0.5143802650117  0.4954378872916 1.0
C      1  0.5055507660510  0.7902805146047  0.5189300294811 1.0
C      1  0.3613690519900  0.2436921696448  0.5190060603933 1.0
C      1  0.7717989402879  0.5957690349714  0.5197290388258 1.0
C      1  0.4154666061966  0.5637963860449  0.7023158677120 1.0
C      1  0.3851434322444  0.5679355865889  0.2919874546225 1.0
END
