TITL C-28945-2386-112 -4.531 3375.00 -781.08995695 0 0 97 (C1) n - 1
REM
REM Run started: at 2020.12.30 05:39:32 in /gpfs/home/chem/mssmkc/CARBON/AIRSS/Generating-Clusters/Str-Search/Higher-Symm/C4-100
REM VASP from code version vasp.5.4.4.18Apr17-6-g9f103f2a35 (build Oct 11 2019 16:45:47) gamma-only
REM
REM
REM
REM
REM ./C.cell (6bd13a13d554368a30d355f37ece5b26)
REM AIRSS Version 0.9.1 bugfix July 2018 build 013d7b7c2542+ Fri, 06 Jul 2018 19:26:36 +0100
REM compiler GCC version 6.3.0
REM options -cpp -iprefix /gpfs/warwick/csc/orac/software/Core/GCCcore/6.3.0/bin/../lib/gcc/x86_64-pc-linux-gnu/6.3.0/ -mtune=generic -march=x86-64 -g -O0
REM seed 2097550985 308765836 -1910398486 2111880721 -1355797315 -2021513758 -2052639033 -544487264 1468993223 500266107 1405569812 1193673265
REM
REM C.POTCAR (d86ddea03c3ceb6dc662c8ad6801f873)
REM 
CELL 1.54180   15.00000   15.00000   15.00000   90.00000   90.00000   90.00000
LATT -1
SFAC C  
C      1  0.6571145925579  0.6812196444007  0.3318218715164 1.0
C      1  0.2822099665899  0.6809928591445  0.4466355416774 1.0
C      1  0.5782189615818  0.6893421043086  0.7287979750599 1.0
C      1  0.6543132209055  0.3177388124590  0.3329972291853 1.0
C      1  0.2705325322322  0.3111661053002  0.4503081667781 1.0
C      1  0.5747905858577  0.3104058621721  0.7254112727467 1.0
C      1  0.2915084735680  0.2762096186587  0.6185510172906 1.0
C      1  0.7079546252291  0.2810818004650  0.6190583145901 1.0
C      1  0.4994937727001  0.2824965915532  0.2639869177491 1.0
C      1  0.2997043737303  0.7166693427701  0.6113396711061 1.0
C      1  0.7144598604100  0.7186942352091  0.6229399199753 1.0
C      1  0.5021079651190  0.7177579699409  0.2588727355985 1.0
C      1  0.3428994766040  0.7450481914518  0.4375219523355 1.0
C      1  0.5382341235913  0.7483758881325  0.6736205155633 1.0
C      1  0.6328077600079  0.7430326685789  0.3907333706454 1.0
C      1  0.3349123018605  0.2498356066101  0.4405379996953 1.0
C      1  0.5327508742464  0.2483399128701  0.6737233106858 1.0
C      1  0.6294830713503  0.2548514770483  0.3916180859983 1.0
C      1  0.7346497331175  0.5550563017602  0.6816993088108 1.0
C      1  0.5375079739373  0.5548852495642  0.2113983352633 1.0
C      1  0.2311038138790  0.5533886904070  0.6070583689807 1.0
C      1  0.7317306058397  0.4453980124245  0.6784146681579 1.0
C      1  0.5365117494359  0.4458902997470  0.2121102669005 1.0
C      1  0.2277121326552  0.4422710754757  0.6085137242498 1.0
C      1  0.4160251457970  0.6019745852514  0.3482280414077 1.0
C      1  0.4192765417428  0.6097444220694  0.6523830862769 1.0
C      1  0.6744214440612  0.6009358588486  0.5096267784144 1.0
C      1  0.4110295316497  0.3928073668734  0.3536682117755 1.0
C      1  0.4142899460355  0.3858285114733  0.6513583863686 1.0
C      1  0.6672214230187  0.3956439069404  0.5033650131620 1.0
C      1  0.2620457168589  0.5899286359641  0.4349190116294 1.0
C      1  0.5694070266990  0.5966613074604  0.7470582381499 1.0
C      1  0.6725430879451  0.5894476690148  0.3296124873847 1.0
C      1  0.2516050496100  0.4018151540167  0.4341868340319 1.0
C      1  0.5661969279628  0.4016134996764  0.7465797546368 1.0
C      1  0.6743966017442  0.4082410036302  0.3260960049489 1.0
C      1  0.4204044860028  0.7567425263680  0.2928270840120 1.0
C      1  0.3668762535014  0.7536777873547  0.6709066874804 1.0
C      1  0.7229540706023  0.7521696711554  0.5324300192651 1.0
C      1  0.4171120690544  0.2432541273515  0.2960958569511 1.0
C      1  0.3611997000753  0.2412774957696  0.6763071213463 1.0
C      1  0.7191917533849  0.2449487168773  0.5300874022379 1.0
C      1  0.5429338527635  0.5457880370870  0.5962904180034 1.0
C      1  0.5462290240052  0.5512515900606  0.4307539399116 1.0
C      1  0.3987829031848  0.5369577437553  0.4979910632430 1.0
C      1  0.5497709330444  0.4481253755396  0.6060849207471 1.0
C      1  0.5526923591032  0.4531197985295  0.4125429530495 1.0
C      1  0.3821756659805  0.4436830445268  0.5007678832911 1.0
C      1  0.6538336859170  0.4483389172933  0.4199667986763 1.0
C      1  0.3428324470277  0.4417607475797  0.4053640108003 1.0
C      1  0.4918456473072  0.4223239811285  0.6810209284168 1.0
C      1  0.6541610100652  0.5522379725828  0.4252299370124 1.0
C      1  0.3515155359736  0.5476378489750  0.4046001908800 1.0
C      1  0.4966061523751  0.5737266153089  0.6813260771608 1.0
C      1  0.4515422368701  0.2146578123927  0.6383487178474 1.0
C      1  0.6414113070900  0.2144800682687  0.4761858634591 1.0
C      1  0.4063997343594  0.2123564576395  0.3900656626835 1.0
C      1  0.4568795150117  0.7811908523807  0.6359549478543 1.0
C      1  0.6460584950559  0.7818294615654  0.4766156979621 1.0
C      1  0.4120665671668  0.7862284876595  0.3870954354098 1.0
C      1  0.6241963429602  0.5470996150771  0.2593909608706 1.0
C      1  0.2238893950824  0.5455888450198  0.5092034780552 1.0
C      1  0.6508092803358  0.5480665594048  0.7351490240310 1.0
C      1  0.6231113477355  0.4522092620253  0.2587641009622 1.0
C      1  0.2199811842564  0.4494463913208  0.5103549321789 1.0
C      1  0.6481469663902  0.4523445228896  0.7303639359156 1.0
C      1  0.6125637200314  0.2962831310006  0.6361778500729 1.0
C      1  0.5571297639592  0.3024073024449  0.3409139039272 1.0
C      1  0.3291703476209  0.2947818915086  0.5296171060544 1.0
C      1  0.6201468712618  0.6978068422391  0.6399618820824 1.0
C      1  0.5595673526907  0.6958547960705  0.3359547780126 1.0
C      1  0.3425897409623  0.6971882438772  0.5248676967746 1.0
C      1  0.7700982165457  0.6352406265093  0.6350132880997 1.0
C      1  0.4817358163546  0.6362351980000  0.2043380660892 1.0
C      1  0.2597153675898  0.6341261894243  0.6536283689688 1.0
C      1  0.7615561458957  0.3655199506492  0.6290783166170 1.0
C      1  0.4801358605304  0.3653453887718  0.2108078682659 1.0
C      1  0.2536549872877  0.3612174124770  0.6587831925194 1.0
C      1  0.4059561044323  0.3387295001691  0.2723111469728 1.0
C      1  0.3422106462209  0.3365947775704  0.6952653984279 1.0
C      1  0.7427141583699  0.3410886660033  0.5342420263797 1.0
C      1  0.4086894100573  0.6613725077362  0.2681041755747 1.0
C      1  0.3465435797933  0.6592880965504  0.6922558786790 1.0
C      1  0.7498823129344  0.6573100092698  0.5394684177543 1.0
C      1  0.6006038073358  0.3825677583100  0.5680505945089 1.0
C      1  0.5017708781755  0.3858334372640  0.3810201482698 1.0
C      1  0.3913709538662  0.3749153651029  0.5562529038470 1.0
C      1  0.6137033944167  0.6117821775971  0.5774527839337 1.0
C      1  0.5031546599463  0.6147073241724  0.3719243498371 1.0
C      1  0.4086575944075  0.6195892358359  0.5518939345879 1.0
C      1  0.5543287984966  0.1808184018956  0.4987556761603 1.0
C      1  0.4690689358542  0.1810765947242  0.4550834725151 1.0
C      1  0.4750257347078  0.1814371937971  0.5507384957481 1.0
C      1  0.5595938692895  0.8171959277739  0.4979142661043 1.0
C      1  0.4746510881455  0.8172531596288  0.4532723188999 1.0
C      1  0.4799508978150  0.8156664467637  0.5490887940087 1.0
C      1  0.4916316731911  0.5706796723040  0.5142838618443 1.0
END
