TITL C-28945-2386-50 -2.897 3375.00 -487.86174305 0 0 61 (C1) n - 1
REM
REM Run started: at 2020.12.29 14:38:20 in /gpfs/home/chem/mssmkc/CARBON/AIRSS/Generating-Clusters/Str-Search/Higher-Symm/C4-100
REM VASP from code version vasp.5.4.4.18Apr17-6-g9f103f2a35 (build Oct 11 2019 16:45:47) gamma-only
REM
REM
REM
REM
REM ./C.cell (6bd13a13d554368a30d355f37ece5b26)
REM AIRSS Version 0.9.1 bugfix July 2018 build 013d7b7c2542+ Fri, 06 Jul 2018 19:26:36 +0100
REM compiler GCC version 6.3.0
REM options -cpp -iprefix /gpfs/warwick/csc/orac/software/Core/GCCcore/6.3.0/bin/../lib/gcc/x86_64-pc-linux-gnu/6.3.0/ -mtune=generic -march=x86-64 -g -O0
REM seed -1032785928 -711933689 1041273917 1012754156 -2130993491 -1098253277 247443302 -1491074494 1470668229 802859736 -1388653976 1001516800
REM
REM C.POTCAR (d86ddea03c3ceb6dc662c8ad6801f873)
REM 
CELL 1.54180   15.00000   15.00000   15.00000   90.00000   90.00000   90.00000
LATT -1
SFAC C  
C      1  0.6622081639573  0.5116398377311  0.6353802806251 1.0
C      1  0.6607907546145  0.5126838852715  0.3618752060685 1.0
C      1  0.4892639957692  0.4234187917485  0.7350051736025 1.0
C      1  0.4969835486660  0.4219727043675  0.2616220254576 1.0
C      1  0.3441019866875  0.4324042329920  0.3265958918369 1.0
C      1  0.3387749492963  0.4444110650697  0.6560918696780 1.0
C      1  0.5357645056877  0.7204902724766  0.3848031510379 1.0
C      1  0.5457312352600  0.7222815739570  0.6122545955845 1.0
C      1  0.3644817211242  0.5288307706376  0.3103994790417 1.0
C      1  0.3644002428020  0.5368689328078  0.6871299032616 1.0
C      1  0.6642303752043  0.6420592502071  0.4500611654490 1.0
C      1  0.6681897270909  0.6409366682430  0.5481162052109 1.0
C      1  0.4474576179915  0.5823734788971  0.5519358061682 1.0
C      1  0.4442542361668  0.5800308029828  0.4490311640328 1.0
C      1  0.2840116549414  0.6041231734172  0.5469081705818 1.0
C      1  0.2887431557295  0.5506681435453  0.4730609898666 1.0
C      1  0.3274361947136  0.4005754405752  0.4139011195552 1.0
C      1  0.3246422253746  0.4109394884210  0.5682956574062 1.0
C      1  0.6460586302582  0.2842016945328  0.5479517428891 1.0
C      1  0.6479705069619  0.2847606475350  0.4538923946968 1.0
C      1  0.5194195524936  0.3450868262440  0.6914273423636 1.0
C      1  0.5258766009558  0.3433557719972  0.3056358752426 1.0
C      1  0.4821346251998  0.4966776068282  0.5886127897381 1.0
C      1  0.4824006976021  0.4950209527710  0.4095228249949 1.0
C      1  0.5485500798789  0.2635293238114  0.4529954204322 1.0
C      1  0.5463202757532  0.2640213018823  0.5456427574381 1.0
C      1  0.3525469972157  0.5886851530974  0.3936239956203 1.0
C      1  0.3570659544355  0.6075789806834  0.6094941523245 1.0
C      1  0.4806207619531  0.6844362251333  0.5483881025141 1.0
C      1  0.4747907018594  0.6823774704295  0.4522331511307 1.0
C      1  0.5997919871491  0.5876665632862  0.3180363278097 1.0
C      1  0.6047590109140  0.5868064530813  0.6803867739706 1.0
C      1  0.3851194360541  0.6673314114434  0.3284551845464 1.0
C      1  0.3975707157418  0.6756889966780  0.6777340785139 1.0
C      1  0.5212001796607  0.4926623879560  0.2138140778016 1.0
C      1  0.5214796037406  0.4909665875564  0.7838597539150 1.0
C      1  0.6714073778898  0.4219168813066  0.3397215492522 1.0
C      1  0.6687775044981  0.4214179502931  0.6601117155740 1.0
C      1  0.4308147159283  0.6076923205854  0.7334663544346 1.0
C      1  0.4222083215504  0.6033607443358  0.2688876383051 1.0
C      1  0.4584930113083  0.7326753847148  0.6314233754617 1.0
C      1  0.4469036702297  0.7272967747875  0.3701288484111 1.0
C      1  0.3913804528595  0.3399935931205  0.5432860392918 1.0
C      1  0.3936625975011  0.3354585301631  0.4487328634362 1.0
C      1  0.5225397013669  0.5772781588780  0.2544869878072 1.0
C      1  0.5275568614771  0.5760961245752  0.7457005214327 1.0
C      1  0.4364720987190  0.4619615946819  0.3294508518388 1.0
C      1  0.4320385525516  0.4657956065797  0.6664926576973 1.0
C      1  0.6906028460928  0.5494642332830  0.4463226591132 1.0
C      1  0.6924427305556  0.5482815781801  0.5497255109000 1.0
C      1  0.6778039864518  0.3348985857426  0.3826336223619 1.0
C      1  0.6741456448691  0.3335545535265  0.6201608194119 1.0
C      1  0.6203602950425  0.6653201668903  0.6263952068333 1.0
C      1  0.6133140223221  0.6659600293406  0.3733528956303 1.0
C      1  0.5137789316760  0.4222197447324  0.5453865450129 1.0
C      1  0.5151555434839  0.4215155222300  0.4526403061329 1.0
C      1  0.6140217070149  0.3503086497585  0.6909668208477 1.0
C      1  0.6200839564753  0.3490236336694  0.3090169497581 1.0
C      1  0.4900124365047  0.3282053325931  0.4047879771075 1.0
C      1  0.4859905827959  0.3299581302858  0.5915869116999 1.0
C      1  0.2903839419313  0.4525327074511  0.4853606718407 1.0
END
