TITL C-2874-4087-28 -9.04 3375.00 -1589.49076270 0 0 192 (C1) n - 1
REM
REM Run started: at 2020.12.30 16:52:09 in /gpfs/home/chem/mssmkc/CARBON/AIRSS/Generating-Clusters/Str-Search/Higher-Symm/C100-200
REM VASP from code version vasp.5.4.4.18Apr17-6-g9f103f2a35 (build Oct 11 2019 16:45:47) gamma-only
REM
REM
REM
REM
REM ./C.cell (533062f00bc710175b3da973d35f2034)
REM AIRSS Version 0.9.1 bugfix July 2018 build 013d7b7c2542+ Fri, 06 Jul 2018 19:26:36 +0100
REM compiler GCC version 6.3.0
REM options -cpp -iprefix /gpfs/warwick/csc/orac/software/Core/GCCcore/6.3.0/bin/../lib/gcc/x86_64-pc-linux-gnu/6.3.0/ -mtune=generic -march=x86-64 -g -O0
REM seed -227415201 1137537470 1679207057 -438771031 1751060278 -1333982699 2023607401 -337157384 2098168347 1418203102 1485223898 1453363333
REM
REM C.POTCAR (d86ddea03c3ceb6dc662c8ad6801f873)
REM 
CELL 1.54180   15.00000   15.00000   15.00000   90.00000   90.00000   90.00000
LATT -1
SFAC C  
C      1  0.8574559791479  0.5178735838369  0.6957759884099 1.0
C      1  0.5385133589522  0.3515136731260  0.5171168886634 1.0
C      1  0.5526736771495  0.4079948498572  0.2164656664668 1.0
C      1  0.4914052210214  0.1175956286638  0.4247461184726 1.0
C      1  0.4137999622228  0.4852590453801  0.2436144545301 1.0
C      1  0.4294197152693  0.4351632017351  0.3272712703710 1.0
C      1  0.6514474672241  0.1965339928070  0.3404767379634 1.0
C      1  0.5763545279543  0.6527256550325  0.7910605027391 1.0
C      1  0.2805800109610  0.3561242244570  0.2151851659157 1.0
C      1  0.8366939090752  0.5590262671850  0.3818525608509 1.0
C      1  0.7777202875517  0.4664512525369  0.5714227155501 1.0
C      1  0.6942432840339  0.3944679344625  0.8475142276478 1.0
C      1  0.3255810507296  0.6264907954937  0.1548784850059 1.0
C      1  0.4181117032753  0.1383065230625  0.5503582751264 1.0
C      1  0.2962109046432  0.4873949501732  0.5459844357371 1.0
C      1  0.5328472336753  0.8314807433054  0.4429719798039 1.0
C      1  0.4055724448311  0.5336754485171  0.6499101800923 1.0
C      1  0.4026007604434  0.1239523524461  0.4603667378325 1.0
C      1  0.2543351776073  0.7787412661078  0.4692800404960 1.0
C      1  0.7871404675391  0.6213783631752  0.8013884458467 1.0
C      1  0.5494730393047  0.6769754663634  0.6405225487040 1.0
C      1  0.6962558497746  0.8241237584070  0.4219192316817 1.0
C      1  0.5840042348338  0.5121371977371  0.8592444681722 1.0
C      1  0.5094157298646  0.1985561965668  0.6596933872034 1.0
C      1  0.5778158161961  0.6408313620683  0.3762853000633 1.0
C      1  0.7882248854592  0.3602824287843  0.5919975181491 1.0
C      1  0.7747376967769  0.4021816848352  0.3346106184854 1.0
C      1  0.6238777349230  0.4048212017147  0.3934693410558 1.0
C      1  0.4960864028540  0.5198936199775  0.7019405918860 1.0
C      1  0.4136188978465  0.4465356979873  0.1499726084288 1.0
C      1  0.2671996031872  0.5130746387985  0.7769092895478 1.0
C      1  0.5171543567121  0.5687770017626  0.8001583151511 1.0
C      1  0.7649743172880  0.4548669704143  0.8208310703758 1.0
C      1  0.1730452895985  0.3550916999089  0.6087018919136 1.0
C      1  0.8197013462609  0.4394983630952  0.7409313000023 1.0
C      1  0.7149012736311  0.5426862150888  0.5939289651748 1.0
C      1  0.5303185125194  0.5840876564067  0.1172973474403 1.0
C      1  0.6808650400814  0.4413086539601  0.3135162319885 1.0
C      1  0.4882029658654  0.5016748992869  0.0888657364351 1.0
C      1  0.7008212875733  0.8083886332817  0.3302850086464 1.0
C      1  0.7870092056399  0.2864351422999  0.4463936823329 1.0
C      1  0.3959526107427  0.7579028104485  0.4124208445883 1.0
C      1  0.7123724590472  0.2569334155371  0.2993384094555 1.0
C      1  0.4434982175007  0.8087577025338  0.7643667256383 1.0
C      1  0.7336503120148  0.2986202695845  0.7253950147293 1.0
C      1  0.3445872724859  0.2247944185863  0.3171222756572 1.0
C      1  0.2000799981280  0.5270585608101  0.2244044169311 1.0
C      1  0.2970620872913  0.7455933797844  0.2972081379576 1.0
C      1  0.5305748107305  0.4272080424940  0.6653896824065 1.0
C      1  0.3927112355855  0.3724200789323  0.5994845182306 1.0
C      1  0.4117100452072  0.2025930489916  0.6849183107975 1.0
C      1  0.1640045768993  0.6978496884063  0.6563119109812 1.0
C      1  0.6982543671541  0.2982273718310  0.5738889975525 1.0
C      1  0.7732436089527  0.3090048309747  0.3523269107856 1.0
C      1  0.6713750470014  0.2598048214882  0.6629002604227 1.0
C      1  0.7240999762623  0.6940848305088  0.8101659208539 1.0
C      1  0.4698153548650  0.8093310863882  0.3770287945851 1.0
C      1  0.5808630159670  0.1528334265458  0.2917387515132 1.0
C      1  0.6169413560422  0.8426561387296  0.5692568940435 1.0
C      1  0.2176534945570  0.4780481003685  0.8525289759193 1.0
C      1  0.6948774509819  0.7305034247786  0.7277694486743 1.0
C      1  0.9171680101238  0.4955150084405  0.5082358803940 1.0
C      1  0.3923172239881  0.7451649645461  0.7781950812241 1.0
C      1  0.3172649000094  0.7735959759136  0.5506953155398 1.0
C      1  0.4222411522196  0.5895861796426  0.8323866301380 1.0
C      1  0.7503157632128  0.6610522637897  0.2370251818157 1.0
C      1  0.4622320628836  0.5665599380490  0.5649427019067 1.0
C      1  0.4826753416425  0.6270536563512  0.1962139191367 1.0
C      1  0.5412293669398  0.3616503021003  0.4183974454775 1.0
C      1  0.4082488904826  0.6610221273811  0.4385161297644 1.0
C      1  0.3423228990445  0.4536769939023  0.6372527144644 1.0
C      1  0.6898270251333  0.5456012210811  0.3028106402064 1.0
C      1  0.8226232718645  0.4592706727701  0.3960021247236 1.0
C      1  0.6619739082454  0.5665937569230  0.8743051153576 1.0
C      1  0.2068977618451  0.3177275520095  0.3531887250374 1.0
C      1  0.6962512195195  0.3070946562826  0.2155895924991 1.0
C      1  0.2970032034801  0.5372742487987  0.3862024738731 1.0
C      1  0.5110969430959  0.1586661299727  0.5715421196547 1.0
C      1  0.4873680345105  0.1575441590730  0.2595696791118 1.0
C      1  0.2002230121876  0.2894990853683  0.4480078760142 1.0
C      1  0.3976224650214  0.5201302312367  0.8851599236406 1.0
C      1  0.2494813994440  0.2131608587149  0.4854781252290 1.0
C      1  0.3707052967628  0.4719048788403  0.3942099068607 1.0
C      1  0.6493743257000  0.3962918846880  0.2306293267022 1.0
C      1  0.1827502325236  0.3588784614121  0.5128599384112 1.0
C      1  0.2171601573980  0.4295627665677  0.2336701359629 1.0
C      1  0.6298416523744  0.3755828530634  0.5478626975095 1.0
C      1  0.7091043219007  0.6684940998594  0.4856932970004 1.0
C      1  0.4287056164174  0.2914009372812  0.1962835228717 1.0
C      1  0.2323897132402  0.6781004569492  0.2763746750454 1.0
C      1  0.4828487777175  0.6071931966030  0.3899739321232 1.0
C      1  0.4702740249444  0.7878883868182  0.2832349391386 1.0
C      1  0.5405343912313  0.8875020672297  0.6319694205871 1.0
C      1  0.7519605440388  0.5441368486929  0.8479781977677 1.0
C      1  0.2958069697702  0.4416561481501  0.7268355199430 1.0
C      1  0.5917055262294  0.2835885515674  0.7926343356076 1.0
C      1  0.1674072404375  0.6042503616152  0.5204853448287 1.0
C      1  0.1834969986854  0.6223643800871  0.7041982485947 1.0
C      1  0.8668458785975  0.5167161300242  0.5949282738420 1.0
C      1  0.1353772245398  0.4786525167956  0.3575220072271 1.0
C      1  0.6846881484210  0.3133403898507  0.8036919454097 1.0
C      1  0.6016874597094  0.7026748988412  0.7157431154556 1.0
C      1  0.3369501162471  0.6692429687070  0.5848241501844 1.0
C      1  0.4105753563395  0.2046515799702  0.2381220690789 1.0
C      1  0.2795916647598  0.5973254491194  0.5280174583303 1.0
C      1  0.8418240510305  0.3410552214097  0.5035533539539 1.0
C      1  0.6420241363437  0.7998573080036  0.2582022167983 1.0
C      1  0.3288072259782  0.1854748161415  0.4274042479138 1.0
C      1  0.5859011455774  0.2380095079467  0.7040472790376 1.0
C      1  0.6070930911748  0.4395825567277  0.6197385382147 1.0
C      1  0.6709782000019  0.4212059158465  0.4702629731535 1.0
C      1  0.6348556212911  0.6222919308541  0.4507484247563 1.0
C      1  0.1498912652868  0.6573700032262  0.4289804024543 1.0
C      1  0.1381106557839  0.5388582692635  0.6712161651110 1.0
C      1  0.5564491802541  0.7686656852378  0.2390878677900 1.0
C      1  0.3604296362491  0.2497744916368  0.7474987818521 1.0
C      1  0.1531339024301  0.6952584848279  0.5671494447648 1.0
C      1  0.8868021009179  0.4178019157043  0.4625078486467 1.0
C      1  0.5120935481869  0.1102812006716  0.3358683164941 1.0
C      1  0.7517174142046  0.6141621484564  0.5507685449485 1.0
C      1  0.7990907249291  0.3580062499827  0.6917377384430 1.0
C      1  0.4050093544773  0.2844983434581  0.3689059221908 1.0
C      1  0.7459303233448  0.5308125961372  0.1240957417363 1.0
C      1  0.5040756975526  0.5426129762944  0.4739681133301 1.0
C      1  0.1695885617537  0.7360329839154  0.4811656409499 1.0
C      1  0.5064278373025  0.7145517299326  0.5681383189851 1.0
C      1  0.5389727406757  0.5796663801910  0.6324835123091 1.0
C      1  0.6436730112785  0.1918853539345  0.4430003968023 1.0
C      1  0.5014458194564  0.3282124604518  0.2462194000042 1.0
C      1  0.7509287509075  0.7410392247916  0.6505237783868 1.0
C      1  0.2709334297950  0.2889444765657  0.2894902012909 1.0
C      1  0.3857840016067  0.7470669344152  0.2495511266248 1.0
C      1  0.3649094221631  0.6525322006739  0.7752260186872 1.0
C      1  0.4436949083097  0.3612786412732  0.8546595984659 1.0
C      1  0.6200615571464  0.5315207573449  0.5917759005810 1.0
C      1  0.2510948820363  0.6100425658755  0.2060386732857 1.0
C      1  0.5100271362415  0.4256811551509  0.1293080742389 1.0
C      1  0.3958458460002  0.6772981192499  0.1864220709533 1.0
C      1  0.7729974168060  0.5917737752306  0.3116686183851 1.0
C      1  0.7537983320578  0.4599538456923  0.4767855411541 1.0
C      1  0.3732162353013  0.8403185913966  0.5747902062729 1.0
C      1  0.4741061209843  0.3433051638617  0.3427365847402 1.0
C      1  0.3513794651066  0.6179082166186  0.6765064623861 1.0
C      1  0.7186813551639  0.3752923062869  0.1624651600460 1.0
C      1  0.6005449800175  0.4209593517164  0.8641824641349 1.0
C      1  0.1267420433879  0.5289551359924  0.5808176126704 1.0
C      1  0.4421355951474  0.8771956116923  0.6157885903628 1.0
C      1  0.6215140254095  0.8655845980772  0.4652839645253 1.0
C      1  0.2803661136881  0.3578949157938  0.7857391193276 1.0
C      1  0.2176220982381  0.3945981833137  0.8570163863525 1.0
C      1  0.6163059564447  0.6185924722745  0.2949874443073 1.0
C      1  0.2189177414091  0.4448381904325  0.4944245599993 1.0
C      1  0.8489648959001  0.6136994953087  0.5595198194868 1.0
C      1  0.8364818817738  0.6091380312931  0.7205501992241 1.0
C      1  0.2689373456979  0.2125816273175  0.5814317328975 1.0
C      1  0.2746474485881  0.6048736111520  0.7429065183097 1.0
C      1  0.4299586068964  0.6579222481808  0.5390576427504 1.0
C      1  0.5092794254844  0.4788934203137  0.2791262960431 1.0
C      1  0.3033071315982  0.7777444065687  0.3891762137733 1.0
C      1  0.1438695089808  0.5526552128633  0.2982619304309 1.0
C      1  0.4837544735376  0.3670349012838  0.6021384814733 1.0
C      1  0.3207368352241  0.6089742434740  0.4384397740160 1.0
C      1  0.3720023571304  0.3181029273038  0.8120793312931 1.0
C      1  0.7230338662000  0.7482640890005  0.2598695624806 1.0
C      1  0.3776482538707  0.2779856328332  0.4525367332999 1.0
C      1  0.5392071378375  0.3464675830863  0.8403647888709 1.0
C      1  0.3627870808374  0.3585555188575  0.1675089716048 1.0
C      1  0.2107948978951  0.4904279316368  0.4150461570214 1.0
C      1  0.1720681517818  0.4004730326751  0.3152263579289 1.0
C      1  0.2260585137354  0.2773249067544  0.6441242391537 1.0
C      1  0.7065665977503  0.7897879968806  0.5803324949851 1.0
C      1  0.1424763676576  0.4454060127052  0.6331058984091 1.0
C      1  0.8870863744300  0.5785791530328  0.4647245876409 1.0
C      1  0.3532519013002  0.4375951699209  0.4778804241019 1.0
C      1  0.4214056045488  0.4404029810231  0.8989103540864 1.0
C      1  0.7524286397841  0.4480656605109  0.1133866872853 1.0
C      1  0.8285037207348  0.6750037479327  0.6457364071190 1.0
C      1  0.3678216785978  0.3506463560589  0.5105111834832 1.0
C      1  0.6138034607260  0.6272348732445  0.1372069468771 1.0
C      1  0.2699309785025  0.2793085968810  0.7259025727426 1.0
C      1  0.7101375910946  0.6116767183266  0.1551806609242 1.0
C      1  0.7257399803038  0.7636655640293  0.4891050173689 1.0
C      1  0.5943108956284  0.5500076596440  0.4958068913278 1.0
C      1  0.5393860355584  0.7900731481353  0.5265244319655 1.0
C      1  0.5607936246302  0.1536944521569  0.4847879356830 1.0
C      1  0.1631307538136  0.6385819948273  0.3360380205682 1.0
C      1  0.5705691192009  0.6715652784714  0.2158869851113 1.0
C      1  0.3562442282144  0.1763975070447  0.6101635552782 1.0
C      1  0.4660675446909  0.5661005890286  0.2764981804576 1.0
C      1  0.6471378954818  0.6569208417840  0.8537306841280 1.0
C      1  0.7112601812511  0.2443061668812  0.4888857917583 1.0
C      1  0.4825734344854  0.8679138646953  0.7028518050461 1.0
END
