TITL C-28654-2798-1 -5.524 3375.00 -994.21212330 0 0 123 (C1) n - 1
REM
REM Run started: at 2020.12.20 21:41:53 in /rds/project/t2_vol4/rds-t2-cs072/BORA/CARBON/AIRSS/Generating-Clusters/Str-Search/Higher-Symm/C100-200
REM VASP from code version vasp.5.4.4.18Apr17-6-g9f103f2a35 (build Oct 11 2019 16:45:47) gamma-only
REM
REM
REM
REM
REM ./C.cell (533062f00bc710175b3da973d35f2034)
REM AIRSS Version 0.9.1 bugfix July 2018 build 013d7b7c2542+ Fri, 06 Jul 2018 19:26:36 +0100
REM compiler GCC version 4.8.5 20150623 (Red Hat 4.8.5-39)
REM options -cpp -mtune=generic -march=x86-64 -g -O0
REM seed 683540390 -634369902 -913855248 1698523005 -643307689 331554102 -302183298 1005013379 207720402 -213931419 1843808844 -432383263
REM
REM C.POTCAR (d86ddea03c3ceb6dc662c8ad6801f873)
REM 
CELL 1.54180   15.00000   15.00000   15.00000   90.00000   90.00000   90.00000
LATT -1
SFAC C  
C      1  0.1647281327444  0.3891676470323  0.4430004175489 1.0
C      1  0.1656256739447  0.6267772860572  0.5391573901789 1.0
C      1  0.8039822868040  0.6223259459231  0.4678203966148 1.0
C      1  0.8204393933473  0.3922572231034  0.5422748148448 1.0
C      1  0.1681609043382  0.4596586648172  0.3734973298492 1.0
C      1  0.1627482252902  0.5561979440084  0.6109137187068 1.0
C      1  0.8015796927471  0.4695723387505  0.6137166527838 1.0
C      1  0.8240614143666  0.5425501412386  0.3955420276210 1.0
C      1  0.5624039879027  0.7431632508257  0.3249586847117 1.0
C      1  0.5623498396585  0.2530483260460  0.6857123163969 1.0
C      1  0.4539226302606  0.2510868050257  0.3204472527482 1.0
C      1  0.4561092106944  0.7423925575992  0.6726682189220 1.0
C      1  0.5668240788629  0.3349677112367  0.7477887660100 1.0
C      1  0.5590983270552  0.6639238222437  0.2554308533676 1.0
C      1  0.4548036749081  0.3221770761807  0.2600697876907 1.0
C      1  0.4556375363148  0.6737535070860  0.7383910236219 1.0
C      1  0.3846772051085  0.4994370330327  0.7806812280791 1.0
C      1  0.3788550692202  0.4947828588680  0.2291029710458 1.0
C      1  0.5971403915193  0.5028624850742  0.7727837626231 1.0
C      1  0.5892082027981  0.4952750502189  0.2232678685647 1.0
C      1  0.3849288892013  0.7794007047844  0.4949964419198 1.0
C      1  0.3893146583089  0.1764366869044  0.4649692416929 1.0
C      1  0.5985808642669  0.7813126743178  0.4973983878179 1.0
C      1  0.5967456621313  0.2158261225114  0.5032413355081 1.0
C      1  0.3184767677419  0.5687724960806  0.2674089899387 1.0
C      1  0.3225073144429  0.4255662257426  0.7408429811929 1.0
C      1  0.6350133385157  0.4137737384449  0.2700722104948 1.0
C      1  0.6364886005561  0.5851186312649  0.7281060512519 1.0
C      1  0.3698215071857  0.2245913568550  0.5410635853222 1.0
C      1  0.3227240762483  0.7341165408667  0.4248753215489 1.0
C      1  0.6438898098017  0.2490094104481  0.4102008361847 1.0
C      1  0.6387068527246  0.7391354157731  0.5835393126716 1.0
C      1  0.1995310190402  0.6210345611566  0.6757496684906 1.0
C      1  0.2045228176031  0.3889801410000  0.3119031401816 1.0
C      1  0.7978197827256  0.3923951042782  0.6819365271217 1.0
C      1  0.8055846182854  0.6065570365941  0.3300313895288 1.0
C      1  0.2044842639794  0.6880191397931  0.6074944229876 1.0
C      1  0.1913321626172  0.3202196951805  0.3808146457342 1.0
C      1  0.8009722087731  0.6854988011672  0.3862706021590 1.0
C      1  0.8017716739426  0.3295677861661  0.6081548889599 1.0
C      1  0.5493526649535  0.6423415147073  0.7096104364885 1.0
C      1  0.5516356637832  0.3489588993392  0.2830223685418 1.0
C      1  0.4765832776370  0.3371321606297  0.7481297621084 1.0
C      1  0.4687834141858  0.6595250950506  0.2576965696326 1.0
C      1  0.5498112222601  0.7167191562891  0.6395914774883 1.0
C      1  0.5505594140736  0.2764445078480  0.3575351417859 1.0
C      1  0.4721638922363  0.7390262561009  0.3303122988494 1.0
C      1  0.4702932948604  0.2427732737115  0.6972478981128 1.0
C      1  0.3812297374570  0.6001710635380  0.7429379431643 1.0
C      1  0.3776867775536  0.3968163629006  0.2738966674213 1.0
C      1  0.6304962189077  0.4096545251955  0.7328438026111 1.0
C      1  0.6226003153925  0.5890206126437  0.2589450215220 1.0
C      1  0.3837491542764  0.7441948866029  0.5981501729622 1.0
C      1  0.3739653392911  0.2344945616289  0.3817468035729 1.0
C      1  0.6313356223273  0.7402491729413  0.3989850547217 1.0
C      1  0.6204364989021  0.2537512350156  0.6030763153141 1.0
C      1  0.6973307066708  0.4215963187785  0.3528904374726 1.0
C      1  0.7066799852988  0.5865279466591  0.6542964331498 1.0
C      1  0.2570511918156  0.5954363783613  0.3302716409262 1.0
C      1  0.2781089425889  0.4338852494364  0.6457438161178 1.0
C      1  0.6941792136995  0.3447607720787  0.4225257167713 1.0
C      1  0.7094156791454  0.6647416825869  0.5846500895658 1.0
C      1  0.2651028825417  0.3605214510722  0.5715640129362 1.0
C      1  0.2583158924420  0.6705228829039  0.4028854796169 1.0
C      1  0.1854112186188  0.6216091863200  0.4492473105843 1.0
C      1  0.1899863346716  0.4002796868467  0.5357617779478 1.0
C      1  0.7866349849425  0.3842387937273  0.4537549928773 1.0
C      1  0.8116032235475  0.6389901389099  0.5693131963029 1.0
C      1  0.1884120549911  0.4688510439207  0.6062373382334 1.0
C      1  0.1854357178733  0.5501931992368  0.3796947041386 1.0
C      1  0.7920327993353  0.4504532977358  0.3887310828109 1.0
C      1  0.8088671909617  0.5704631736408  0.6319807411595 1.0
C      1  0.6553411036608  0.4954548325290  0.4092679739185 1.0
C      1  0.6999288629797  0.4944081188195  0.6002436621163 1.0
C      1  0.3823834569818  0.4844304354957  0.4195328272296 1.0
C      1  0.3553476421709  0.4895615335655  0.6025320539696 1.0
C      1  0.6118658237244  0.3706969333451  0.4824436259816 1.0
C      1  0.7020090846757  0.6191842344464  0.4937336844678 1.0
C      1  0.3403478138954  0.3198168875882  0.5217284658548 1.0
C      1  0.3826647708756  0.6030633877810  0.5035347963036 1.0
C      1  0.4246480693188  0.2583404762588  0.6149427090131 1.0
C      1  0.4184950543972  0.7200105514747  0.4095854666283 1.0
C      1  0.5540715288271  0.6998366743728  0.5442283554032 1.0
C      1  0.5557954511824  0.2936733184790  0.4545961990296 1.0
C      1  0.4140849716043  0.5801693863959  0.2824385811033 1.0
C      1  0.4186926655074  0.4133106076338  0.7218388631054 1.0
C      1  0.5492439840149  0.5464746434955  0.6910950167403 1.0
C      1  0.5439613926174  0.4469290091928  0.2985184110280 1.0
C      1  0.6204067575779  0.4327845938341  0.6326201314315 1.0
C      1  0.6463711688772  0.5802667616803  0.3578715465003 1.0
C      1  0.3596151779164  0.5794496719986  0.6478234582537 1.0
C      1  0.3812112994531  0.4042695376233  0.3758918303183 1.0
C      1  0.6245596081971  0.6437294723625  0.4287792485417 1.0
C      1  0.6336887256170  0.3528384183106  0.5791903767841 1.0
C      1  0.3706816963945  0.6473421147228  0.5827517877318 1.0
C      1  0.3494980902891  0.3264134360543  0.4217083400426 1.0
C      1  0.5363647167783  0.4880386716220  0.6132109485501 1.0
C      1  0.5084369817877  0.4771098394482  0.3791516627035 1.0
C      1  0.4407947144474  0.4342964143580  0.6233953093775 1.0
C      1  0.4414389617850  0.5512021457533  0.3747532497948 1.0
C      1  0.5423178447186  0.6227811730111  0.4855940046231 1.0
C      1  0.5688904304918  0.4608920455119  0.4524198496876 1.0
C      1  0.4497449696412  0.6281853961296  0.4391666417220 1.0
C      1  0.4210989329083  0.3442217688370  0.5801512690867 1.0
C      1  0.5303618642905  0.8517115135006  0.4981678473772 1.0
C      1  0.5476023518789  0.1317589100800  0.4937097400157 1.0
C      1  0.4681904028967  0.1255352839057  0.4720882390267 1.0
C      1  0.4481792200242  0.8549488060313  0.4860010764959 1.0
C      1  0.5352511417316  0.5057291971376  0.8497188503391 1.0
C      1  0.5232212440943  0.4891749280506  0.1491180626309 1.0
C      1  0.4405990603740  0.4994962356719  0.1516654766128 1.0
C      1  0.4525609392204  0.4938895622198  0.8509798831434 1.0
C      1  0.2950212673923  0.7127732617526  0.6309973349116 1.0
C      1  0.2846564195345  0.2829624894911  0.3564067563202 1.0
C      1  0.7082359911483  0.2985114410331  0.6292844459348 1.0
C      1  0.7213542069006  0.7189552037349  0.3504329750832 1.0
C      1  0.2922765411620  0.6346550381308  0.7055711421333 1.0
C      1  0.2853170940774  0.3540902934696  0.2807705282187 1.0
C      1  0.7133434211623  0.6268564071017  0.2951990005669 1.0
C      1  0.7178661916437  0.3605599093732  0.7152007696727 1.0
C      1  0.3617199523283  0.5144497740607  0.5061302037831 1.0
C      1  0.6707564216908  0.5284078472584  0.5108998679697 1.0
C      1  0.5656151219146  0.5303478758090  0.5242225851753 1.0
END
