TITL C-28945-2386-7 -3.391 3375.00 -591.14453418 0 0 70 (C1) n - 1
REM
REM Run started: at 2020.12.29 05:50:47 in /gpfs/home/chem/mssmkc/CARBON/AIRSS/Generating-Clusters/Str-Search/Higher-Symm/C4-100
REM VASP from code version vasp.5.4.4.18Apr17-6-g9f103f2a35 (build Oct 11 2019 16:45:47) gamma-only
REM
REM
REM
REM
REM ./C.cell (6bd13a13d554368a30d355f37ece5b26)
REM AIRSS Version 0.9.1 bugfix July 2018 build 013d7b7c2542+ Fri, 06 Jul 2018 19:26:36 +0100
REM compiler GCC version 6.3.0
REM options -cpp -iprefix /gpfs/warwick/csc/orac/software/Core/GCCcore/6.3.0/bin/../lib/gcc/x86_64-pc-linux-gnu/6.3.0/ -mtune=generic -march=x86-64 -g -O0
REM seed 316618503 -1059475179 1133245083 52678914 634594653 -11962221 -669197569 1948225538 -1066519299 723701124 -1985658215 1893328313
REM
REM C.POTCAR (d86ddea03c3ceb6dc662c8ad6801f873)
REM 
CELL 1.54180   15.00000   15.00000   15.00000   90.00000   90.00000   90.00000
LATT -1
SFAC C  
C      1  0.2784768453995  0.5765977048369  0.6849403642340 1.0
C      1  0.5774452798773  0.2741755678503  0.6751400292271 1.0
C      1  0.6740704443216  0.6088865246959  0.6527079189477 1.0
C      1  0.4919132556267  0.2839637871080  0.4603466388338 1.0
C      1  0.7133310730913  0.6023215676380  0.4528796990730 1.0
C      1  0.3063614002555  0.6296697532070  0.4530501695715 1.0
C      1  0.5937494035261  0.3867396454006  0.5522212871650 1.0
C      1  0.5439102899336  0.6251024586123  0.5779513502360 1.0
C      1  0.3402353736940  0.5029254990963  0.5663805458219 1.0
C      1  0.2541564461402  0.5511971012030  0.6040003547699 1.0
C      1  0.5932444996204  0.2554971994360  0.5953407388404 1.0
C      1  0.6330640601645  0.6574101224878  0.5839905510689 1.0
C      1  0.4216897013386  0.3107712725138  0.5135764197214 1.0
C      1  0.7414327229719  0.5341850783676  0.5136905882737 1.0
C      1  0.3573374852060  0.6895989910282  0.5022146116494 1.0
C      1  0.3484207849994  0.4096599743052  0.5919800162697 1.0
C      1  0.6845204229270  0.4065623335950  0.5758559429632 1.0
C      1  0.4804303774252  0.6989927287343  0.5819965560634 1.0
C      1  0.6243273344449  0.3723577819120  0.2861511045638 1.0
C      1  0.5497584729589  0.6644254557874  0.2855491125241 1.0
C      1  0.3300119840287  0.4558312839199  0.2940948351674 1.0
C      1  0.7048226240952  0.3908632430345  0.4168686933944 1.0
C      1  0.5024702637709  0.7273470981009  0.4189960274143 1.0
C      1  0.2990933290811  0.3876551473752  0.4303138789992 1.0
C      1  0.3461367715990  0.3760918184171  0.3427365564289 1.0
C      1  0.6900810391176  0.4272413524973  0.3281846085957 1.0
C      1  0.4715109515069  0.6935139183869  0.3316682154778 1.0
C      1  0.3981787112506  0.6345591019604  0.3076433335390 1.0
C      1  0.4338828524458  0.3432474283918  0.3147014364112 1.0
C      1  0.6722774306149  0.5190769209085  0.3031526866417 1.0
C      1  0.4363061262397  0.5691915468525  0.2433776702100 1.0
C      1  0.4688043712094  0.4070591596860  0.2470108927688 1.0
C      1  0.5943969123668  0.5161812590538  0.2403248940186 1.0
C      1  0.5192057377739  0.5793852922903  0.7556763859005 1.0
C      1  0.3920363291210  0.4801829198953  0.7537120242732 1.0
C      1  0.5576037881483  0.4239076237324  0.7544420758543 1.0
C      1  0.4385356215017  0.6297823542379  0.7316799424203 1.0
C      1  0.4415170939553  0.3450188767817  0.6864640185559 1.0
C      1  0.6355598594118  0.4750586485827  0.7238410135972 1.0
C      1  0.5938917829037  0.3076843102343  0.3484862467982 1.0
C      1  0.6235789631388  0.6681855714750  0.3438043762449 1.0
C      1  0.2872051252545  0.5181039617591  0.3502623427156 1.0
C      1  0.6971710683089  0.4604352186329  0.6513839192673 1.0
C      1  0.4278074950113  0.6956643840311  0.6652541891821 1.0
C      1  0.3700217308127  0.4030459041717  0.7003203448227 1.0
C      1  0.5190898838135  0.4382286888708  0.5710563052425 1.0
C      1  0.5032395897194  0.5364453531806  0.5763405229525 1.0
C      1  0.4121406356418  0.5583877672025  0.5767827658704 1.0
C      1  0.2570659526852  0.4763369978591  0.4312924419867 1.0
C      1  0.6475553572478  0.3105885527091  0.4260776756517 1.0
C      1  0.5988176597353  0.7110556189487  0.4251892078640 1.0
C      1  0.6572873324425  0.6735863366282  0.4928173990319 1.0
C      1  0.2673652068768  0.5459989056302  0.5037340246371 1.0
C      1  0.5846877400356  0.2955771483309  0.5042187584214 1.0
C      1  0.5316676531335  0.5852627295574  0.2365587470857 1.0
C      1  0.4064554129104  0.4804764728737  0.2427136118626 1.0
C      1  0.5612172602264  0.4251427458753  0.2394388061650 1.0
C      1  0.3223743524828  0.6070364318452  0.3611201847848 1.0
C      1  0.4989543176725  0.2953725229736  0.3660239457897 1.0
C      1  0.6855789349414  0.5954064561883  0.3581325416888 1.0
C      1  0.6133541682082  0.5689211469906  0.7223025114346 1.0
C      1  0.3561493268508  0.5676866327922  0.7371743725648 1.0
C      1  0.5293496226172  0.3379142473465  0.7263487940092 1.0
C      1  0.4447475642331  0.7292092101773  0.4920013222690 1.0
C      1  0.3334436197465  0.3488453529571  0.5086590829200 1.0
C      1  0.7274090168249  0.4397212439145  0.4946197592089 1.0
C      1  0.3862150443605  0.6520512005733  0.5882562397738 1.0
C      1  0.4440322129588  0.3715147531489  0.5882104734243 1.0
C      1  0.7301432092859  0.5434021971363  0.6120684482916 1.0
C      1  0.4882108887582  0.4897618940652  0.7719528485520 1.0
END
