TITL C-2874-4087-23 -9.447 3375.00 -1537.64967459 0 0 189 (C1) n - 1
REM
REM Run started: at 2020.12.30 12:24:27 in /gpfs/home/chem/mssmkc/CARBON/AIRSS/Generating-Clusters/Str-Search/Higher-Symm/C100-200
REM VASP from code version vasp.5.4.4.18Apr17-6-g9f103f2a35 (build Oct 11 2019 16:45:47) gamma-only
REM
REM
REM
REM
REM ./C.cell (533062f00bc710175b3da973d35f2034)
REM AIRSS Version 0.9.1 bugfix July 2018 build 013d7b7c2542+ Fri, 06 Jul 2018 19:26:36 +0100
REM compiler GCC version 6.3.0
REM options -cpp -iprefix /gpfs/warwick/csc/orac/software/Core/GCCcore/6.3.0/bin/../lib/gcc/x86_64-pc-linux-gnu/6.3.0/ -mtune=generic -march=x86-64 -g -O0
REM seed -1662683265 -681916422 -1082976140 19457763 -279499392 -1838487211 1888229348 -1139949658 -1035308719 -526160878 -577004918 -405168114
REM
REM C.POTCAR (d86ddea03c3ceb6dc662c8ad6801f873)
REM 
CELL 1.54180   15.00000   15.00000   15.00000   90.00000   90.00000   90.00000
LATT -1
SFAC C  
C      1  0.6975944304771  0.6869880393460  0.1847922563615 1.0
C      1  0.2512055868481  0.6380291865556  0.1554230267721 1.0
C      1  0.1250670695522  0.6476106059609  0.5922999372653 1.0
C      1  0.4630581804588  0.5948033431679  0.8892871431410 1.0
C      1  0.8810908755098  0.6868640225048  0.6381096573487 1.0
C      1  0.6942820798601  0.3495826964596  0.8883381101078 1.0
C      1  0.2177150857769  0.3290489594926  0.7538686209294 1.0
C      1  0.1875811884941  0.3098650326159  0.3004239010537 1.0
C      1  0.5971558304881  0.3449303282373  0.1101600763037 1.0
C      1  0.8587700969108  0.3436905284179  0.4503467209939 1.0
C      1  0.2416148334156  0.4547525244830  0.5935007647537 1.0
C      1  0.5248164482109  0.4631299402298  0.8237258482997 1.0
C      1  0.7400554305400  0.4934703168618  0.5887500366193 1.0
C      1  0.6356912780432  0.5030239152002  0.2808078639794 1.0
C      1  0.3309749456800  0.4603077829440  0.2792428331398 1.0
C      1  0.2629386504467  0.5170381878489  0.3284913993806 1.0
C      1  0.5560877774380  0.5307060708069  0.2296364119028 1.0
C      1  0.7622702943307  0.5166139752753  0.4231415420314 1.0
C      1  0.5924445415323  0.5268358035934  0.7910171807096 1.0
C      1  0.2829660725331  0.5177572854267  0.6571283519405 1.0
C      1  0.3163193366826  0.4226480211274  0.6584215528506 1.0
C      1  0.6078129257725  0.3399894778522  0.7532300257705 1.0
C      1  0.7326952655983  0.4320648185675  0.4525708863343 1.0
C      1  0.5717022076022  0.3336220093049  0.2827912972275 1.0
C      1  0.3399655790607  0.3127366256706  0.3786295311133 1.0
C      1  0.3331695309055  0.5612391050715  0.2764323930793 1.0
C      1  0.6318370395275  0.6032671990358  0.3153147225178 1.0
C      1  0.7404684513900  0.5948953858825  0.5653879731306 1.0
C      1  0.4943645457959  0.6612512445241  0.7420093106820 1.0
C      1  0.2866331354037  0.6741331903064  0.5443584757444 1.0
C      1  0.2553038394671  0.8455284286968  0.5297977723901 1.0
C      1  0.4579245525920  0.8147531237521  0.6683990247262 1.0
C      1  0.6920834151172  0.8658589632238  0.5996772400596 1.0
C      1  0.6334796714296  0.8629684946729  0.3716333708228 1.0
C      1  0.3932430363350  0.8708194133828  0.3587522487071 1.0
C      1  0.3165025827886  0.1286820545608  0.4261027178161 1.0
C      1  0.5215195334445  0.1790851588422  0.3347881552751 1.0
C      1  0.7268435402344  0.0949173657010  0.4949125853891 1.0
C      1  0.6436899244661  0.1529355298410  0.7006428159396 1.0
C      1  0.4067672543419  0.1286444157602  0.6421261603744 1.0
C      1  0.5987971232865  0.4212225015860  0.3369499720776 1.0
C      1  0.3877770103365  0.4031568736706  0.3413548383450 1.0
C      1  0.3235274486201  0.4088885466801  0.5614577852107 1.0
C      1  0.5295507617640  0.3712955059967  0.8040047573189 1.0
C      1  0.6766584981379  0.4277727670770  0.5394257345870 1.0
C      1  0.5705810839245  0.6017791036307  0.7398927076270 1.0
C      1  0.3324859324020  0.5855445980771  0.5980894483724 1.0
C      1  0.3263918491518  0.5815531238498  0.3722753144259 1.0
C      1  0.5308605186737  0.6093169138679  0.2874083126585 1.0
C      1  0.7765323942511  0.6022540335799  0.4737090801197 1.0
C      1  0.7113858214826  0.8757916506349  0.5191461834318 1.0
C      1  0.5589108199217  0.8582112209026  0.3358737022365 1.0
C      1  0.3160796046258  0.8628390525260  0.3875261411505 1.0
C      1  0.3030604180401  0.8525846357006  0.5994645068194 1.0
C      1  0.5377831021023  0.8641382873461  0.6494039227747 1.0
C      1  0.7347201522510  0.1319195819026  0.5703146746143 1.0
C      1  0.5633891606096  0.1390617081600  0.7188562257687 1.0
C      1  0.3453845576379  0.1355105773921  0.5853262011237 1.0
C      1  0.3667537880608  0.1295661749696  0.3576326433807 1.0
C      1  0.6086876654637  0.1432461337876  0.3533801336861 1.0
C      1  0.1489663681002  0.4563307969031  0.2390007974633 1.0
C      1  0.1455049589194  0.4824913294531  0.7327528183894 1.0
C      1  0.6655785229094  0.5004639491272  0.9274959787465 1.0
C      1  0.9109339959911  0.4955438319634  0.4998461161431 1.0
C      1  0.6108559501326  0.5004249019177  0.0757399162724 1.0
C      1  0.1016981814699  0.4902378087607  0.6455341966331 1.0
C      1  0.2134979581503  0.4731863827866  0.1670256289322 1.0
C      1  0.6961981669424  0.5306039733641  0.1249376361880 1.0
C      1  0.8963825605390  0.5163417812567  0.5953634500661 1.0
C      1  0.5994626814627  0.5455826866607  0.9838775308792 1.0
C      1  0.2919959923652  0.3223845944532  0.5238828354022 1.0
C      1  0.4495252757037  0.3213306250092  0.8001383933968 1.0
C      1  0.6641811461459  0.3318163860779  0.5825286469158 1.0
C      1  0.6577036774862  0.3381504491360  0.3302647334654 1.0
C      1  0.4161631316559  0.3084692224259  0.3181933727534 1.0
C      1  0.3149830181516  0.6861229513113  0.3770830503642 1.0
C      1  0.4808390715900  0.6767080449387  0.2280136652670 1.0
C      1  0.7547203423632  0.6798746436685  0.4146896715080 1.0
C      1  0.6388420338456  0.6446773761272  0.6822672737618 1.0
C      1  0.3260690369564  0.6741656836872  0.6325742255490 1.0
C      1  0.4117219197061  0.5558132844003  0.4193869098989 1.0
C      1  0.4074223136136  0.5528266723894  0.5311280673982 1.0
C      1  0.4923368844654  0.5919672024373  0.5611194770392 1.0
C      1  0.5736268048917  0.5566973770781  0.5488571402532 1.0
C      1  0.4811675821974  0.6158604387089  0.3765755201316 1.0
C      1  0.4120423373094  0.4510184759822  0.5225787205174 1.0
C      1  0.4375794024040  0.4545719738005  0.4173618224605 1.0
C      1  0.5403603385961  0.4243012601081  0.4239332289532 1.0
C      1  0.5798916095505  0.4631961177209  0.5177238334727 1.0
C      1  0.5004344924321  0.4264247159495  0.5674318812911 1.0
C      1  0.3285860084405  0.7280348638716  0.7057269038685 1.0
C      1  0.6621375027123  0.7376054149878  0.7014927159394 1.0
C      1  0.7688193104416  0.7766491227252  0.4380727523633 1.0
C      1  0.4388042011014  0.7558365581465  0.2680065636314 1.0
C      1  0.2220806012699  0.7300288626635  0.3954477246226 1.0
C      1  0.4089244155812  0.2472491253073  0.2421515024847 1.0
C      1  0.6859470252497  0.1924017945238  0.3730053797668 1.0
C      1  0.7347732371542  0.2829335663227  0.6431321898358 1.0
C      1  0.4347138375246  0.2416830993811  0.7438653252976 1.0
C      1  0.2302808389099  0.2445697105816  0.5290927959216 1.0
C      1  0.6990591500185  0.6709222763302  0.2805840071516 1.0
C      1  0.3322245670673  0.6419147952935  0.2138703832462 1.0
C      1  0.1882890081810  0.6676614712569  0.5302099821340 1.0
C      1  0.4332965785404  0.6592934152065  0.8176753213680 1.0
C      1  0.7925997265369  0.6494289306402  0.6370306334175 1.0
C      1  0.6926908921957  0.3300501811193  0.8011792312909 1.0
C      1  0.3127183695872  0.3460756121401  0.7222867082880 1.0
C      1  0.2416555932221  0.3071842488962  0.3721605983364 1.0
C      1  0.5468936167348  0.3256687842652  0.1820911050754 1.0
C      1  0.7686039108299  0.3443095651634  0.4117781949078 1.0
C      1  0.2205860117954  0.5611184800414  0.1415338809699 1.0
C      1  0.0881674340180  0.5760148133433  0.6165883441729 1.0
C      1  0.5305187051022  0.5931203604147  0.9488398081581 1.0
C      1  0.9011543930644  0.6035238082100  0.6207559358714 1.0
C      1  0.7076168858737  0.6217429660014  0.1331583424501 1.0
C      1  0.1672688132698  0.3959365701618  0.7556635259635 1.0
C      1  0.1425096910189  0.3682918666230  0.2602222069269 1.0
C      1  0.6269029192357  0.4007730778033  0.0474703571446 1.0
C      1  0.9079899756808  0.4068215692389  0.4730853827474 1.0
C      1  0.6707923047209  0.4067760014050  0.9562174826736 1.0
C      1  0.4393327884044  0.7160347804582  0.4930191967175 1.0
C      1  0.4991146341033  0.6912752507761  0.5725968726368 1.0
C      1  0.5953391745577  0.7011556393390  0.5321644976045 1.0
C      1  0.5910817578816  0.7114848676924  0.4403442083489 1.0
C      1  0.4990315391190  0.6948091033301  0.4202970215601 1.0
C      1  0.4459613676001  0.2918659816550  0.5066097372520 1.0
C      1  0.5289902291700  0.3178705932451  0.4487296748378 1.0
C      1  0.6156432866779  0.2760659853642  0.4957081524453 1.0
C      1  0.5099846747593  0.3601890379233  0.6270774392853 1.0
C      1  0.4405853538561  0.2969626965316  0.6036115906229 1.0
C      1  0.8225778437878  0.5579079559307  0.3404657590939 1.0
C      1  0.4437011744302  0.5455313099119  0.1292744424559 1.0
C      1  0.1354916200921  0.5755499128095  0.4020683426271 1.0
C      1  0.2810059933266  0.6058900487740  0.8059612422567 1.0
C      1  0.7512475730115  0.5854837627080  0.7863426761978 1.0
C      1  0.7938678377690  0.4238854817402  0.7181437019309 1.0
C      1  0.3639039452336  0.4584306131094  0.8405068457491 1.0
C      1  0.1482406377537  0.4098285581595  0.4807118628904 1.0
C      1  0.3906163196132  0.3778268298571  0.1440429273484 1.0
C      1  0.7790540298763  0.4179154553739  0.2527763232312 1.0
C      1  0.6590891986411  0.6773613554624  0.3797916365054 1.0
C      1  0.3548409328502  0.7142202665563  0.2852726756628 1.0
C      1  0.3519291089545  0.7008663254667  0.4730037523525 1.0
C      1  0.4815919070953  0.7186406235767  0.6684875745009 1.0
C      1  0.6430490465681  0.6242369681895  0.5783456678187 1.0
C      1  0.5976458460751  0.3428717490182  0.6622949919964 1.0
C      1  0.3764551815538  0.2784787500933  0.6778183758431 1.0
C      1  0.3650131544492  0.2966154278344  0.4676628735512 1.0
C      1  0.5131027046907  0.2818217782404  0.3495216743772 1.0
C      1  0.6849200224576  0.2817520966417  0.4132501302243 1.0
C      1  0.5382276105026  0.5216746303684  0.1420340838635 1.0
C      1  0.1642757011438  0.5105740874987  0.3284895487737 1.0
C      1  0.2327126873170  0.5382167054798  0.7458723750519 1.0
C      1  0.6849135238549  0.5232664221723  0.8309670694901 1.0
C      1  0.8603641017991  0.5528789596736  0.4385012336639 1.0
C      1  0.4463889199410  0.5007390596724  0.8594846406125 1.0
C      1  0.1499097640417  0.4396813533550  0.5761891907580 1.0
C      1  0.3105432699324  0.4342532536785  0.1802522824699 1.0
C      1  0.7196899121757  0.4893577166307  0.2166029352868 1.0
C      1  0.8178791425517  0.4670078132245  0.6330254764356 1.0
C      1  0.7101608563974  0.8471217627453  0.4282930448791 1.0
C      1  0.4687491302065  0.8339119943238  0.3146727916800 1.0
C      1  0.2499829050465  0.8182502692008  0.4389195762294 1.0
C      1  0.3594455013648  0.8193517460303  0.6664201344544 1.0
C      1  0.6333498644021  0.8193068835894  0.6574903811602 1.0
C      1  0.7151455767199  0.1838518171662  0.6459391926421 1.0
C      1  0.4720060964864  0.1609373781479  0.7090966640590 1.0
C      1  0.2898922382298  0.1612935928841  0.5101186007166 1.0
C      1  0.4317303111772  0.1611010410599  0.2989527317117 1.0
C      1  0.6874331576729  0.1094166699419  0.4121610693242 1.0
C      1  0.4212151849293  0.6276474893445  0.1698938122381 1.0
C      1  0.1673180753948  0.6583095255129  0.4352311188975 1.0
C      1  0.3438460798451  0.6777141347727  0.7898774172298 1.0
C      1  0.7327981836780  0.6571789205427  0.7158240995531 1.0
C      1  0.7861581045944  0.6494096846929  0.3270555615598 1.0
C      1  0.3692380100773  0.3723451961787  0.8026833456622 1.0
C      1  0.2061555948043  0.3243801182829  0.4630365594173 1.0
C      1  0.4467930884870  0.3069771541077  0.1725118821914 1.0
C      1  0.7524114810174  0.3534691721259  0.3112695985152 1.0
C      1  0.7584221417760  0.3371760922440  0.7231796970507 1.0
C      1  0.2909978169887  0.5185878573840  0.8248666293978 1.0
C      1  0.3882442949576  0.4687236684095  0.1270001407066 1.0
C      1  0.1376375867538  0.4804249795767  0.4205756773612 1.0
C      1  0.7681867626097  0.4964624176963  0.7796381017765 1.0
C      1  0.8132298001274  0.5019399724680  0.2609913571976 1.0
C      1  0.5374085806507  0.9508074653905  0.6093988660559 1.0
C      1  0.5796250823945  0.1863161828777  0.5207059019565 1.0
C      1  0.5515440308089  0.1104214077940  0.5399090297548 1.0
C      1  0.5399695884119  0.0255263857738  0.5722512580377 1.0
END
