TITL C-28945-2386-224 -3.593 3375.00 -623.52637325 0 0 77 (C1) n - 1
REM
REM Run started: at 2020.12.31 00:16:25 in /gpfs/home/chem/mssmkc/CARBON/AIRSS/Generating-Clusters/Str-Search/Higher-Symm/C4-100
REM VASP from code version vasp.5.4.4.18Apr17-6-g9f103f2a35 (build Oct 11 2019 16:45:47) gamma-only
REM
REM
REM
REM
REM ./C.cell (6bd13a13d554368a30d355f37ece5b26)
REM AIRSS Version 0.9.1 bugfix July 2018 build 013d7b7c2542+ Fri, 06 Jul 2018 19:26:36 +0100
REM compiler GCC version 6.3.0
REM options -cpp -iprefix /gpfs/warwick/csc/orac/software/Core/GCCcore/6.3.0/bin/../lib/gcc/x86_64-pc-linux-gnu/6.3.0/ -mtune=generic -march=x86-64 -g -O0
REM seed 383617781 2113713284 -731423859 665642098 -748971129 1141265042 1863000786 -128966116 -771806595 463024217 -1555187824 -394608417
REM
REM C.POTCAR (d86ddea03c3ceb6dc662c8ad6801f873)
REM 
CELL 1.54180   15.00000   15.00000   15.00000   90.00000   90.00000   90.00000
LATT -1
SFAC C  
C      1  0.7297425149321  0.5931326800858  0.4889377767229 1.0
C      1  0.7357196962961  0.4163953577520  0.5025537184984 1.0
C      1  0.2694292653259  0.5390420943192  0.3260678692692 1.0
C      1  0.2744249538589  0.4432484613802  0.3240045299227 1.0
C      1  0.3378621715707  0.2934896250430  0.6083476323929 1.0
C      1  0.3421193007719  0.7082231789372  0.6173989611598 1.0
C      1  0.3853986915304  0.5562400352882  0.6728480762633 1.0
C      1  0.3735025096603  0.4640129767589  0.6725113834826 1.0
C      1  0.5742995290572  0.5918972717131  0.2394991270917 1.0
C      1  0.5962509329556  0.4428258849530  0.2664667388546 1.0
C      1  0.7761600060787  0.4472641516346  0.4208684848751 1.0
C      1  0.7550208473216  0.5406359329501  0.4031658621822 1.0
C      1  0.2747616597783  0.4371688666895  0.4310337660977 1.0
C      1  0.2714280393252  0.5448332644574  0.4336297206167 1.0
C      1  0.7331956947229  0.6517470238382  0.5796694663627 1.0
C      1  0.7411869267650  0.3504121701328  0.5773439561330 1.0
C      1  0.4492317160456  0.3900875584128  0.2779197996753 1.0
C      1  0.4258401437038  0.6152270515384  0.2666679029884 1.0
C      1  0.3583766169229  0.6039099589860  0.4063687414235 1.0
C      1  0.3706975694798  0.4081283510958  0.4083664557521 1.0
C      1  0.6851766062392  0.6048251257436  0.6538922920175 1.0
C      1  0.6778180040727  0.3837168907942  0.6471579793546 1.0
C      1  0.6395010462406  0.6649608021710  0.3582605920111 1.0
C      1  0.6617811187093  0.3209655933929  0.3752463714766 1.0
C      1  0.4344284613972  0.5601803638486  0.4540376667153 1.0
C      1  0.4351947868414  0.4681760466418  0.4527396015985 1.0
C      1  0.6012041401123  0.4412505305085  0.7776239530674 1.0
C      1  0.6081770289186  0.5423212320206  0.7811987444880 1.0
C      1  0.2601907193428  0.5489174250807  0.5946224554578 1.0
C      1  0.2784026487771  0.4569213873255  0.6304804308565 1.0
C      1  0.4893040154835  0.5546179240416  0.2245574827428 1.0
C      1  0.5046520329551  0.4568043353976  0.2374313040348 1.0
C      1  0.2716139531379  0.3693401926343  0.5914399997450 1.0
C      1  0.2786975932412  0.6824328001771  0.6854362978804 1.0
C      1  0.4340410410035  0.7012647063389  0.6378795139274 1.0
C      1  0.4309349920852  0.3044168645207  0.6392549516395 1.0
C      1  0.5120928121116  0.2948420490474  0.5861121909643 1.0
C      1  0.4992038603436  0.6883513137291  0.5594127413312 1.0
C      1  0.4622031556702  0.4084903788257  0.5133164024283 1.0
C      1  0.4726545463151  0.6004885282507  0.5240380593467 1.0
C      1  0.7254402095632  0.3019641763064  0.4987853353194 1.0
C      1  0.6948485807886  0.6839421561803  0.5037237012272 1.0
C      1  0.6936008927752  0.5773373797016  0.3383438848990 1.0
C      1  0.7497699606646  0.3540536522408  0.4066269470090 1.0
C      1  0.6080784532902  0.4427386845467  0.5983990890044 1.0
C      1  0.6133894626066  0.5503794519787  0.6022403425093 1.0
C      1  0.6600612154470  0.3895610786141  0.7339847531506 1.0
C      1  0.6710681420466  0.5923722191328  0.7405819022675 1.0
C      1  0.5284574509231  0.5976809543294  0.6017069598987 1.0
C      1  0.5174044254792  0.3973371044842  0.5940157039984 1.0
C      1  0.5083987258641  0.3320510474133  0.3343884556648 1.0
C      1  0.4785578653610  0.6856373278216  0.3197904464147 1.0
C      1  0.4864584712487  0.2915363364364  0.4187940306378 1.0
C      1  0.4562288222435  0.7228119995708  0.4068548357843 1.0
C      1  0.2497522782113  0.3596424953447  0.4981152996136 1.0
C      1  0.2584505923602  0.5985471261761  0.5181599384786 1.0
C      1  0.2936122077741  0.5866270436881  0.6840446726597 1.0
C      1  0.2842061193658  0.4845063804767  0.7302558975917 1.0
C      1  0.6524713749702  0.5416818368173  0.5121833031653 1.0
C      1  0.6478737103915  0.4526927894227  0.5087459850834 1.0
C      1  0.4082803047144  0.3335023620250  0.4629577788860 1.0
C      1  0.3652950539423  0.6947273889864  0.4458921143828 1.0
C      1  0.3619314024030  0.4023269100869  0.3115180515801 1.0
C      1  0.3459948447387  0.5944613155366  0.3093910283410 1.0
C      1  0.6222739371030  0.7071082355372  0.4439571770182 1.0
C      1  0.6387848166665  0.2748071787410  0.4575674256482 1.0
C      1  0.5119762748075  0.5478127182226  0.7594718047988 1.0
C      1  0.5054894933021  0.4504922431041  0.7537000910954 1.0
C      1  0.5989810506789  0.3601204479510  0.3183441200732 1.0
C      1  0.5691719544506  0.6683536184081  0.2969115016250 1.0
C      1  0.5485841351294  0.2678917966590  0.4894083169517 1.0
C      1  0.5306510649409  0.7288404170760  0.4700327760926 1.0
C      1  0.3132575700450  0.6879078471947  0.5228782782282 1.0
C      1  0.3309876541246  0.3037390742928  0.5143640030038 1.0
C      1  0.4673224565294  0.6065277963469  0.6868739204815 1.0
C      1  0.4520950814451  0.4017976698603  0.6792387791422 1.0
C      1  0.6407648945025  0.5304784528317  0.2722173474251 1.0
END
