TITL C-28945-2386-15 -3.884 3375.00 -665.18488770 0 0 83 (C1) n - 1
REM
REM Run started: at 2020.12.29 07:32:56 in /gpfs/home/chem/mssmkc/CARBON/AIRSS/Generating-Clusters/Str-Search/Higher-Symm/C4-100
REM VASP from code version vasp.5.4.4.18Apr17-6-g9f103f2a35 (build Oct 11 2019 16:45:47) gamma-only
REM
REM
REM
REM
REM ./C.cell (6bd13a13d554368a30d355f37ece5b26)
REM AIRSS Version 0.9.1 bugfix July 2018 build 013d7b7c2542+ Fri, 06 Jul 2018 19:26:36 +0100
REM compiler GCC version 6.3.0
REM options -cpp -iprefix /gpfs/warwick/csc/orac/software/Core/GCCcore/6.3.0/bin/../lib/gcc/x86_64-pc-linux-gnu/6.3.0/ -mtune=generic -march=x86-64 -g -O0
REM seed -1870497271 -6763077 651459785 -1461542310 -172917837 1569891373 385471777 -816575800 -657983898 612976323 -608362583 -826741187
REM
REM C.POTCAR (d86ddea03c3ceb6dc662c8ad6801f873)
REM 
CELL 1.54180   15.00000   15.00000   15.00000   90.00000   90.00000   90.00000
LATT -1
SFAC C  
C      1  0.6806580662524  0.5822617936631  0.7202626838246 1.0
C      1  0.2271378363341  0.4432382314880  0.4393838504971 1.0
C      1  0.4335315679847  0.3918615779263  0.5784159932490 1.0
C      1  0.4000483840012  0.5059497628221  0.4809614562838 1.0
C      1  0.7805625033617  0.4551789228441  0.5581041467014 1.0
C      1  0.3193648307041  0.5931456286737  0.6731821699180 1.0
C      1  0.5607974853506  0.3879376203895  0.4791733466948 1.0
C      1  0.3168470519503  0.6491179587758  0.3889297458984 1.0
C      1  0.5927165269712  0.2947107626394  0.6150648794322 1.0
C      1  0.6197624502554  0.2859527627238  0.3259718264618 1.0
C      1  0.2336002988301  0.5596387867520  0.6770274443880 1.0
C      1  0.4236264575995  0.2861333243917  0.3969577811736 1.0
C      1  0.4633312477608  0.4177469430156  0.3324383214841 1.0
C      1  0.6325576455061  0.7669046780235  0.4674876589962 1.0
C      1  0.4341016035197  0.4838715931981  0.6264644546956 1.0
C      1  0.2188195507900  0.4868345546635  0.5250233682539 1.0
C      1  0.5766992279833  0.4879342397544  0.4703262540561 1.0
C      1  0.7431605120128  0.4445112807205  0.4103133913261 1.0
C      1  0.6121928489605  0.6403257412276  0.6726941168361 1.0
C      1  0.3746272872696  0.5883986786101  0.3285473148785 1.0
C      1  0.3141250739604  0.2973618842644  0.6875136360751 1.0
C      1  0.3481811509930  0.3528713263209  0.7465280706936 1.0
C      1  0.3713379918706  0.7155743075500  0.4352059451205 1.0
C      1  0.5547363324725  0.7236268600898  0.6889774787993 1.0
C      1  0.5772077674265  0.2301205871985  0.3900107575102 1.0
C      1  0.6378522699003  0.7320240224164  0.3799019319071 1.0
C      1  0.3360158911758  0.3374072806846  0.3819686944952 1.0
C      1  0.4306870098808  0.5580614643351  0.4096079624067 1.0
C      1  0.4948333465903  0.6262712146559  0.4383102858443 1.0
C      1  0.5854551921500  0.6069773965127  0.5840762937224 1.0
C      1  0.6721667089026  0.2522989496132  0.5483324231510 1.0
C      1  0.6593142148495  0.4469885136962  0.2676480724654 1.0
C      1  0.3904283648649  0.5233060248335  0.7125900933368 1.0
C      1  0.3665221813209  0.4131856055205  0.3227616442145 1.0
C      1  0.5894216973102  0.2032116426417  0.5696253383204 1.0
C      1  0.4805475550214  0.2201918421699  0.3845658209368 1.0
C      1  0.5505376081904  0.4872746848116  0.7286074640381 1.0
C      1  0.4183253044396  0.4171408339262  0.4901908409057 1.0
C      1  0.4423798258016  0.6546595720006  0.2944236059088 1.0
C      1  0.7344554765793  0.5817686492968  0.3136543059008 1.0
C      1  0.6829195205041  0.6307670617526  0.2520032323931 1.0
C      1  0.2499072310429  0.5099325666501  0.3763483753662 1.0
C      1  0.5548260941252  0.7282278516156  0.3339372385712 1.0
C      1  0.2323609773774  0.4220427425072  0.5936543144223 1.0
C      1  0.4972124078167  0.6284822390571  0.5434251831447 1.0
C      1  0.5998741528678  0.5158863227249  0.5649434161260 1.0
C      1  0.5906948585915  0.7878109735105  0.5373332890427 1.0
C      1  0.2999281472151  0.2718086515236  0.6051285037026 1.0
C      1  0.4768373281850  0.3745614610738  0.4216929868101 1.0
C      1  0.3285649151529  0.6199630636446  0.5748577523104 1.0
C      1  0.2506981544363  0.5961500597890  0.4244564560372 1.0
C      1  0.2458180288517  0.5792443087101  0.5213225214350 1.0
C      1  0.5870105635321  0.5105067418595  0.2418239331603 1.0
C      1  0.4830859807562  0.5594143748632  0.7439311561558 1.0
C      1  0.5200603617130  0.6415776217203  0.7228483776359 1.0
C      1  0.2488557524247  0.4636309209052  0.6787059186154 1.0
C      1  0.6875442489680  0.3128796361026  0.6210476047477 1.0
C      1  0.6833860366906  0.4619179253711  0.5554249268931 1.0
C      1  0.3708467125405  0.7095192995980  0.5287912187166 1.0
C      1  0.6568646082756  0.4263476627668  0.4637204000619 1.0
C      1  0.7223400886489  0.4660484509421  0.7060351220805 1.0
C      1  0.4597248118980  0.7176646049838  0.5668183055023 1.0
C      1  0.6399637258628  0.3554252395933  0.2852057865647 1.0
C      1  0.5297869265959  0.7709659627093  0.6072707861989 1.0
C      1  0.5296215722234  0.6639129039146  0.2629656141021 1.0
C      1  0.5348491726975  0.4592636625309  0.6342387784399 1.0
C      1  0.7714988642454  0.5490236444429  0.6996215577750 1.0
C      1  0.3216913427844  0.4992046672427  0.3161478117092 1.0
C      1  0.4145440483343  0.5567756478608  0.5604378014266 1.0
C      1  0.6392723023703  0.4990784794935  0.7505216748840 1.0
C      1  0.4644502193515  0.7059848149705  0.3810039043863 1.0
C      1  0.8105623667174  0.4476619839721  0.4720872566177 1.0
C      1  0.2620929162688  0.3385175767530  0.5500873592432 1.0
C      1  0.6102118368218  0.2220121787379  0.4770676888659 1.0
C      1  0.3273999623820  0.4423039309555  0.7331092002202 1.0
C      1  0.5958084543919  0.6025827383774  0.2240882018946 1.0
C      1  0.5341979333007  0.5397021459593  0.3989111470687 1.0
C      1  0.7288923035110  0.4883355360991  0.3247142313377 1.0
C      1  0.5240304870285  0.4885051542933  0.3114954058766 1.0
C      1  0.5332955484198  0.3692400006316  0.5817917046169 1.0
C      1  0.7290187253875  0.4041123268807  0.6285611712478 1.0
C      1  0.2682934501378  0.3572570955657  0.4496714445830 1.0
C      1  0.7024825124544  0.6737720625030  0.3315201692081 1.0
END
