TITL C-28527-7947-1 -4.674 3375.00 -809.99767868 0 0 100 (C2) n - 1
REM
REM Run started: at 2020.12.20 21:07:33 in /rds/project/t2_vol4/rds-t2-cs072/BORA/CARBON/AIRSS/Generating-Clusters/Str-Search/Higher-Symm/C100-200
REM VASP from code version vasp.5.4.4.18Apr17-6-g9f103f2a35 (build Oct 11 2019 16:45:47) gamma-only
REM
REM
REM
REM
REM ./C.cell (533062f00bc710175b3da973d35f2034)
REM AIRSS Version 0.9.1 bugfix July 2018 build 013d7b7c2542+ Fri, 06 Jul 2018 19:26:36 +0100
REM compiler GCC version 4.8.5 20150623 (Red Hat 4.8.5-39)
REM options -cpp -mtune=generic -march=x86-64 -g -O0
REM seed 1764429080 1193565045 1158513380 320466944 1991058493 -219731208 -1333187376 728509352 1094040588 115106660 1371532944 1754861048
REM
REM C.POTCAR (d86ddea03c3ceb6dc662c8ad6801f873)
REM 
CELL 1.54180   15.00000   15.00000   15.00000   90.00000   90.00000   90.00000
LATT -1
SFAC C  
C      1  0.6437166973057  0.3460558739317  0.3084883764050 1.0
C      1  0.3562832829543  0.6539443496573  0.3084887559533 1.0
C      1  0.1762887678417  0.4662432896238  0.4390146411194 1.0
C      1  0.8237114424259  0.5337569300306  0.4390143446415 1.0
C      1  0.6024356456588  0.5594298527303  0.6156444225641 1.0
C      1  0.3975644368195  0.4405698490780  0.6156446378442 1.0
C      1  0.7232568480044  0.6372963708473  0.3419180566025 1.0
C      1  0.2767431670220  0.3627035523556  0.3419183099176 1.0
C      1  0.4399915185752  0.3497975059613  0.6015885269436 1.0
C      1  0.5600087477188  0.6502024683210  0.6015883912244 1.0
C      1  0.2788719909355  0.5444253526230  0.5465229564758 1.0
C      1  0.7211282930361  0.4555739649579  0.5465224912879 1.0
C      1  0.3328204919972  0.6103072208571  0.7044981200070 1.0
C      1  0.6671790433265  0.3896923939776  0.7044982781678 1.0
C      1  0.2596912647911  0.3605008413011  0.4410361372970 1.0
C      1  0.7403088139866  0.6394992163267  0.4410361090768 1.0
C      1  0.7193545838566  0.5459293955715  0.3122023445874 1.0
C      1  0.2806454381498  0.4540706693824  0.3122025979789 1.0
C      1  0.1803070667615  0.3930014930501  0.4937894616037 1.0
C      1  0.8196929942735  0.6069982914219  0.4937895246969 1.0
C      1  0.4214262244751  0.2598434015077  0.6397333464791 1.0
C      1  0.5785733068204  0.7401566845561  0.6397332751418 1.0
C      1  0.4890656077630  0.3489720246037  0.5131426790760 1.0
C      1  0.5109344197675  0.6510281885512  0.5131429902902 1.0
C      1  0.7155707741981  0.4284985029106  0.4478537284526 1.0
C      1  0.2844292739904  0.5715012590616  0.4478540147554 1.0
C      1  0.5465569095138  0.5074051607073  0.8161846563204 1.0
C      1  0.4534426128926  0.4925946757803  0.8161849984070 1.0
C      1  0.5494269046073  0.4907960919063  0.6740968477427 1.0
C      1  0.4505732285367  0.5092037428331  0.6740968772164 1.0
C      1  0.4399885386989  0.5396230782335  0.3690632380424 1.0
C      1  0.5600115946451  0.4603773962664  0.3690631244872 1.0
C      1  0.2737825800429  0.3641645491621  0.7371490844744 1.0
C      1  0.7262170276395  0.6358350371475  0.7371487547216 1.0
C      1  0.5991825564259  0.4310838792506  0.2736337891184 1.0
C      1  0.4008173724335  0.5689163538627  0.2736339172475 1.0
C      1  0.4948602661829  0.6985400939873  0.6717297735630 1.0
C      1  0.5051392427216  0.3014603518446  0.6717299774438 1.0
C      1  0.5736743918238  0.2812443829526  0.3231857828725 1.0
C      1  0.4263256042551  0.7187558968162  0.3231860249017 1.0
C      1  0.5682778290233  0.4097132437075  0.5219118525228 1.0
C      1  0.4317223847332  0.5902868849505  0.5219121479296 1.0
C      1  0.5786122543979  0.8067948514380  0.5815845689020 1.0
C      1  0.4213875864224  0.1932055672393  0.5815840063508 1.0
C      1  0.4140909182590  0.4109612692596  0.2250353251104 1.0
C      1  0.5859088516875  0.5890388234561  0.2250350492212 1.0
C      1  0.6663334365879  0.3426144275010  0.4072662575517 1.0
C      1  0.3336667703161  0.6573859157245  0.4072667134203 1.0
C      1  0.5016428839882  0.3061106351921  0.2605049070812 1.0
C      1  0.4983568093004  0.6938892877634  0.2605047996279 1.0
C      1  0.5165412771496  0.3928576926861  0.2276256162450 1.0
C      1  0.4834583614470  0.6071423509255  0.2276254402399 1.0
C      1  0.4588820497093  0.7415910335518  0.5044410758799 1.0
C      1  0.5411180843829  0.2584092647014  0.5044410406771 1.0
C      1  0.4628292261369  0.4446848176003  0.3866499033703 1.0
C      1  0.5371710864853  0.5553157639671  0.3866498498182 1.0
C      1  0.3557424775232  0.4797949265763  0.2523209203896 1.0
C      1  0.6442573372725  0.5202052701030  0.2523207895910 1.0
C      1  0.6166625622598  0.4224732651750  0.4393855560887 1.0
C      1  0.3833376395605  0.5775271640700  0.4393859027589 1.0
C      1  0.3356105037111  0.2926177893608  0.3105170387743 1.0
C      1  0.6643893914301  0.7073820810569  0.3105165428274 1.0
C      1  0.5669931165782  0.6028240387888  0.7939697784880 1.0
C      1  0.4330062787876  0.3971755773812  0.7939706436202 1.0
C      1  0.5102089254499  0.3608953071391  0.7515497268487 1.0
C      1  0.4897907269876  0.6391051354158  0.7515498790468 1.0
C      1  0.4104899179072  0.1823141303126  0.4213328081753 1.0
C      1  0.5895128272479  0.8176859286575  0.4213330924296 1.0
C      1  0.5972452616821  0.2675841146180  0.4191065852202 1.0
C      1  0.4027550063225  0.7324160574556  0.4191068985661 1.0
C      1  0.7832267647592  0.6041289448692  0.5888698088753 1.0
C      1  0.2167733457407  0.3958705225182  0.5888693831617 1.0
C      1  0.5394874797020  0.8115498080613  0.5015256287475 1.0
C      1  0.4605133760896  0.1884503415160  0.5015254454411 1.0
C      1  0.5819223944176  0.2809153211989  0.6061522176032 1.0
C      1  0.4180771467021  0.7190846262386  0.6061521825350 1.0
C      1  0.2331447144908  0.5116597265731  0.3822694712946 1.0
C      1  0.7668552398592  0.4883404508248  0.3822691168648 1.0
C      1  0.4172901795812  0.5687367491877  0.7486474756022 1.0
C      1  0.5827094598050  0.4312632743675  0.7486476953815 1.0
C      1  0.6658307735523  0.6066297821058  0.4821937060004 1.0
C      1  0.3341694437947  0.3933701343991  0.4821937698760 1.0
C      1  0.6373448077014  0.7795334130919  0.3664681400617 1.0
C      1  0.3626549454103  0.2204669423758  0.3664674965696 1.0
C      1  0.4257307904613  0.3897463493114  0.4487612282332 1.0
C      1  0.5742694997149  0.6102540133151  0.4487614061646 1.0
C      1  0.6541616885890  0.6330440784253  0.7807295046920 1.0
C      1  0.3458380596371  0.3669550666515  0.7807302736374 1.0
C      1  0.4529555944441  0.5138524635521  0.5733880483864 1.0
C      1  0.5470447379893  0.4861471968214  0.5733880719656 1.0
C      1  0.7119404294313  0.4001484770436  0.6198048665053 1.0
C      1  0.2880595216230  0.5998508110833  0.6198050206047 1.0
C      1  0.6924028142490  0.5543189888778  0.5652018119902 1.0
C      1  0.3075972549619  0.4456811205212  0.5652017904965 1.0
C      1  0.7855369487924  0.6369886567974  0.6708696684121 1.0
C      1  0.2144626830764  0.3630110292459  0.6708696127072 1.0
C      1  0.3404528966957  0.6780102440736  0.6391438754077 1.0
C      1  0.6595466668294  0.3219891479423  0.6391441638686 1.0
C      1  0.4026625062724  0.3198986501962  0.2522957418748 1.0
C      1  0.5973370800047  0.6801014190922  0.2522954951174 1.0
END
