TITL C-28945-2386-169 -0.969 3375.00 -148.01385459 0 0 19 (C1) n - 1
REM
REM Run started: at 2020.12.30 14:48:23 in /gpfs/home/chem/mssmkc/CARBON/AIRSS/Generating-Clusters/Str-Search/Higher-Symm/C4-100
REM VASP from code version vasp.5.4.4.18Apr17-6-g9f103f2a35 (build Oct 11 2019 16:45:47) gamma-only
REM
REM
REM
REM
REM ./C.cell (6bd13a13d554368a30d355f37ece5b26)
REM AIRSS Version 0.9.1 bugfix July 2018 build 013d7b7c2542+ Fri, 06 Jul 2018 19:26:36 +0100
REM compiler GCC version 6.3.0
REM options -cpp -iprefix /gpfs/warwick/csc/orac/software/Core/GCCcore/6.3.0/bin/../lib/gcc/x86_64-pc-linux-gnu/6.3.0/ -mtune=generic -march=x86-64 -g -O0
REM seed 732966589 -1830177220 1856116647 71481784 1304701305 494390348 -452326605 -965039653 -319014011 2146888186 98598840 653215120
REM
REM C.POTCAR (d86ddea03c3ceb6dc662c8ad6801f873)
REM 
CELL 1.54180   15.00000   15.00000   15.00000   90.00000   90.00000   90.00000
LATT -1
SFAC C  
C      1  0.4266911951412  0.3803979261137  0.5469485114348 1.0
C      1  0.5441810455818  0.4529004170992  0.3669580344353 1.0
C      1  0.3393899269054  0.5331595420970  0.4184955787070 1.0
C      1  0.4616185349363  0.6356885615797  0.4252438109703 1.0
C      1  0.5593615792698  0.6392526793735  0.5552384202760 1.0
C      1  0.5539377196563  0.3786750652189  0.4276590330391 1.0
C      1  0.5497296726177  0.5731048835940  0.6211402411979 1.0
C      1  0.4207994218296  0.5642794743098  0.3779386234391 1.0
C      1  0.4213072764904  0.4519731259473  0.6124361554282 1.0
C      1  0.3558277448482  0.4417780375922  0.5463508728187 1.0
C      1  0.6174408621557  0.4515975495388  0.4303264268112 1.0
C      1  0.6241660740591  0.5707109437646  0.5584701777726 1.0
C      1  0.3067693746152  0.4935776180691  0.4848641831642 1.0
C      1  0.5150288201197  0.3690189826714  0.5157190576825 1.0
C      1  0.4677423022778  0.4948705575045  0.3405008233562 1.0
C      1  0.5083015680885  0.4875616510974  0.6272252469128 1.0
C      1  0.6305039800913  0.4855684636243  0.5187683670174 1.0
C      1  0.5048299019207  0.6706119259566  0.4866376992590 1.0
C      1  0.5655150993953  0.4319510948480  0.5698598362777 1.0
END
