TITL C-29239-5963-8 -8.503 3375.00 -1553.66148631 0 0 190 (C1) n - 1
REM
REM Run started: at 2020.12.30 10:04:16 in /rds/project/t2_vol4/rds-t2-cs072/BORA/CARBON/AIRSS/Generating-Clusters/Str-Search/Higher-Symm/C100-200
REM VASP from code version vasp.5.4.4.18Apr17-6-g9f103f2a35 (build Oct 11 2019 16:45:47) gamma-only
REM
REM
REM
REM
REM ./C.cell (533062f00bc710175b3da973d35f2034)
REM AIRSS Version 0.9.1 bugfix July 2018 build 013d7b7c2542+ Fri, 06 Jul 2018 19:26:36 +0100
REM compiler GCC version 4.8.5 20150623 (Red Hat 4.8.5-39)
REM options -cpp -mtune=generic -march=x86-64 -g -O0
REM seed 893158251 -1001886110 1955637848 -1579821730 868655350 1315180968 1705347535 1555635844 -620590795 -927297916 -525742289 -1515236427
REM
REM C.POTCAR (d86ddea03c3ceb6dc662c8ad6801f873)
REM 
CELL 1.54180   15.00000   15.00000   15.00000   90.00000   90.00000   90.00000
LATT -1
SFAC C  
C      1  0.5834009776809  0.8580162367039  0.6283798787578 1.0
C      1  0.5953365459712  0.8528045524207  0.3645088660340 1.0
C      1  0.5961239827321  0.6860243666540  0.1649426419741 1.0
C      1  0.5954634108568  0.4284378791359  0.1322339291293 1.0
C      1  0.5896846216369  0.2044220371152  0.2590265569739 1.0
C      1  0.5957460226379  0.1267537943313  0.5058922550081 1.0
C      1  0.5961117512237  0.2130976241520  0.7496012906197 1.0
C      1  0.6020724151393  0.4387648820634  0.8829488964761 1.0
C      1  0.5963047137388  0.6962842622636  0.8306638051428 1.0
C      1  0.7060154941322  0.7388584365402  0.6434462109526 1.0
C      1  0.7077291809378  0.7721760249659  0.4708974234476 1.0
C      1  0.7145159528174  0.6805268410814  0.3010703895636 1.0
C      1  0.7145407564698  0.5124616081079  0.2326720729039 1.0
C      1  0.7108476390361  0.3321756702584  0.2889115234848 1.0
C      1  0.7097405210219  0.2425735284016  0.4368688476248 1.0
C      1  0.7150022968622  0.2649248387822  0.6246247681994 1.0
C      1  0.7156690901860  0.3943056364153  0.7475489717767 1.0
C      1  0.7154169294462  0.5923847611746  0.7628971416049 1.0
C      1  0.2436208981112  0.2341106271924  0.5917355593159 1.0
C      1  0.2549978326612  0.3368953414531  0.7433909925799 1.0
C      1  0.2507087728193  0.5098062655805  0.8041297307273 1.0
C      1  0.2637375104718  0.8040753259289  0.6230600653662 1.0
C      1  0.2491033659107  0.7996307320043  0.4540746529471 1.0
C      1  0.2424345907890  0.7009290343471  0.3025450306339 1.0
C      1  0.2494791983837  0.5347078789144  0.2212943228492 1.0
C      1  0.2394786742014  0.3521784206951  0.2628686048888 1.0
C      1  0.2477637876607  0.2308202441636  0.4055053974554 1.0
C      1  0.2073195693113  0.2951352553482  0.6630443655897 1.0
C      1  0.2140953763076  0.4266045316063  0.7634815493227 1.0
C      1  0.1949769325711  0.5805396635399  0.7709727589997 1.0
C      1  0.2114535313918  0.7818093346101  0.5476176445637 1.0
C      1  0.2042118312790  0.7389818297151  0.3872885572984 1.0
C      1  0.2044024645001  0.6139704866635  0.2692778911783 1.0
C      1  0.2025822865104  0.4463498731474  0.2489017401008 1.0
C      1  0.2010172182822  0.2954355786446  0.3388835720098 1.0
C      1  0.2038896057110  0.2398407957151  0.4987968556646 1.0
C      1  0.4947019817700  0.1474417638790  0.6535056293263 1.0
C      1  0.4976240039674  0.3277562824861  0.8513689245533 1.0
C      1  0.4974975568504  0.5881241335673  0.8849643949891 1.0
C      1  0.4986346027535  0.8170538466763  0.7523553781655 1.0
C      1  0.4928642672364  0.8959965532670  0.4709540235658 1.0
C      1  0.4937071471441  0.7798091781560  0.2331253016129 1.0
C      1  0.4955954449175  0.5455768066065  0.1142551028873 1.0
C      1  0.4901987707789  0.2882487818249  0.1762722804295 1.0
C      1  0.4927767521200  0.1262206702975  0.3906343879721 1.0
C      1  0.6666762441377  0.5891938764292  0.2869834870375 1.0
C      1  0.6796477146826  0.4303221186727  0.2840129016552 1.0
C      1  0.6555795447778  0.3044378500110  0.3738808674641 1.0
C      1  0.6771357247253  0.2749151543005  0.5285665556382 1.0
C      1  0.6649380794278  0.3427711493675  0.6728575440436 1.0
C      1  0.6748248768621  0.4909425039927  0.7369582644773 1.0
C      1  0.6722688413641  0.6502317425528  0.6879558989997 1.0
C      1  0.6545783137786  0.7356294739465  0.5527609853965 1.0
C      1  0.6753496634936  0.7085814453285  0.3955640896364 1.0
C      1  0.8050749626781  0.6320604506819  0.3072689379048 1.0
C      1  0.8071561060683  0.5399289212264  0.2629284654868 1.0
C      1  0.8066523159085  0.3293473576791  0.3301376637912 1.0
C      1  0.8003180758722  0.2868803157949  0.4144628395090 1.0
C      1  0.8047334835873  0.3149891697433  0.6306911021925 1.0
C      1  0.8086344502434  0.3801400438392  0.7048684226421 1.0
C      1  0.8033835605279  0.5536450404848  0.7472491012041 1.0
C      1  0.7923901317345  0.7046680972167  0.5944708496475 1.0
C      1  0.7940194918952  0.7231084465727  0.5040632579355 1.0
C      1  0.4964698333089  0.2771624244683  0.5163148875736 1.0
C      1  0.5010022068346  0.3399700315791  0.6601517747606 1.0
C      1  0.5050546287803  0.4814058262667  0.7318996127972 1.0
C      1  0.4941462911308  0.6370400865767  0.6942490835118 1.0
C      1  0.4946267965760  0.7228262352658  0.5629648312160 1.0
C      1  0.4977189967486  0.7109289093936  0.4104942834111 1.0
C      1  0.5041575202578  0.6026232571673  0.2974933255628 1.0
C      1  0.4972981050366  0.4459538650599  0.2809875842157 1.0
C      1  0.4931580264010  0.3170947544931  0.3667283934302 1.0
C      1  0.3725335300498  0.6347491331945  0.5902129064226 1.0
C      1  0.3717609407866  0.6582713834206  0.4995787669102 1.0
C      1  0.4028361218379  0.6045645869638  0.4163984804554 1.0
C      1  0.4020953948132  0.5090243070041  0.3681044181588 1.0
C      1  0.3717897280785  0.4111377111471  0.3777863932515 1.0
C      1  0.3712883303705  0.3561261615226  0.4530720157724 1.0
C      1  0.3967038126974  0.3763233280391  0.5526354798140 1.0
C      1  0.3832234082519  0.4423080041137  0.6327853813974 1.0
C      1  0.3980138095272  0.5440021039920  0.6371018345934 1.0
C      1  0.6751174485431  0.3760640058348  0.5129715509577 1.0
C      1  0.6436866501561  0.4077756963938  0.5993763092727 1.0
C      1  0.6485538069127  0.5007234832726  0.6400602944960 1.0
C      1  0.6838082671829  0.5887786782443  0.6071891965249 1.0
C      1  0.6356612718312  0.6366608871672  0.5344187646813 1.0
C      1  0.6839638043764  0.6217279091641  0.4471286012224 1.0
C      1  0.6488323010503  0.5536569602500  0.3819575318112 1.0
C      1  0.6820329946817  0.4584917081936  0.3861052345172 1.0
C      1  0.6260714817885  0.3870443532953  0.4263687725042 1.0
C      1  0.4433485232709  0.5292848311678  0.2663714645612 1.0
C      1  0.4347625025243  0.3690722140486  0.3024679802826 1.0
C      1  0.4352991712168  0.2724219746738  0.4334676219250 1.0
C      1  0.4400059031164  0.2864078660830  0.5972551853673 1.0
C      1  0.4423491629714  0.4020144995283  0.7118216773072 1.0
C      1  0.4416729174219  0.5615348004531  0.7372725272728 1.0
C      1  0.4368967203889  0.7036069445105  0.6430423241900 1.0
C      1  0.4353584880161  0.7429165006994  0.4865123468078 1.0
C      1  0.4417979438293  0.6724512593499  0.3390232034648 1.0
C      1  0.4150167632889  0.3398902971347  0.7938961166335 1.0
C      1  0.4120556998312  0.5585616578652  0.8350752200055 1.0
C      1  0.4205342865683  0.7943141541805  0.6893253303480 1.0
C      1  0.4090112227328  0.8410160080747  0.4773813521904 1.0
C      1  0.4073701285054  0.7427276249006  0.2759188838982 1.0
C      1  0.4119139300407  0.5492603960324  0.1718043849570 1.0
C      1  0.4034957809148  0.3254189872801  0.2171215552687 1.0
C      1  0.4084742582246  0.1816197196984  0.3954382372802 1.0
C      1  0.4080468065404  0.1937582311926  0.6228041420841 1.0
C      1  0.8467143071482  0.3751634618437  0.5660995642855 1.0
C      1  0.8453302496693  0.4457654294741  0.6399924202262 1.0
C      1  0.8276605275211  0.5367291838126  0.6540577689087 1.0
C      1  0.7872488861129  0.6013918728478  0.5847750237615 1.0
C      1  0.7879797220965  0.6224939842257  0.4744773134525 1.0
C      1  0.8332079350337  0.5909313396789  0.3875583188363 1.0
C      1  0.8488731613264  0.4988966673756  0.3400800185593 1.0
C      1  0.8559915315538  0.4088954495195  0.3654121455772 1.0
C      1  0.8317342976267  0.3731151664918  0.4636533524435 1.0
C      1  0.5107900075465  0.4583164838951  0.0917653172104 1.0
C      1  0.5038747530843  0.2050735930471  0.2102648024478 1.0
C      1  0.5093240557563  0.0925142349373  0.4735722297811 1.0
C      1  0.5104277094782  0.1657333600967  0.7410300915938 1.0
C      1  0.5158181002086  0.3980090956604  0.9064933464228 1.0
C      1  0.5102158050530  0.6770583619307  0.8739273461714 1.0
C      1  0.4973679278550  0.8658440741963  0.6768338416930 1.0
C      1  0.5093874747452  0.8975589138499  0.3812287298572 1.0
C      1  0.5085953911595  0.7317635745139  0.1571244564768 1.0
C      1  0.1230620578084  0.3137083513723  0.3845777897625 1.0
C      1  0.1255672919746  0.2837864799407  0.4777507237847 1.0
C      1  0.1343810642141  0.3512662859869  0.6527056517966 1.0
C      1  0.1403161009276  0.4308460719024  0.7070017661904 1.0
C      1  0.1491746425630  0.6059570158752  0.7075116898258 1.0
C      1  0.1430137477651  0.7207001089096  0.5335377905806 1.0
C      1  0.1364594350637  0.7020315033319  0.4383889522294 1.0
C      1  0.1274659936176  0.5753144241343  0.3020534406127 1.0
C      1  0.1249524401831  0.4790569513253  0.2867324726795 1.0
C      1  0.0688175077406  0.4677371352769  0.3649743176306 1.0
C      1  0.0665410375867  0.3886729041094  0.4105982727575 1.0
C      1  0.0713784494752  0.3615132863852  0.5029088073976 1.0
C      1  0.0824349585075  0.3995156087596  0.5861229604507 1.0
C      1  0.0937529005893  0.4826397849401  0.6375249761650 1.0
C      1  0.1039060660363  0.5780386306006  0.6280322394703 1.0
C      1  0.0976827615436  0.6341447659481  0.5518699843363 1.0
C      1  0.0863431788421  0.6210447245271  0.4546770576926 1.0
C      1  0.0746302970341  0.5625070294323  0.3840441594533 1.0
C      1  0.6580377016704  0.3691039836500  0.8328615932968 1.0
C      1  0.6573145508783  0.6171171225518  0.8441098248995 1.0
C      1  0.6533145807074  0.8140468308246  0.6918251433512 1.0
C      1  0.6531336746566  0.8584193697726  0.4493648005575 1.0
C      1  0.6556122732757  0.7342864259353  0.2326302954093 1.0
C      1  0.6557554525949  0.5089884497720  0.1456276991760 1.0
C      1  0.6526418558312  0.2766601150429  0.2213531942385 1.0
C      1  0.6532153803560  0.1539530590954  0.4272988911815 1.0
C      1  0.6587866928480  0.1880197517565  0.6703774594908 1.0
C      1  0.3251757830283  0.8469919946108  0.4487283957999 1.0
C      1  0.3192514990917  0.7379049506401  0.2697288787801 1.0
C      1  0.3241921634158  0.5437274146646  0.1723429479540 1.0
C      1  0.3148403875904  0.3263588646939  0.2173637828885 1.0
C      1  0.3207490932670  0.1813592200109  0.3887060129119 1.0
C      1  0.3210172309279  0.1889246533856  0.6094806190087 1.0
C      1  0.3315642503946  0.3143948237565  0.7856114564900 1.0
C      1  0.3299574776784  0.5275427825497  0.8451760822095 1.0
C      1  0.3273082179824  0.8172799883918  0.6742520732847 1.0
C      1  0.5790807800602  0.8742677036694  0.5193964092585 1.0
C      1  0.5858122242837  0.7893958931064  0.2818456321730 1.0
C      1  0.5867314413545  0.5845352546063  0.1425437528402 1.0
C      1  0.5838935143250  0.3371063643638  0.1777998482341 1.0
C      1  0.5820042170119  0.1611366845890  0.3539413396301 1.0
C      1  0.5872816679625  0.1571386230992  0.6046775113728 1.0
C      1  0.5877356251241  0.2993843341611  0.8105124504233 1.0
C      1  0.5912549703429  0.5441208776378  0.8722044889461 1.0
C      1  0.5895693306259  0.7718998608555  0.7612530719501 1.0
C      1  0.5700849156309  0.7840451608304  0.5633952819085 1.0
C      1  0.5823860772928  0.7487850492266  0.3756193941213 1.0
C      1  0.5815122617115  0.6129515247359  0.2390406988463 1.0
C      1  0.5831261002976  0.4188724911980  0.2398717896993 1.0
C      1  0.5717260901386  0.2613887775078  0.3438100897585 1.0
C      1  0.5827902001457  0.2302441040622  0.5333867669509 1.0
C      1  0.5790206686507  0.3066015996029  0.7100776081343 1.0
C      1  0.5864153562630  0.4856780018447  0.7903893315481 1.0
C      1  0.5803893252846  0.6744416049149  0.7266928467711 1.0
C      1  0.5470577878579  0.4958082079807  0.6405644974786 1.0
C      1  0.5005368893580  0.5739133033390  0.6130278116664 1.0
C      1  0.5337905223463  0.6290175458214  0.5388650228378 1.0
C      1  0.5034172781168  0.6167125138517  0.4472622714112 1.0
C      1  0.5483371954181  0.5604095431597  0.3823270294632 1.0
C      1  0.5018290586895  0.4760681392551  0.3767060301970 1.0
C      1  0.5284219072015  0.3964250313574  0.4247466562404 1.0
C      1  0.4983740620407  0.3795032867417  0.5159761904363 1.0
C      1  0.5443692356400  0.4068846017109  0.5960740626865 1.0
C      1  0.7464586800645  0.4242658727147  0.4657983411505 1.0
END
