TITL C-29123-7884-118 -2.334 3375.00 -382.02897138 0 0 47 (C1) n - 1
REM
REM Run started: at 2020.12.20 17:10:46 in /gpfs/home/chem/mssmkc/CARBON/AIRSS/Generating-Clusters/Str-Search/Higher-Symm/C4-100
REM VASP from code version vasp.5.4.4.18Apr17-6-g9f103f2a35 (build Oct 11 2019 16:45:47) gamma-only
REM
REM
REM
REM
REM ./C.cell (6bd13a13d554368a30d355f37ece5b26)
REM AIRSS Version 0.9.1 bugfix July 2018 build 013d7b7c2542+ Fri, 06 Jul 2018 19:26:36 +0100
REM compiler GCC version 6.3.0
REM options -cpp -iprefix /gpfs/warwick/csc/orac/software/Core/GCCcore/6.3.0/bin/../lib/gcc/x86_64-pc-linux-gnu/6.3.0/ -mtune=generic -march=x86-64 -g -O0
REM seed -1269409512 -1775896011 687304408 1825489390 -1545053751 1247518954 -1345351646 1827998127 1023753337 -747269627 -1770429780 185370875
REM
REM C.POTCAR (d86ddea03c3ceb6dc662c8ad6801f873)
REM 
CELL 1.54180   15.00000   15.00000   15.00000   90.00000   90.00000   90.00000
LATT -1
SFAC C  
C      1  0.3312697727504  0.5480603361864  0.4494043797172 1.0
C      1  0.5176289891697  0.2976120449411  0.3993472099216 1.0
C      1  0.6556064032716  0.5963868849873  0.4420595910021 1.0
C      1  0.3397345027776  0.3983212299268  0.4218410557760 1.0
C      1  0.6451974594697  0.3810375223596  0.4390133818234 1.0
C      1  0.5352443909601  0.7008043245260  0.4252051994622 1.0
C      1  0.3236033110307  0.6252866570501  0.5079983629867 1.0
C      1  0.4554416654883  0.2860033453875  0.4707239339301 1.0
C      1  0.7046344248362  0.5343594795501  0.4964239036288 1.0
C      1  0.5838984389283  0.4043461069258  0.7160362256093 1.0
C      1  0.5767105121167  0.6289103030082  0.6420263005805 1.0
C      1  0.3599565241004  0.4947301817739  0.6820290510827 1.0
C      1  0.4628288944413  0.4202879108838  0.2988742754288 1.0
C      1  0.5974718546360  0.4971037143568  0.3175087015056 1.0
C      1  0.4525517073001  0.5857249990811  0.3195095599484 1.0
C      1  0.2858652834385  0.4655676840420  0.4648036892355 1.0
C      1  0.5918601993368  0.3046205839560  0.4640925329557 1.0
C      1  0.6088778576216  0.6722016652125  0.4812888820841 1.0
C      1  0.5432769987964  0.3214588486594  0.6984242292499 1.0
C      1  0.6719573831585  0.6137946465273  0.6423211196753 1.0
C      1  0.2946511765523  0.5628264578008  0.6624180065452 1.0
C      1  0.3904914429147  0.6853895530745  0.5120553945533 1.0
C      1  0.3749992159046  0.3335260443077  0.4842886043575 1.0
C      1  0.6943053285537  0.4382808322488  0.5003499603113 1.0
C      1  0.3862269445283  0.5364610911982  0.3717156442002 1.0
C      1  0.5275657190837  0.3594923482694  0.3308735440843 1.0
C      1  0.6099633045999  0.5800647808288  0.3610240241482 1.0
C      1  0.4464541973065  0.5180223624536  0.7102164195729 1.0
C      1  0.5327191748393  0.4832493833715  0.7279969070363 1.0
C      1  0.5247212463958  0.5718830408203  0.6979260525362 1.0
C      1  0.6090015387779  0.4105446680187  0.3529069154223 1.0
C      1  0.5310367379167  0.6381055615733  0.3553435492991 1.0
C      1  0.3863063669334  0.4413642336911  0.3495176320126 1.0
C      1  0.5543612166252  0.6743191064487  0.5615057085329 1.0
C      1  0.3498584302016  0.4137504646971  0.6355666683604 1.0
C      1  0.6621817780290  0.4100494908641  0.6641135683392 1.0
C      1  0.3487911513229  0.3602706810129  0.5722872359384 1.0
C      1  0.6990876768601  0.4096470192180  0.5903107020282 1.0
C      1  0.4763654686573  0.7035920895591  0.5065988329128 1.0
C      1  0.2328987016167  0.6333444948506  0.6746943544781 1.0
C      1  0.5336175458352  0.2803587859604  0.6260342614379 1.0
C      1  0.7650882201782  0.6112339205450  0.6598141676127 1.0
C      1  0.7279914538839  0.5759850866427  0.5796225878008 1.0
C      1  0.2747956811143  0.6168084714601  0.5906007824250 1.0
C      1  0.5310979480392  0.2756077439103  0.5360119457953 1.0
C      1  0.5109490294555  0.5023174356597  0.2706461416603 1.0
C      1  0.4768570302450  0.5831442821728  0.2248865029945 1.0
END
