TITL C-29086-3345-38 -3.966 3375.00 -718.54324550 0 0 85 (C1) n - 1
REM
REM Run started: at 2020.12.19 23:34:54 in /gpfs/home/chem/mssmkc/CARBON/AIRSS/Generating-Clusters/Str-Search/Higher-Symm/C4-100
REM VASP from code version vasp.5.4.4.18Apr17-6-g9f103f2a35 (build Oct 11 2019 16:45:47) gamma-only
REM
REM
REM
REM
REM ./C.cell (6bd13a13d554368a30d355f37ece5b26)
REM AIRSS Version 0.9.1 bugfix July 2018 build 013d7b7c2542+ Fri, 06 Jul 2018 19:26:36 +0100
REM compiler GCC version 6.3.0
REM options -cpp -iprefix /gpfs/warwick/csc/orac/software/Core/GCCcore/6.3.0/bin/../lib/gcc/x86_64-pc-linux-gnu/6.3.0/ -mtune=generic -march=x86-64 -g -O0
REM seed 1227769158 -535581500 1939962780 1480722806 1779381570 1458308307 -1335324908 -356057327 1568622731 -992444773 50949051 -1237190612
REM
REM C.POTCAR (d86ddea03c3ceb6dc662c8ad6801f873)
REM 
CELL 1.54180   15.00000   15.00000   15.00000   90.00000   90.00000   90.00000
LATT -1
SFAC C  
C      1  0.4679132366396  0.6687976136927  0.5389886556152 1.0
C      1  0.3303445176994  0.5223490345201  0.5380445296367 1.0
C      1  0.4270294869904  0.3436927168357  0.5391568191196 1.0
C      1  0.6247179818171  0.3813369957558  0.5385076508957 1.0
C      1  0.6505833986054  0.5821894231290  0.5380347543443 1.0
C      1  0.5310833645362  0.6687234899912  0.4633996515736 1.0
C      1  0.6704260021654  0.5214279666143  0.4635215897789 1.0
C      1  0.5733856799343  0.3440103638882  0.4630119557538 1.0
C      1  0.3757654720381  0.3820077104516  0.4643204821369 1.0
C      1  0.3493510877450  0.5832371839059  0.4630460668251 1.0
C      1  0.3584405577264  0.3207884037300  0.6087507949270 1.0
C      1  0.6262710335376  0.3092932187164  0.6085527143791 1.0
C      1  0.7191431466340  0.5609271904231  0.6079402200188 1.0
C      1  0.5097153142102  0.7283731377189  0.6082600585490 1.0
C      1  0.2871469375433  0.5798243280716  0.6080405725367 1.0
C      1  0.6417741859282  0.3206669423369  0.3931620992507 1.0
C      1  0.3745932011034  0.3105218913275  0.3939685611862 1.0
C      1  0.2799749603695  0.5618825868302  0.3937787795023 1.0
C      1  0.4896886206638  0.7282536589591  0.3937885911045 1.0
C      1  0.7131516305301  0.5792916730388  0.3936245479823 1.0
C      1  0.4306012796140  0.5457173906430  0.7873916541037 1.0
C      1  0.4357474937805  0.4481179773176  0.7875472014854 1.0
C      1  0.5300080466072  0.4223420244778  0.7876952033213 1.0
C      1  0.5830169855092  0.5041978133473  0.7874557946660 1.0
C      1  0.5217400290893  0.5804097741955  0.7873681655555 1.0
C      1  0.5691532519859  0.5456171610721  0.2146126651997 1.0
C      1  0.5642845600367  0.4479536370865  0.2144311537319 1.0
C      1  0.4700934447994  0.4225720263014  0.2144193616447 1.0
C      1  0.4168961015708  0.5045162638234  0.2145811456893 1.0
C      1  0.4781011458975  0.5805972860024  0.2146510701070 1.0
C      1  0.5157327740409  0.5788632411160  0.4219469891545 1.0
C      1  0.4319464900358  0.5428008778527  0.4223618282733 1.0
C      1  0.4420244339444  0.4473910473077  0.4269074298516 1.0
C      1  0.5319008289209  0.4253254882549  0.4211180795547 1.0
C      1  0.5778311937993  0.5061479126147  0.4272988638188 1.0
C      1  0.4820072346659  0.5786525352270  0.5809366871066 1.0
C      1  0.5668328863584  0.5399701754864  0.5742356576879 1.0
C      1  0.5595124498739  0.4449333173706  0.5801176776988 1.0
C      1  0.4703549679312  0.4251453154721  0.5791538839579 1.0
C      1  0.4222433453483  0.5084317681470  0.5757248586029 1.0
C      1  0.7364918852712  0.4685568886756  0.6021837467199 1.0
C      1  0.6027776594611  0.7159806612390  0.6018460125194 1.0
C      1  0.3268208739458  0.6649768885842  0.6023423387936 1.0
C      1  0.2907454139059  0.3860251092054  0.6024387041185 1.0
C      1  0.5440480887289  0.2640590472260  0.6028806407628 1.0
C      1  0.2635566148203  0.4693095152754  0.4000512754363 1.0
C      1  0.3965859236264  0.7166795597120  0.3997876552770 1.0
C      1  0.6726689952660  0.6641632299228  0.3997498915612 1.0
C      1  0.7098259627325  0.3853749174750  0.3993783119813 1.0
C      1  0.4565321752835  0.2647168199324  0.3993768862751 1.0
C      1  0.6644510174768  0.5103843072537  0.7411257998119 1.0
C      1  0.5407865495309  0.6600563631116  0.7412148759385 1.0
C      1  0.3607451019128  0.5889533002720  0.7415379720158 1.0
C      1  0.3737605074972  0.3948815570809  0.7413373358038 1.0
C      1  0.5612892209994  0.3461366655445  0.7420488191198 1.0
C      1  0.3355669467251  0.5111906802198  0.2609750357285 1.0
C      1  0.4586095838140  0.6605441329134  0.2603981742913 1.0
C      1  0.6387834081437  0.5884366044922  0.2607668861933 1.0
C      1  0.6265541613850  0.3943883037829  0.2602399618916 1.0
C      1  0.4391732452585  0.3465357009135  0.2603361048359 1.0
C      1  0.2971477206291  0.5335482945385  0.6929139058142 1.0
C      1  0.4058364781273  0.3160856262442  0.6936331654529 1.0
C      1  0.6455272918419  0.3529272461214  0.6936813687482 1.0
C      1  0.6836708200930  0.5925388949319  0.6924704571769 1.0
C      1  0.4685640534188  0.7049139004044  0.6935266758134 1.0
C      1  0.7028137718316  0.5330256981068  0.3090101240612 1.0
C      1  0.5945642214480  0.3156015859080  0.3079370462168 1.0
C      1  0.3555137015645  0.3541420168611  0.3093071237323 1.0
C      1  0.3152460667947  0.5936802215055  0.3088089120778 1.0
C      1  0.5308746906470  0.7045686271703  0.3086062286303 1.0
C      1  0.3041101330527  0.4340956972847  0.3148884017440 1.0
C      1  0.5025672250986  0.2915057426870  0.3133854162705 1.0
C      1  0.6976148659420  0.4380198182850  0.3141865085673 1.0
C      1  0.6194707046976  0.6698294750037  0.3141632593979 1.0
C      1  0.3752169750028  0.6675778745797  0.3139520707055 1.0
C      1  0.6967369346042  0.4330671929738  0.6879342374627 1.0
C      1  0.4978346216122  0.2915941778532  0.6884817214489 1.0
C      1  0.3027273455359  0.4386028793852  0.6874934884440 1.0
C      1  0.3797975181938  0.6706050358016  0.6882656281386 1.0
C      1  0.6237596768844  0.6663554157903  0.6870873251092 1.0
C      1  0.7039627157786  0.4331602816060  0.5011213941931 1.0
C      1  0.2965546427727  0.4338929620946  0.5012468489203 1.0
C      1  0.6257397486156  0.6734062042610  0.5004201177991 1.0
C      1  0.3736621572773  0.6742203741024  0.5012790220969 1.0
C      1  0.5001838225233  0.2843857406147  0.5008451565745 1.0
END
