TITL C-29086-3345-18 -0.18 3375.00 -24.37748528 0 0 4 (D2h) n - 1
REM
REM Run started: at 2020.12.19 19:16:31 in /gpfs/home/chem/mssmkc/CARBON/AIRSS/Generating-Clusters/Str-Search/Higher-Symm/C4-100
REM VASP from code version vasp.5.4.4.18Apr17-6-g9f103f2a35 (build Oct 11 2019 16:45:47) gamma-only
REM
REM
REM
REM
REM ./C.cell (6bd13a13d554368a30d355f37ece5b26)
REM AIRSS Version 0.9.1 bugfix July 2018 build 013d7b7c2542+ Fri, 06 Jul 2018 19:26:36 +0100
REM compiler GCC version 6.3.0
REM options -cpp -iprefix /gpfs/warwick/csc/orac/software/Core/GCCcore/6.3.0/bin/../lib/gcc/x86_64-pc-linux-gnu/6.3.0/ -mtune=generic -march=x86-64 -g -O0
REM seed -883538032 556165136 1098365775 -630946253 -877990658 1154084132 -1167709805 -1785952181 883254949 -2125896425 -1223677782 1961844200
REM
REM C.POTCAR (d86ddea03c3ceb6dc662c8ad6801f873)
REM 
CELL 1.54180   15.00000   15.00000   15.00000   90.00000   90.00000   90.00000
LATT -1
SFAC C  
C      1  0.4678540521755  0.5313290204963  0.4465994309939 1.0
C      1  0.5321460094308  0.4686709287364  0.4465994219702 1.0
C      1  0.4678539918566  0.5313290783917  0.5534005420712 1.0
C      1  0.5321459465371  0.4686709723757  0.5534006049647 1.0
END
