TITL C-29123-7884-21 -3.435 3375.00 -593.71078618 0 0 73 (C3) n - 1
REM
REM Run started: at 2020.12.19 20:48:49 in /gpfs/home/chem/mssmkc/CARBON/AIRSS/Generating-Clusters/Str-Search/Higher-Symm/C4-100
REM VASP from code version vasp.5.4.4.18Apr17-6-g9f103f2a35 (build Oct 11 2019 16:45:47) gamma-only
REM
REM
REM
REM
REM ./C.cell (6bd13a13d554368a30d355f37ece5b26)
REM AIRSS Version 0.9.1 bugfix July 2018 build 013d7b7c2542+ Fri, 06 Jul 2018 19:26:36 +0100
REM compiler GCC version 6.3.0
REM options -cpp -iprefix /gpfs/warwick/csc/orac/software/Core/GCCcore/6.3.0/bin/../lib/gcc/x86_64-pc-linux-gnu/6.3.0/ -mtune=generic -march=x86-64 -g -O0
REM seed -224322863 1389330673 1450131939 -418023430 753698222 175420564 -986125327 886738979 -831795421 1313896677 686363073 -32049890
REM
REM C.POTCAR (d86ddea03c3ceb6dc662c8ad6801f873)
REM 
CELL 1.54180   15.00000   15.00000   15.00000   90.00000   90.00000   90.00000
LATT -1
SFAC C  
C      1  0.3677171506997  0.3499501125302  0.6220857769737 1.0
C      1  0.3584529916703  0.5290285590949  0.7000881419865 1.0
C      1  0.3685403322582  0.6786239000838  0.5702179098435 1.0
C      1  0.3589137950790  0.6568678581416  0.3761471113460 1.0
C      1  0.3683111543875  0.4695102114074  0.3115047489777 1.0
C      1  0.3582837874002  0.3125966523206  0.4273058164083 1.0
C      1  0.5013021285961  0.6552899863755  0.2813843375911 1.0
C      1  0.4971882278786  0.3703964409095  0.2659924859457 1.0
C      1  0.5004467797715  0.2311343194234  0.4761257372222 1.0
C      1  0.4968630639145  0.3599202394224  0.7303415631286 1.0
C      1  0.5010539817646  0.6114342236396  0.7463740917588 1.0
C      1  0.4977372835456  0.7671760483824  0.5072705755410 1.0
C      1  0.6362179751407  0.3559843251340  0.6339362156822 1.0
C      1  0.6029755043051  0.5184341874465  0.6659520847665 1.0
C      1  0.6368109501454  0.6854289417971  0.5589067273153 1.0
C      1  0.6034113747398  0.6320081071829  0.4020047399743 1.0
C      1  0.6365983413965  0.4554616799780  0.3109074810434 1.0
C      1  0.6030250000017  0.3465181568004  0.4357397626540 1.0
C      1  0.2067049433696  0.5887148079154  0.5353869430101 1.0
C      1  0.2064415616941  0.5738215256631  0.4412886840496 1.0
C      1  0.2066067448069  0.4851192185863  0.4067795488960 1.0
C      1  0.2061219858216  0.4110960921254  0.4667923809462 1.0
C      1  0.2063481157519  0.4252985306817  0.5608893806446 1.0
C      1  0.2062956915980  0.5143536612445  0.5947882541978 1.0
C      1  0.4909840506774  0.2934241266658  0.3266624635825 1.0
C      1  0.5194476382067  0.2724972396030  0.5846552049598 1.0
C      1  0.4909805677028  0.4509279202211  0.7668702128638 1.0
C      1  0.5201801904946  0.6847664785514  0.6558665704407 1.0
C      1  0.4916946930674  0.7533060612032  0.4102435001326 1.0
C      1  0.5201927262229  0.5401111912362  0.2631744312845 1.0
C      1  0.5917883474687  0.5399402760093  0.3426056764013 1.0
C      1  0.6740092232214  0.3991482603851  0.3845325048274 1.0
C      1  0.5912972661460  0.3413917209004  0.5450519214146 1.0
C      1  0.6738517212532  0.4478274494489  0.6458837275282 1.0
C      1  0.5916303983589  0.6158187935772  0.6159327564715 1.0
C      1  0.6742773092864  0.6498672873935  0.4732565069940 1.0
C      1  0.7450819824446  0.4699312529503  0.5937749282496 1.0
C      1  0.7912060782398  0.5470998786992  0.5530678283453 1.0
C      1  0.7453736731136  0.5934590185269  0.4800534872219 1.0
C      1  0.7911843572695  0.5193780984355  0.4336355402938 1.0
C      1  0.7451863146151  0.4331387987229  0.4299321473959 1.0
C      1  0.7910318611849  0.4297480500391  0.5172042707217 1.0
C      1  0.5612965252642  0.7411554279705  0.5758398184657 1.0
C      1  0.5456989085306  0.6979146851846  0.3523837810831 1.0
C      1  0.5610512240587  0.4424297090225  0.2541364752472 1.0
C      1  0.5450124864720  0.2707860468013  0.4035864922994 1.0
C      1  0.5605456353156  0.3135148292700  0.6735647897029 1.0
C      1  0.5453018906917  0.5286043934872  0.7479133116546 1.0
C      1  0.3083109627401  0.3953932076656  0.4612634744756 1.0
C      1  0.3093578528190  0.4132469729289  0.5698687931252 1.0
C      1  0.3084611360658  0.5170671078544  0.6112570077104 1.0
C      1  0.3097988253411  0.6021237053453  0.5414421721720 1.0
C      1  0.3086759959847  0.5861593207892  0.4308216547824 1.0
C      1  0.3096451892090  0.4831677572372  0.3921125432532 1.0
C      1  0.4018653103547  0.3879823922134  0.2866354458117 1.0
C      1  0.4079851617535  0.2587164730066  0.4888514519800 1.0
C      1  0.4015557844330  0.3693800705105  0.7049835749268 1.0
C      1  0.4085359254863  0.6090629712509  0.7160663934372 1.0
C      1  0.4023499664894  0.7408181122427  0.5120619614169 1.0
C      1  0.4087924195310  0.6304132591172  0.2987858725227 1.0
C      1  0.4210622686225  0.2870352685411  0.5756875793998 1.0
C      1  0.3944131762601  0.4566571990563  0.7449461994684 1.0
C      1  0.4218142326273  0.6698290043750  0.6479582057475 1.0
C      1  0.3951437665736  0.7317366999615  0.4164685978525 1.0
C      1  0.4218379135817  0.5410311692083  0.2802573680629 1.0
C      1  0.3945306834500  0.3098568220429  0.3423841926626 1.0
C      1  0.5310945598601  0.4902872283958  0.5945707886193 1.0
C      1  0.5330945415105  0.5717401372257  0.5522293101147 1.0
C      1  0.5314233045123  0.5844107793724  0.4620885774814 1.0
C      1  0.5331889983310  0.5070015975769  0.4126753526212 1.0
C      1  0.5312929630269  0.4226252903086  0.4467399885732 1.0
C      1  0.5329091457660  0.4186260267590  0.5384599293404 1.0
C      1  0.8691572806264  0.4986956464225  0.5012496169567 1.0
END
