TITL C-29736-5025-3 -5.377 3375.00 -965.22998464 0 0 119 (C1) n - 1
REM
REM Run started: at 2020.12.27 15:36:41 in /rds/project/t2_vol4/rds-t2-cs072/BORA/CARBON/AIRSS/Generating-Clusters/Str-Search/Higher-Symm/C100-200
REM VASP from code version vasp.5.4.4.18Apr17-6-g9f103f2a35 (build Oct 11 2019 16:45:47) gamma-only
REM
REM
REM
REM
REM ./C.cell (533062f00bc710175b3da973d35f2034)
REM AIRSS Version 0.9.1 bugfix July 2018 build 013d7b7c2542+ Fri, 06 Jul 2018 19:26:36 +0100
REM compiler GCC version 4.8.5 20150623 (Red Hat 4.8.5-39)
REM options -cpp -mtune=generic -march=x86-64 -g -O0
REM seed -1763994066 -268828964 -1292131986 -472942410 -1528000114 1092760159 902303045 -1862430867 -779347847 1337070994 -1597852835 1604529599
REM
REM C.POTCAR (d86ddea03c3ceb6dc662c8ad6801f873)
REM 
CELL 1.54180   15.00000   15.00000   15.00000   90.00000   90.00000   90.00000
LATT -1
SFAC C  
C      1  0.3313003825416  0.7573611611200  0.5452898492714 1.0
C      1  0.7349096958849  0.8576830895193  0.5168697251450 1.0
C      1  0.3415241915227  0.1669867572905  0.5580451206606 1.0
C      1  0.7320569480033  0.1543564387220  0.5111685569359 1.0
C      1  0.3255878368827  0.7527004631023  0.4494712987917 1.0
C      1  0.6648744140397  0.8595662172193  0.5716503944118 1.0
C      1  0.2868900549979  0.1847062420230  0.4971287223922 1.0
C      1  0.6636545070343  0.1471999039672  0.5681280687514 1.0
C      1  0.6185861317675  0.4563940583315  0.1931848890965 1.0
C      1  0.3856503833752  0.4587375825374  0.7997991247797 1.0
C      1  0.6186935800735  0.5509892037878  0.1953820205160 1.0
C      1  0.3850076760949  0.5529711613255  0.8044657173566 1.0
C      1  0.6235681889244  0.4558763808685  0.8011284045511 1.0
C      1  0.3764283857887  0.4574904864915  0.1875909719835 1.0
C      1  0.6225999272147  0.5489609015758  0.8007804491744 1.0
C      1  0.3774697879942  0.5511590691708  0.1899399369612 1.0
C      1  0.6930833802244  0.6578876472308  0.6905599043039 1.0
C      1  0.3069739763671  0.6561309276975  0.3067200289510 1.0
C      1  0.6930713737819  0.3454027946471  0.6910053527593 1.0
C      1  0.3051342210471  0.3521089246153  0.3011059412604 1.0
C      1  0.6824208989661  0.6541160249646  0.3191257350394 1.0
C      1  0.3125495514033  0.6664152760887  0.6924447531244 1.0
C      1  0.6775635482168  0.3522116404652  0.3183999669573 1.0
C      1  0.3251695323937  0.3662879253058  0.6694727572050 1.0
C      1  0.6092663301543  0.8008972002180  0.6108327440744 1.0
C      1  0.4082692908189  0.7805495538872  0.4134782257065 1.0
C      1  0.6073872827190  0.2028914818958  0.6099247527451 1.0
C      1  0.4066244774425  0.2246738179364  0.4019694371268 1.0
C      1  0.5595867541006  0.7645597796335  0.4367631215602 1.0
C      1  0.4243215076048  0.7758525808267  0.5688134602087 1.0
C      1  0.5564755452015  0.2371636640599  0.4262331064987 1.0
C      1  0.4213188740851  0.2303362277702  0.5615420338909 1.0
C      1  0.3160905030146  0.4484392670521  0.2696962528642 1.0
C      1  0.6870496152365  0.4445865508789  0.7216391635529 1.0
C      1  0.3153647658925  0.5596025020363  0.2708603597131 1.0
C      1  0.6853576342640  0.5597510608490  0.7212309475366 1.0
C      1  0.3272598234431  0.4562530637766  0.7162228864589 1.0
C      1  0.6754535500641  0.4468206421784  0.2776946752545 1.0
C      1  0.3220516406132  0.5666098655227  0.7254003790180 1.0
C      1  0.6771939723726  0.5581764787247  0.2786205359008 1.0
C      1  0.2173458763905  0.3887576822798  0.4396614406462 1.0
C      1  0.7816428967400  0.3733147796809  0.5520392645308 1.0
C      1  0.1947688187940  0.6481931270079  0.4502492863582 1.0
C      1  0.7890695874240  0.6345216420537  0.5534189798780 1.0
C      1  0.2276820451833  0.3927860470371  0.5363203736671 1.0
C      1  0.7715470882799  0.3759977102115  0.4540788268279 1.0
C      1  0.1952761654825  0.6511586247416  0.5498953040888 1.0
C      1  0.7818323041245  0.6344274915121  0.4540547016462 1.0
C      1  0.4277222501600  0.4651519954040  0.6706431232814 1.0
C      1  0.5771220912437  0.4513651989462  0.3162330789437 1.0
C      1  0.4155706067273  0.5637136438061  0.6819178169916 1.0
C      1  0.5813729886138  0.5508759220033  0.3196877049606 1.0
C      1  0.4122667686340  0.4514156851250  0.3149173661704 1.0
C      1  0.5949145164951  0.4498841832863  0.6735327007289 1.0
C      1  0.4109034685445  0.5512418677533  0.3134213905116 1.0
C      1  0.5926445369567  0.5512323888752  0.6730958117781 1.0
C      1  0.4524736184777  0.6181635006777  0.7596182505866 1.0
C      1  0.5476007467147  0.6118463709331  0.2422183730578 1.0
C      1  0.4559939314510  0.4021964006995  0.7490840511402 1.0
C      1  0.5463516923972  0.3946095110796  0.2357829111787 1.0
C      1  0.4458978730029  0.6117989878579  0.2382188502491 1.0
C      1  0.5539528762525  0.6101949345797  0.7537367481357 1.0
C      1  0.4447251294511  0.3950703305923  0.2332693358078 1.0
C      1  0.5557302966347  0.3964529729470  0.7537273606005 1.0
C      1  0.6728505379368  0.2553523645199  0.5527744530210 1.0
C      1  0.3231091430691  0.2630415111997  0.4411417067952 1.0
C      1  0.6796092316118  0.7514774996978  0.5565160785118 1.0
C      1  0.3374109996548  0.6021980002904  0.4543529265731 1.0
C      1  0.6272271410286  0.2951180544788  0.4691344808079 1.0
C      1  0.3708990046822  0.3139706067674  0.5214268485507 1.0
C      1  0.6390295320160  0.7112602115973  0.4714746655894 1.0
C      1  0.3414670958058  0.6136671288744  0.5456216277966 1.0
C      1  0.5803287065291  0.5548371964862  0.5738891807479 1.0
C      1  0.4145929780608  0.5596671468084  0.4124361036457 1.0
C      1  0.5703580965655  0.4420179689251  0.5761189389214 1.0
C      1  0.4424256499143  0.4487152711829  0.4134052846350 1.0
C      1  0.5750454408644  0.5468030889764  0.4189666752265 1.0
C      1  0.4159869079368  0.5943793984870  0.5918894006783 1.0
C      1  0.5490422574676  0.4471884656220  0.4133615356638 1.0
C      1  0.4671387827021  0.4517312617839  0.5755347953080 1.0
C      1  0.4562359540090  0.7545659550933  0.6580955326593 1.0
C      1  0.5396462817210  0.7447604238010  0.3437823809414 1.0
C      1  0.4591041148733  0.2612997741805  0.6518486444143 1.0
C      1  0.5386360025711  0.2578651941680  0.3325461334783 1.0
C      1  0.4429986208037  0.7505978516667  0.3315746768470 1.0
C      1  0.5527991676336  0.7562665943533  0.6711486758737 1.0
C      1  0.4413597928986  0.2527938323141  0.3198884838514 1.0
C      1  0.5530471402098  0.2499666448599  0.6706226656711 1.0
C      1  0.2799365797077  0.6739507628149  0.4034989704044 1.0
C      1  0.7333036219208  0.6856212796337  0.6091853750779 1.0
C      1  0.2711668317014  0.3313163335815  0.3861053011963 1.0
C      1  0.7274413065737  0.3199744133929  0.6066964194126 1.0
C      1  0.2814385649027  0.6824374350698  0.5954127075599 1.0
C      1  0.7113508196617  0.6753402462734  0.4060009356863 1.0
C      1  0.2989699979062  0.3536504552968  0.5813299885645 1.0
C      1  0.7000076652902  0.3350075853757  0.4074455280361 1.0
C      1  0.3992545767121  0.7000297964694  0.7172008285706 1.0
C      1  0.5945598421813  0.6878098332216  0.2921057234795 1.0
C      1  0.4091240257016  0.3255963730995  0.6990785773104 1.0
C      1  0.5927094095476  0.3165948228091  0.2841092684736 1.0
C      1  0.3923190419446  0.6902417587755  0.2789321115480 1.0
C      1  0.6038102576306  0.6889165230075  0.7162451411737 1.0
C      1  0.3920848371305  0.3160817982631  0.2708671069907 1.0
C      1  0.6040520207826  0.3148417820284  0.7183711348500 1.0
C      1  0.8312675817825  0.5509443448421  0.4500682565580 1.0
C      1  0.1544859026218  0.5633847795426  0.5488713364139 1.0
C      1  0.8270652702054  0.4555188252627  0.4493382290712 1.0
C      1  0.1644365811205  0.4685440866296  0.5444553424764 1.0
C      1  0.8379169617228  0.5500097934844  0.5494566868852 1.0
C      1  0.1482216715831  0.5640721998202  0.4484628123945 1.0
C      1  0.8338050147836  0.4551300712857  0.5489661580721 1.0
C      1  0.1588031668581  0.4693683578556  0.4457183223867 1.0
C      1  0.5623439376210  0.3803585774655  0.4910616384360 1.0
C      1  0.4973110550318  0.5872464996966  0.4597479687735 1.0
C      1  0.4435073161914  0.3872440436421  0.4988317008922 1.0
C      1  0.5951032446812  0.6155821459013  0.4908511960682 1.0
C      1  0.4744744457988  0.2128401307466  0.4689247817854 1.0
C      1  0.4764422615753  0.7868099444635  0.4822505996838 1.0
C      1  0.4844884928178  0.5482449397101  0.5480553313032 1.0
END
