TITL C-29086-3345-214 -3.888 3375.00 -688.78765185 0 0 82 (C1) n - 1
REM
REM Run started: at 2020.12.21 08:11:56 in /gpfs/home/chem/mssmkc/CARBON/AIRSS/Generating-Clusters/Str-Search/Higher-Symm/C4-100
REM VASP from code version vasp.5.4.4.18Apr17-6-g9f103f2a35 (build Oct 11 2019 16:45:47) gamma-only
REM
REM
REM
REM
REM ./C.cell (6bd13a13d554368a30d355f37ece5b26)
REM AIRSS Version 0.9.1 bugfix July 2018 build 013d7b7c2542+ Fri, 06 Jul 2018 19:26:36 +0100
REM compiler GCC version 6.3.0
REM options -cpp -iprefix /gpfs/warwick/csc/orac/software/Core/GCCcore/6.3.0/bin/../lib/gcc/x86_64-pc-linux-gnu/6.3.0/ -mtune=generic -march=x86-64 -g -O0
REM seed -2112932009 -613359109 -1803853972 -1163068351 524512276 -520808513 -283033717 -1468309212 1604630872 -421496693 -652157886 749589247
REM
REM C.POTCAR (d86ddea03c3ceb6dc662c8ad6801f873)
REM 
CELL 1.54180   15.00000   15.00000   15.00000   90.00000   90.00000   90.00000
LATT -1
SFAC C  
C      1  0.7431689104412  0.6171861372291  0.5579125350564 1.0
C      1  0.7727679648065  0.4540956460833  0.5537068419927 1.0
C      1  0.6782744786592  0.3199379830124  0.5815143878973 1.0
C      1  0.4407183195713  0.2409331970535  0.5383424726001 1.0
C      1  0.2866712468841  0.3016052783393  0.5504765750039 1.0
C      1  0.2240432789312  0.4575705011315  0.5671259361077 1.0
C      1  0.2911333296390  0.6135130115926  0.5918161848050 1.0
C      1  0.4478657106796  0.7794478152364  0.5691406634220 1.0
C      1  0.6158171167662  0.7296299980572  0.5686061742915 1.0
C      1  0.3961611240179  0.6943130470530  0.3444264048479 1.0
C      1  0.4872420309140  0.7216216909934  0.3384544692465 1.0
C      1  0.6646348900958  0.6344889059824  0.3274224285419 1.0
C      1  0.7080069990357  0.5505562684181  0.3256857725701 1.0
C      1  0.6430420936217  0.3645989380602  0.3452539416043 1.0
C      1  0.5636100415830  0.3005639486449  0.3221526309919 1.0
C      1  0.3930743842356  0.3571687636085  0.3587898535828 1.0
C      1  0.3167088054179  0.4246407979284  0.3501924257428 1.0
C      1  0.3291211187399  0.5227385283913  0.3741426422257 1.0
C      1  0.5302115230072  0.3678158553119  0.2615640432856 1.0
C      1  0.4370906328779  0.3847169434692  0.2709035476837 1.0
C      1  0.3709434751934  0.4515088842544  0.2601145575869 1.0
C      1  0.3673060306247  0.5458428154408  0.2828217431552 1.0
C      1  0.4134372795621  0.6241466661326  0.2771073677888 1.0
C      1  0.5093828404413  0.6507207892176  0.2702250828961 1.0
C      1  0.5911240609697  0.6073304284442  0.2674567739738 1.0
C      1  0.6355460213947  0.5147262379087  0.2665127726750 1.0
C      1  0.6103762970269  0.4261574488754  0.2699681046196 1.0
C      1  0.7393910488075  0.6119666081302  0.4647047326864 1.0
C      1  0.7622049388058  0.4493074179277  0.4585502352096 1.0
C      1  0.6896361299132  0.2952877943465  0.4898563734371 1.0
C      1  0.4333629865742  0.2280985120453  0.4367274738942 1.0
C      1  0.2839860077111  0.3096170243714  0.4552700423002 1.0
C      1  0.2263713718543  0.4706070761196  0.4738274560055 1.0
C      1  0.2862766042489  0.6315912305918  0.4935781568510 1.0
C      1  0.4340711985173  0.7598073636505  0.4824757815710 1.0
C      1  0.6137353642694  0.7345841605457  0.4726974275140 1.0
C      1  0.7272540555146  0.3922450304945  0.6142754123073 1.0
C      1  0.5898759867470  0.2988801379734  0.6207456919323 1.0
C      1  0.3706792305962  0.2724169549871  0.5935512569374 1.0
C      1  0.2491452263770  0.3717197956992  0.6020515031378 1.0
C      1  0.2623123095285  0.5270710280481  0.6233409912042 1.0
C      1  0.3538760251427  0.6595665089271  0.6536789140069 1.0
C      1  0.5357831607387  0.7621349288047  0.6120205518591 1.0
C      1  0.6736948186354  0.6632648905295  0.6116809523127 1.0
C      1  0.7703446996162  0.5382259597333  0.6008553629066 1.0
C      1  0.5568110530572  0.3445471127766  0.6972411117773 1.0
C      1  0.3834270864698  0.3308328219511  0.6739978843080 1.0
C      1  0.3052233719031  0.3866819428365  0.6784782694386 1.0
C      1  0.3095313902926  0.4794304194768  0.6948442185047 1.0
C      1  0.4026780025675  0.7394586177771  0.6463662589549 1.0
C      1  0.4908653967647  0.7268668943093  0.6875815483585 1.0
C      1  0.6559633738991  0.6041333502148  0.6879534617686 1.0
C      1  0.7184792841003  0.5313038690322  0.6814995844910 1.0
C      1  0.6934960521442  0.4405037519042  0.6913255933056 1.0
C      1  0.5394272259299  0.3266850350220  0.4654489348966 1.0
C      1  0.4528890078414  0.3855710442800  0.4425079092603 1.0
C      1  0.4171660466360  0.4444531123884  0.5137301455019 1.0
C      1  0.4056179476048  0.5220756825449  0.4479603500437 1.0
C      1  0.4286192833811  0.6113690611014  0.4664621278387 1.0
C      1  0.5145916324097  0.6346060967510  0.4595287104957 1.0
C      1  0.5915637731368  0.5837298863286  0.4502749770554 1.0
C      1  0.5788657876920  0.4909151436506  0.4452574948495 1.0
C      1  0.6113628943214  0.3971438742936  0.4372999683249 1.0
C      1  0.4950577769174  0.6399460369079  0.7266148443327 1.0
C      1  0.5709657230201  0.5829530468200  0.7333974062419 1.0
C      1  0.5510173540627  0.4908431431167  0.7522364032913 1.0
C      1  0.6099471248063  0.4190142404054  0.7279935456035 1.0
C      1  0.5276915417581  0.2798551865884  0.5520219414861 1.0
C      1  0.4624492880715  0.3648343756816  0.7146634584786 1.0
C      1  0.4612946429441  0.4558140488249  0.7491604695218 1.0
C      1  0.3882525658060  0.5140971786443  0.7329504467314 1.0
C      1  0.4065099844542  0.6049147260738  0.7171319902424 1.0
C      1  0.7540045803773  0.5322727992852  0.4105312725549 1.0
C      1  0.7101931503759  0.3673738109493  0.4278392147522 1.0
C      1  0.5193738716954  0.2580347622131  0.3953184576023 1.0
C      1  0.3577675989205  0.2746311238876  0.4024333773022 1.0
C      1  0.2529065588732  0.3941597274083  0.4189450827348 1.0
C      1  0.2597497231351  0.5555493899209  0.4400347865401 1.0
C      1  0.3669836892890  0.6871633288127  0.4457288059141 1.0
C      1  0.5198267650026  0.7341878770979  0.4324245053622 1.0
C      1  0.6620701115183  0.6584326447709  0.4245047876623 1.0
C      1  0.4867664700850  0.4735692871561  0.4377281042034 1.0
END
