TITL C-29086-3345-75 -3.974 3375.00 -664.05992084 0 0 83 (C1) n - 1
REM
REM Run started: at 2020.12.20 06:21:29 in /gpfs/home/chem/mssmkc/CARBON/AIRSS/Generating-Clusters/Str-Search/Higher-Symm/C4-100
REM VASP from code version vasp.5.4.4.18Apr17-6-g9f103f2a35 (build Oct 11 2019 16:45:47) gamma-only
REM
REM
REM
REM
REM ./C.cell (6bd13a13d554368a30d355f37ece5b26)
REM AIRSS Version 0.9.1 bugfix July 2018 build 013d7b7c2542+ Fri, 06 Jul 2018 19:26:36 +0100
REM compiler GCC version 6.3.0
REM options -cpp -iprefix /gpfs/warwick/csc/orac/software/Core/GCCcore/6.3.0/bin/../lib/gcc/x86_64-pc-linux-gnu/6.3.0/ -mtune=generic -march=x86-64 -g -O0
REM seed -2104726471 -740154438 -608696503 -1109736828 -656115363 1718198408 163692593 1915308160 -1372419836 2050814852 2004799294 1380864162
REM
REM C.POTCAR (d86ddea03c3ceb6dc662c8ad6801f873)
REM 
CELL 1.54180   15.00000   15.00000   15.00000   90.00000   90.00000   90.00000
LATT -1
SFAC C  
C      1  0.7935607479995  0.4653039840491  0.4132989652256 1.0
C      1  0.7170489251445  0.4197228787074  0.5201095701428 1.0
C      1  0.3971235216304  0.4237879124724  0.7878908799313 1.0
C      1  0.4832652822741  0.4511837531058  0.8173445676366 1.0
C      1  0.4080573022723  0.6506793809523  0.2483092334861 1.0
C      1  0.3669496737592  0.6470697767336  0.6880281736988 1.0
C      1  0.5242867634026  0.3277479202088  0.3545686468897 1.0
C      1  0.4006349403197  0.7400827592577  0.5595974590416 1.0
C      1  0.6052862684137  0.5859588899603  0.3097313934919 1.0
C      1  0.3934747009547  0.5518241672630  0.6546772886824 1.0
C      1  0.2665295128353  0.6345969651580  0.5652836401048 1.0
C      1  0.3440355416050  0.5908164670278  0.2947011781470 1.0
C      1  0.4173346822275  0.5173931693274  0.8055410245626 1.0
C      1  0.6456481744394  0.4211030106860  0.3021955053593 1.0
C      1  0.4172652444299  0.3892902987399  0.4538104986923 1.0
C      1  0.6400761218899  0.4305029694055  0.7334085532011 1.0
C      1  0.4956029011208  0.4093501075017  0.4041660959668 1.0
C      1  0.5736321801800  0.7677949785890  0.3854586314396 1.0
C      1  0.2364266048904  0.5590943163372  0.6145382550735 1.0
C      1  0.3725616024581  0.4730214648876  0.4921194228842 1.0
C      1  0.5463388241552  0.1712145073502  0.5032706351333 1.0
C      1  0.5714333377584  0.5358279960809  0.6351070951805 1.0
C      1  0.4566515682767  0.5410867247370  0.4917860731770 1.0
C      1  0.4549925926189  0.2312601139257  0.6212418955587 1.0
C      1  0.3318503502068  0.6905978758455  0.6062800952722 1.0
C      1  0.6582604516113  0.7193803057963  0.3856204010237 1.0
C      1  0.6601425166457  0.4946450648216  0.6557457214063 1.0
C      1  0.4950330903710  0.4274558109681  0.2177902522217 1.0
C      1  0.5133154840444  0.5711640558371  0.3514292099219 1.0
C      1  0.4365718137032  0.6256079707405  0.4301751902345 1.0
C      1  0.7030292197316  0.6758474635571  0.4591322926672 1.0
C      1  0.4021508683863  0.5921930837230  0.7472810580679 1.0
C      1  0.6171594591811  0.7661657865290  0.5814356816270 1.0
C      1  0.3051869230778  0.5281263440756  0.4495638129968 1.0
C      1  0.4462087465376  0.5645396865835  0.2787462700678 1.0
C      1  0.3109821183202  0.4037760907190  0.6506250279995 1.0
C      1  0.7737953314723  0.5084668819127  0.5046250618061 1.0
C      1  0.3411419521595  0.6031422805206  0.3948063054894 1.0
C      1  0.3762477854507  0.4225225142601  0.5780246097528 1.0
C      1  0.5379195029171  0.8027895903175  0.5507193240427 1.0
C      1  0.5304770073664  0.1846305352573  0.5937468446878 1.0
C      1  0.4615009808246  0.7959673643431  0.6063645419972 1.0
C      1  0.4797247382630  0.5556231536262  0.5944891070013 1.0
C      1  0.5477710224858  0.6210940746016  0.6349970935841 1.0
C      1  0.4114988268546  0.2720511660544  0.5432803114571 1.0
C      1  0.3297983311089  0.4932268370578  0.2557392766571 1.0
C      1  0.3753432598844  0.3631273145579  0.7217993628520 1.0
C      1  0.2408009966845  0.3289478464905  0.5114578729236 1.0
C      1  0.5137419121563  0.4979430416568  0.4191721839270 1.0
C      1  0.6114240080919  0.6913128427993  0.6423775794317 1.0
C      1  0.4533792289620  0.2563896207244  0.3793434431852 1.0
C      1  0.2624949367783  0.3636514773159  0.3507344346774 1.0
C      1  0.5439547193624  0.7396313044065  0.2971485381894 1.0
C      1  0.7413743791284  0.5908328674086  0.4433720223140 1.0
C      1  0.6785017554714  0.3566908812179  0.3687178818321 1.0
C      1  0.4538230891932  0.2998448900620  0.6962335801768 1.0
C      1  0.4235936799372  0.4803082644842  0.2327227957118 1.0
C      1  0.4400191918488  0.7180008269558  0.4703106443489 1.0
C      1  0.2837281627970  0.4249179036273  0.2964523551353 1.0
C      1  0.7032484669762  0.6591376074780  0.6314799413946 1.0
C      1  0.6286661908640  0.3578188597209  0.6717580426004 1.0
C      1  0.6693186141243  0.4090294846586  0.5976427732509 1.0
C      1  0.6124224807173  0.2935355162998  0.3879530995124 1.0
C      1  0.6700384620530  0.5151709036976  0.3110735239246 1.0
C      1  0.4585867241044  0.7215412549036  0.2708860559460 1.0
C      1  0.4354471384120  0.3605935614188  0.5474551875895 1.0
C      1  0.2503234163315  0.3500878540880  0.5915877309481 1.0
C      1  0.5046394947300  0.1890211739054  0.4188026416230 1.0
C      1  0.8050823888721  0.5537773829952  0.5821159819036 1.0
C      1  0.2725634626872  0.6094401785493  0.4703065548622 1.0
C      1  0.6931572280444  0.7121216193150  0.5489346950191 1.0
C      1  0.5593737686027  0.3931061140192  0.2676846299659 1.0
C      1  0.7485188832856  0.5350305172648  0.3646711187750 1.0
C      1  0.6238171470305  0.6784464375782  0.3042987798278 1.0
C      1  0.3807179551527  0.2914872960322  0.4398165387819 1.0
C      1  0.5156840968756  0.7725897078151  0.4591907627901 1.0
C      1  0.7337213079823  0.5700172082830  0.6392009926291 1.0
C      1  0.2992608264647  0.5054085866930  0.6503287987865 1.0
C      1  0.5972282073837  0.2108016083309  0.4322760353166 1.0
C      1  0.7418685398379  0.3875470486023  0.4320126062289 1.0
C      1  0.5570875532887  0.4099861655802  0.7780283575838 1.0
C      1  0.5393536554721  0.3338862842503  0.7193384521011 1.0
C      1  0.2797106346352  0.3140895972014  0.4265116312439 1.0
END
