TITL C-29123-7884-201 -0.557 3375.00 -83.93802292 0 0 11 (Cs) n - 1
REM
REM Run started: at 2020.12.21 10:08:20 in /gpfs/home/chem/mssmkc/CARBON/AIRSS/Generating-Clusters/Str-Search/Higher-Symm/C4-100
REM VASP from code version vasp.5.4.4.18Apr17-6-g9f103f2a35 (build Oct 11 2019 16:45:47) gamma-only
REM
REM
REM
REM
REM ./C.cell (6bd13a13d554368a30d355f37ece5b26)
REM AIRSS Version 0.9.1 bugfix July 2018 build 013d7b7c2542+ Fri, 06 Jul 2018 19:26:36 +0100
REM compiler GCC version 6.3.0
REM options -cpp -iprefix /gpfs/warwick/csc/orac/software/Core/GCCcore/6.3.0/bin/../lib/gcc/x86_64-pc-linux-gnu/6.3.0/ -mtune=generic -march=x86-64 -g -O0
REM seed -1379317538 787594088 1173531139 1726400138 -1577014429 273542105 -325819545 -1766904880 687211138 1279066106 757569815 -248728698
REM
REM C.POTCAR (d86ddea03c3ceb6dc662c8ad6801f873)
REM 
CELL 1.54180   15.00000   15.00000   15.00000   90.00000   90.00000   90.00000
LATT -1
SFAC C  
C      1  0.4360359655367  0.4091563893012  0.4889638474696 1.0
C      1  0.5032801037576  0.3560223715610  0.4711585501437 1.0
C      1  0.4572082283777  0.6583899391052  0.5345478076944 1.0
C      1  0.3969880490301  0.5717642681737  0.5252667486186 1.0
C      1  0.5366023172931  0.6304803264347  0.5201589145089 1.0
C      1  0.3635882114384  0.6513372162464  0.5451354036359 1.0
C      1  0.5798822542549  0.3092053681612  0.4537732721819 1.0
C      1  0.6191163554848  0.4810696988229  0.4844934967068 1.0
C      1  0.4540996920331  0.4980631682721  0.5047177620017 1.0
C      1  0.6059053586973  0.3969191787320  0.4694488058970 1.0
C      1  0.5472935640964  0.5375920751897  0.5023352911416 1.0
END
