TITL C-29792-9940-7 -8.133 3375.00 -1456.90741335 0 0 178 (C1) n - 1
REM
REM Run started: at 2020.12.27 20:30:30 in /rds/project/t2_vol4/rds-t2-cs072/BORA/CARBON/AIRSS/Generating-Clusters/Str-Search/Higher-Symm/C100-200
REM VASP from code version vasp.5.4.4.18Apr17-6-g9f103f2a35 (build Oct 11 2019 16:45:47) gamma-only
REM
REM
REM
REM
REM ./C.cell (533062f00bc710175b3da973d35f2034)
REM AIRSS Version 0.9.1 bugfix July 2018 build 013d7b7c2542+ Fri, 06 Jul 2018 19:26:36 +0100
REM compiler GCC version 4.8.5 20150623 (Red Hat 4.8.5-39)
REM options -cpp -mtune=generic -march=x86-64 -g -O0
REM seed 127706054 632713203 2147114382 -1842455478 -1514844524 -2041702498 -978825422 848655483 341809171 1563612114 -633541767 -643438931
REM
REM C.POTCAR (d86ddea03c3ceb6dc662c8ad6801f873)
REM 
CELL 1.54180   15.00000   15.00000   15.00000   90.00000   90.00000   90.00000
LATT -1
SFAC C  
C      1  0.6338525651944  0.5231662082238  0.1035674655483 1.0
C      1  0.4510211321277  0.3756950742755  0.1070604998196 1.0
C      1  0.4210938442550  0.6067221522364  0.1085135747827 1.0
C      1  0.6339930780001  0.5212721876287  0.9000400187840 1.0
C      1  0.4504205055172  0.3766536753676  0.8951877411307 1.0
C      1  0.4178938696083  0.6070304978595  0.8927898976810 1.0
C      1  0.5789512145068  0.1395416996022  0.6473263219717 1.0
C      1  0.1246133409472  0.5316392871404  0.6667885247165 1.0
C      1  0.7139658031586  0.8123000223587  0.6615555117442 1.0
C      1  0.5748229064537  0.1359550047868  0.3481652005734 1.0
C      1  0.1449357862301  0.5308833399039  0.3336242679792 1.0
C      1  0.7116750647836  0.8099135233419  0.3441666644450 1.0
C      1  0.4421105749944  0.7530868006176  0.2157981507943 1.0
C      1  0.7470468012572  0.4403274632988  0.2152929489260 1.0
C      1  0.3233122655426  0.3161176114752  0.2248716154882 1.0
C      1  0.4388634058616  0.7463235838323  0.7790338090389 1.0
C      1  0.7495450992329  0.4365069759412  0.7893010834381 1.0
C      1  0.3220159034823  0.3247480440134  0.7753529950790 1.0
C      1  0.4789504657092  0.4091481665154  0.7215346526981 1.0
C      1  0.4416455490968  0.5665741670193  0.7202063273705 1.0
C      1  0.5937783898177  0.5203054530013  0.7238716000173 1.0
C      1  0.4721574791974  0.4116804254260  0.2827205737655 1.0
C      1  0.4357074346315  0.5697817308860  0.2829542409279 1.0
C      1  0.5892347642190  0.5223064865778  0.2818380411910 1.0
C      1  0.6930323701920  0.4569287808967  0.8619105506154 1.0
C      1  0.3664871707468  0.3596866663292  0.8512797711964 1.0
C      1  0.4456905925643  0.6898332709707  0.8538658851517 1.0
C      1  0.6921064368327  0.4595220258971  0.1420196682187 1.0
C      1  0.3682766014032  0.3570164803721  0.1505985509795 1.0
C      1  0.4478484826287  0.6921078041924  0.1442798533280 1.0
C      1  0.8070400739586  0.4654146680523  0.6349469127780 1.0
C      1  0.3115110524047  0.2567004350410  0.6283152169904 1.0
C      1  0.3847836244929  0.7802365198171  0.6264997282812 1.0
C      1  0.8060729373645  0.4663470741719  0.3690738694389 1.0
C      1  0.3120832983141  0.2540853282788  0.3746700502867 1.0
C      1  0.3835254505018  0.7925128177185  0.3676298600996 1.0
C      1  0.4282066807556  0.0801979589351  0.6090070870517 1.0
C      1  0.1777248888341  0.6878909570928  0.5988242021754 1.0
C      1  0.8266334864470  0.6870710704641  0.6040097461872 1.0
C      1  0.4268418820386  0.0782598382334  0.3953206522046 1.0
C      1  0.1795390496206  0.6863914339512  0.3954361211818 1.0
C      1  0.8226228017398  0.6864857211095  0.4020725461428 1.0
C      1  0.5685989601099  0.6815030091377  0.2568673929590 1.0
C      1  0.6236937782956  0.3545994973542  0.2547369711301 1.0
C      1  0.2990383200580  0.4656131503091  0.2630616281440 1.0
C      1  0.5710613475039  0.6794485466268  0.7461113432031 1.0
C      1  0.6274412298535  0.3514745330937  0.7519747603560 1.0
C      1  0.3168147498250  0.4697302508471  0.7357118746176 1.0
C      1  0.4709960170093  0.3299411735001  0.4072781312945 1.0
C      1  0.3815917685098  0.6275846960692  0.4025040088697 1.0
C      1  0.6533992771945  0.5332488255776  0.4055133632480 1.0
C      1  0.4663604509335  0.3325952190198  0.5975900230556 1.0
C      1  0.3884540333880  0.6139881750162  0.5956520022887 1.0
C      1  0.6630615799742  0.5377773032144  0.5957474665410 1.0
C      1  0.5225861246618  0.7284856409555  0.4176154195531 1.0
C      1  0.6858008463259  0.3643511402631  0.4161565344711 1.0
C      1  0.3065114190609  0.4019894674833  0.4424959975432 1.0
C      1  0.5295958867516  0.7154544314290  0.5831257049454 1.0
C      1  0.6786069032745  0.3679551629814  0.5901577700507 1.0
C      1  0.3012662300867  0.4026800327744  0.5545630805774 1.0
C      1  0.6059714383038  0.2220406010186  0.6653859015638 1.0
C      1  0.2206071828758  0.5450120297801  0.6552343691841 1.0
C      1  0.6831700121431  0.7198091698213  0.6606046784341 1.0
C      1  0.6038275952758  0.2184264414183  0.3360269130908 1.0
C      1  0.2455449802420  0.5261800616174  0.3241729153338 1.0
C      1  0.6775805231734  0.7187057750824  0.3476760337610 1.0
C      1  0.4872808652759  0.7906549730813  0.6283669383663 1.0
C      1  0.7613853308183  0.3754482860715  0.6396508958864 1.0
C      1  0.2562997927681  0.3428140993661  0.6226158591993 1.0
C      1  0.4858438679508  0.8027041505118  0.3680295922891 1.0
C      1  0.7627688836304  0.3749134743878  0.3630118784393 1.0
C      1  0.2587222099020  0.3397807689741  0.3781763597123 1.0
C      1  0.7660794290510  0.5017857127835  0.7178830073486 1.0
C      1  0.3689030673345  0.2720721009165  0.7097029274182 1.0
C      1  0.3734020937344  0.7273248422067  0.7090696331246 1.0
C      1  0.7639232561557  0.5040983647795  0.2875957851174 1.0
C      1  0.3709839064750  0.2694345991555  0.2934086347248 1.0
C      1  0.3768796192721  0.7387010869312  0.2858760259449 1.0
C      1  0.6832817135111  0.5552064075751  0.6960067609332 1.0
C      1  0.4646409621235  0.3115328772014  0.6964101440777 1.0
C      1  0.3657272091311  0.6273116180219  0.6922256118173 1.0
C      1  0.6799549429430  0.5557873279131  0.3091597033775 1.0
C      1  0.4644195657002  0.3121132528696  0.3084283999507 1.0
C      1  0.3635881120141  0.6407232804438  0.3041368613877 1.0
C      1  0.2620555131806  0.5054695860474  0.5715666489296 1.0
C      1  0.6183802328958  0.6928752948857  0.5903777246279 1.0
C      1  0.6231432109363  0.2937407734476  0.5961368856745 1.0
C      1  0.2747595465563  0.5023235264393  0.4181506401066 1.0
C      1  0.6073577309435  0.6939226644326  0.4123380858384 1.0
C      1  0.6325490928559  0.2766446919344  0.4187943501381 1.0
C      1  0.4146404317708  0.4757042594994  0.7201324750177 1.0
C      1  0.5299465305316  0.5905563428103  0.7255281516972 1.0
C      1  0.5710170082271  0.4309977594517  0.7279752407291 1.0
C      1  0.4053630426723  0.4777454439707  0.2837952813955 1.0
C      1  0.5250201874859  0.5928243780503  0.2786345809488 1.0
C      1  0.5651158853235  0.4335456837016  0.2765589897750 1.0
C      1  0.5812905468371  0.3053423273651  0.1805756859641 1.0
C      1  0.2956745061805  0.5378856127895  0.1909065737633 1.0
C      1  0.6359015185356  0.6672445724291  0.1865071721463 1.0
C      1  0.5820022643456  0.3030220106941  0.8246884547446 1.0
C      1  0.2930562766947  0.5313245777776  0.8107404153854 1.0
C      1  0.6355689173123  0.6662769550355  0.8193283194434 1.0
C      1  0.1137528049678  0.4383401208970  0.6324321867162 1.0
C      1  0.6394744489758  0.8661805910964  0.6317376036002 1.0
C      1  0.7911540006594  0.2180827385021  0.6244116377174 1.0
C      1  0.1247502504893  0.4425598961285  0.3719865794538 1.0
C      1  0.6395981739263  0.8688604028743  0.3683127357875 1.0
C      1  0.8015997977889  0.2165250000517  0.3529690489055 1.0
C      1  0.7855294417376  0.2874834897710  0.6802921877472 1.0
C      1  0.1751734334189  0.3759180005792  0.6704328033770 1.0
C      1  0.5556803835717  0.8475423373444  0.6732792965636 1.0
C      1  0.7861725307720  0.2903067597148  0.3070003138913 1.0
C      1  0.1750227004683  0.3713982453314  0.3356337437034 1.0
C      1  0.5578038231143  0.8541367214988  0.3218123899062 1.0
C      1  0.5037928264342  0.0873498742771  0.3607138731236 1.0
C      1  0.1372891057950  0.6162604029579  0.3711948972089 1.0
C      1  0.7781055120297  0.7584090123364  0.3844888254909 1.0
C      1  0.5074580115426  0.0912916170637  0.6378549532548 1.0
C      1  0.1389388263062  0.6146518349705  0.6249316154455 1.0
C      1  0.7800623257704  0.7578045989394  0.6230730063107 1.0
C      1  0.3207605901259  0.1987174101344  0.4497227508902 1.0
C      1  0.3261552297937  0.7799807497424  0.4444448198246 1.0
C      1  0.8317509266787  0.5147028396637  0.4473844340313 1.0
C      1  0.3201229786137  0.1994365771035  0.5543597221147 1.0
C      1  0.3266383216628  0.7776011868188  0.5505237103098 1.0
C      1  0.8338543230794  0.5143283054275  0.5577918724640 1.0
C      1  0.6756834644162  0.6529013746246  0.7315650405110 1.0
C      1  0.5565855071275  0.2729707187239  0.7369961207873 1.0
C      1  0.2857453333094  0.5714252795917  0.7230124027232 1.0
C      1  0.6731065890820  0.6529446480246  0.2754663800910 1.0
C      1  0.5566456944453  0.2758689446263  0.2688379757187 1.0
C      1  0.2849913178898  0.5954424784958  0.2652808530813 1.0
C      1  0.5441691215589  0.3037820488695  0.4571755583206 1.0
C      1  0.3411371486174  0.5633870346843  0.4510863486636 1.0
C      1  0.6098069122325  0.6041284584363  0.4545352834680 1.0
C      1  0.5406457940414  0.3084697707471  0.5488178109584 1.0
C      1  0.3369070004025  0.5625055867581  0.5443745321030 1.0
C      1  0.6397382393395  0.6112494380603  0.5475329653968 1.0
C      1  0.3580427629505  0.5327955467501  0.8804408714504 1.0
C      1  0.6000220440571  0.6099466303443  0.8874664470793 1.0
C      1  0.5453240746552  0.3620940031310  0.8900141947516 1.0
C      1  0.3602778739049  0.5327113117716  0.1199067161436 1.0
C      1  0.6017765885231  0.6114761303613  0.1168116409604 1.0
C      1  0.5455258472953  0.3635963495390  0.1139234761186 1.0
C      1  0.8377270693929  0.6125594270082  0.4536335702288 1.0
C      1  0.3665426356530  0.1109448493683  0.4539356724587 1.0
C      1  0.2347973152891  0.7379597761912  0.4481708641829 1.0
C      1  0.8402625494510  0.6128091096337  0.5521936709786 1.0
C      1  0.3667371227938  0.1119360818151  0.5509285590820 1.0
C      1  0.2348281119987  0.7372848239660  0.5467070884095 1.0
C      1  0.5272767818750  0.7750909244987  0.2683865629356 1.0
C      1  0.7277730922084  0.3536018752019  0.2625704290120 1.0
C      1  0.2566111177129  0.3742204489536  0.2757079130198 1.0
C      1  0.5251189554969  0.7698289934834  0.7288753618938 1.0
C      1  0.7305440003425  0.3497752923720  0.7380720235617 1.0
C      1  0.2614955582132  0.3870606048205  0.7183176584309 1.0
C      1  0.6477275712234  0.9149226493427  0.4540951353281 1.0
C      1  0.7825482099251  0.1996706673023  0.4409446994357 1.0
C      1  0.1246983613723  0.4522873968732  0.4737598021813 1.0
C      1  0.6483052106389  0.9132693624540  0.5465003823055 1.0
C      1  0.7747970698676  0.2059121093009  0.5364843903470 1.0
C      1  0.0754186206071  0.4247574661539  0.5471142715909 1.0
C      1  0.5071975798502  0.6334624659790  0.9022556082770 1.0
C      1  0.6110838087571  0.4309493681040  0.9069049622462 1.0
C      1  0.3833215784460  0.4417072639165  0.8983064884588 1.0
C      1  0.5097446264797  0.6346579813573  0.0991304722564 1.0
C      1  0.6108913339668  0.4325897632002  0.0965082171697 1.0
C      1  0.3834341834653  0.4412951310590  0.1063062788490 1.0
C      1  0.4601418377188  0.6598995949693  0.4479364093206 1.0
C      1  0.6569916724064  0.4518130596610  0.4543796452390 1.0
C      1  0.4039366753323  0.3755914576637  0.4553557314995 1.0
C      1  0.4695877596755  0.6442737402557  0.5489906242425 1.0
C      1  0.6553642235214  0.4543109279018  0.5485362646515 1.0
C      1  0.4005131277171  0.3775708562788  0.5479235781116 1.0
C      1  0.6840279940883  0.9890865954942  0.5013225751142 1.0
C      1  0.2054869601695  0.4980257605833  0.4895785743809 1.0
C      1  0.6995064353193  0.2252297409638  0.4766019196748 1.0
C      1  0.5119705168808  0.5801161159117  0.4846448890845 1.0
END
