TITL C-29123-7884-102 -3.837 3375.00 -714.66761261 0 0 88 (Td) n - 1
REM
REM Run started: at 2020.12.20 12:37:55 in /gpfs/home/chem/mssmkc/CARBON/AIRSS/Generating-Clusters/Str-Search/Higher-Symm/C4-100
REM VASP from code version vasp.5.4.4.18Apr17-6-g9f103f2a35 (build Oct 11 2019 16:45:47) gamma-only
REM
REM
REM
REM
REM ./C.cell (6bd13a13d554368a30d355f37ece5b26)
REM AIRSS Version 0.9.1 bugfix July 2018 build 013d7b7c2542+ Fri, 06 Jul 2018 19:26:36 +0100
REM compiler GCC version 6.3.0
REM options -cpp -iprefix /gpfs/warwick/csc/orac/software/Core/GCCcore/6.3.0/bin/../lib/gcc/x86_64-pc-linux-gnu/6.3.0/ -mtune=generic -march=x86-64 -g -O0
REM seed 1945291478 -708276374 855067517 879964521 -222094298 793904969 1057885203 -444637617 -329542922 1281209053 -561982815 422399032
REM
REM C.POTCAR (d86ddea03c3ceb6dc662c8ad6801f873)
REM 
CELL 1.54180   15.00000   15.00000   15.00000   90.00000   90.00000   90.00000
LATT -1
SFAC C  
C      1  0.6656449894739  0.5981052814287  0.7324938876942 1.0
C      1  0.5982925230084  0.7336574931392  0.6642300924246 1.0
C      1  0.7338752711504  0.6654293952365  0.5969447318729 1.0
C      1  0.6656519776918  0.4046309674931  0.2679373829766 1.0
C      1  0.3376308446543  0.5980529159819  0.2679908326143 1.0
C      1  0.3376400342207  0.4046720591659  0.7324614225905 1.0
C      1  0.5982969410738  0.2691359769719  0.3362298490431 1.0
C      1  0.4048690024284  0.7336512364599  0.3362032695802 1.0
C      1  0.4048752519694  0.2691326125995  0.6642243967102 1.0
C      1  0.7338742800954  0.3374059887136  0.4035176171530 1.0
C      1  0.2693279617115  0.6654325659511  0.4035027511768 1.0
C      1  0.2693796654587  0.3374128295474  0.5968833607653 1.0
C      1  0.6656395818056  0.7336686822691  0.5969423718071 1.0
C      1  0.5983055221126  0.6654473738437  0.7324902195611 1.0
C      1  0.7338602665772  0.5980943726355  0.6642315338476 1.0
C      1  0.6656645473606  0.2691149775089  0.4035058100814 1.0
C      1  0.3376372129338  0.2691504720022  0.5968831918196 1.0
C      1  0.3376270327229  0.7336379811046  0.4035197371904 1.0
C      1  0.5982849000286  0.3374075178254  0.2679882677727 1.0
C      1  0.4048989316010  0.3373978278162  0.7324660134034 1.0
C      1  0.4048503911551  0.6654173771616  0.2679475724930 1.0
C      1  0.7338763476896  0.4046607936367  0.3362057214751 1.0
C      1  0.2693712754699  0.4046588850250  0.6642277122642 1.0
C      1  0.2693580476184  0.5980595167197  0.3362246432186 1.0
C      1  0.6416326190531  0.5004631172733  0.7200434871607 1.0
C      1  0.5006614650171  0.7211851282670  0.6402567076242 1.0
C      1  0.7213945585612  0.6414220058629  0.4993238226324 1.0
C      1  0.6415989150428  0.5022370474012  0.2804317140866 1.0
C      1  0.3616019017208  0.5004538759642  0.2804679863702 1.0
C      1  0.3616285588123  0.5022553508059  0.7199726314643 1.0
C      1  0.5006601869994  0.2815843330363  0.3602017032569 1.0
C      1  0.5024654484708  0.7211646199163  0.3602119739858 1.0
C      1  0.5024611006206  0.2815981892320  0.6402157296896 1.0
C      1  0.7213891604155  0.3613752268908  0.5011162496976 1.0
C      1  0.2817840009764  0.6413982626414  0.5011184987444 1.0
C      1  0.2818166423243  0.3614000861919  0.4992980560779 1.0
C      1  0.6416180795488  0.7211974683668  0.4993204131590 1.0
C      1  0.5006634236517  0.6414317334869  0.7200420407354 1.0
C      1  0.7213954989921  0.5004566922817  0.6402670761100 1.0
C      1  0.6416218659981  0.2815748286338  0.5011173479757 1.0
C      1  0.3616213883764  0.2816156112463  0.4992973251851 1.0
C      1  0.3615938988396  0.7211553840434  0.5011154733642 1.0
C      1  0.5006745465268  0.3613782665467  0.2804581220037 1.0
C      1  0.5024750868107  0.3613960849125  0.7199671640340 1.0
C      1  0.5024462930155  0.6413759007661  0.2804411583641 1.0
C      1  0.7213978484147  0.5022515544716  0.3602054534054 1.0
C      1  0.2818144409878  0.5022509324851  0.6402207536927 1.0
C      1  0.2817972863776  0.5004308730018  0.3602021609893 1.0
C      1  0.3581953082911  0.4304930319785  0.5003361352755 1.0
C      1  0.4307062941412  0.5014967356402  0.3568284739289 1.0
C      1  0.5017291582660  0.3579713041711  0.4292950907803 1.0
C      1  0.3581683388919  0.5723286506183  0.5000950928145 1.0
C      1  0.6450466145321  0.4304829915223  0.5001069669312 1.0
C      1  0.6450538797827  0.5723350499119  0.5003420426570 1.0
C      1  0.4307296542638  0.5012763064480  0.6436223501324 1.0
C      1  0.5725760928306  0.5015135249028  0.6436674956995 1.0
C      1  0.5725532943147  0.5012572854400  0.3568004871965 1.0
C      1  0.5017206248184  0.6448343292251  0.5711660020052 1.0
C      1  0.5014858686833  0.3579728915003  0.5711324272538 1.0
C      1  0.5014776061805  0.6448191184727  0.4293115354381 1.0
C      1  0.3581883774809  0.5014909064278  0.4292965244487 1.0
C      1  0.4307201276004  0.3579887699987  0.5003318747841 1.0
C      1  0.5017250939765  0.4304768990070  0.3568230051852 1.0
C      1  0.3581883963187  0.5012636927698  0.5711325887038 1.0
C      1  0.6450522039445  0.5012593665914  0.4293064302941 1.0
C      1  0.6450555407625  0.5015089906258  0.5711642995367 1.0
C      1  0.4307025423703  0.6448127181709  0.5001077249798 1.0
C      1  0.5725522381994  0.6448415079159  0.5003457180691 1.0
C      1  0.5725611881896  0.3579614494681  0.5000995341417 1.0
C      1  0.5017294870637  0.5723584817917  0.6436660776298 1.0
C      1  0.5014832156594  0.5723210924302  0.3568054302093 1.0
C      1  0.5014983672712  0.4305032215109  0.6436228097800 1.0
C      1  0.7005813206928  0.3024387414953  0.5779913422946 1.0
C      1  0.5793425756036  0.7003228645505  0.3012530220225 1.0
C      1  0.3026593962035  0.7003563747470  0.5779953792255 1.0
C      1  0.7005493457195  0.5791218229521  0.3012476513518 1.0
C      1  0.7005934996005  0.4235723717981  0.6992146227015 1.0
C      1  0.5793728126834  0.3024498941873  0.6991757325374 1.0
C      1  0.3026854148681  0.3024530125730  0.4224003309613 1.0
C      1  0.7005688084708  0.7003591566711  0.4224292715951 1.0
C      1  0.4237774640242  0.7003909998831  0.6992103055508 1.0
C      1  0.3026813150187  0.5791457435124  0.6991834595160 1.0
C      1  0.3026557141584  0.4235760106008  0.3012132345865 1.0
C      1  0.4237962577315  0.3024222692685  0.3012213355065 1.0
C      1  0.3408590285342  0.6621480481765  0.6609588772347 1.0
C      1  0.6623478704846  0.6621160666108  0.3394737869140 1.0
C      1  0.6623628214554  0.3406518954288  0.6609546175164 1.0
C      1  0.3408784253511  0.3406485370420  0.3394330732647 1.0
END
