TITL C-29792-9940-6 -8.967 3375.00 -1582.60734800 0 0 190 (C2) n - 1
REM
REM Run started: at 2020.12.27 19:32:32 in /rds/project/t2_vol4/rds-t2-cs072/BORA/CARBON/AIRSS/Generating-Clusters/Str-Search/Higher-Symm/C100-200
REM VASP from code version vasp.5.4.4.18Apr17-6-g9f103f2a35 (build Oct 11 2019 16:45:47) gamma-only
REM
REM
REM
REM
REM ./C.cell (533062f00bc710175b3da973d35f2034)
REM AIRSS Version 0.9.1 bugfix July 2018 build 013d7b7c2542+ Fri, 06 Jul 2018 19:26:36 +0100
REM compiler GCC version 4.8.5 20150623 (Red Hat 4.8.5-39)
REM options -cpp -mtune=generic -march=x86-64 -g -O0
REM seed 333208114 641876986 1315550550 -40617147 -675799201 1508877408 -375665532 -1761128151 946342441 -1361358440 274056819 -1299097892
REM
REM C.POTCAR (d86ddea03c3ceb6dc662c8ad6801f873)
REM 
CELL 1.54180   15.00000   15.00000   15.00000   90.00000   90.00000   90.00000
LATT -1
SFAC C  
C      1  0.2831826837289  0.8353523802545  0.3098424381845 1.0
C      1  0.7168047577966  0.1646605214260  0.3097931622111 1.0
C      1  0.7003343868166  0.8245464182136  0.6835876845876 1.0
C      1  0.2996235383894  0.1753573276431  0.6835825517607 1.0
C      1  0.3449777004543  0.8448675544339  0.2357877178931 1.0
C      1  0.6550409102936  0.1551090069308  0.2357079150462 1.0
C      1  0.6414633223826  0.8362720997074  0.7558558721852 1.0
C      1  0.3585905197900  0.1636902065854  0.7558166525436 1.0
C      1  0.5770402365784  0.2960053987804  0.4082361693490 1.0
C      1  0.4229737112716  0.7040118172737  0.4082523935825 1.0
C      1  0.4037783924548  0.2895971734616  0.5770424396417 1.0
C      1  0.5962693668965  0.7103709817036  0.5770376786098 1.0
C      1  0.6286285694209  0.8642795221709  0.5284598442188 1.0
C      1  0.3714364913446  0.1357048928008  0.5284059786638 1.0
C      1  0.3265842040001  0.8532656411962  0.4613718062414 1.0
C      1  0.6734005768184  0.1467488142012  0.4613062910654 1.0
C      1  0.4656322255050  0.6914061772884  0.8029231185165 1.0
C      1  0.5343898929656  0.3086693447740  0.8028559069707 1.0
C      1  0.5411762629500  0.6913893252646  0.1951573464910 1.0
C      1  0.4588199176388  0.3085949007928  0.1950751693117 1.0
C      1  0.4666015329559  0.3347257680905  0.8610492454204 1.0
C      1  0.5334300410856  0.6653132476672  0.8611038247476 1.0
C      1  0.5398784064669  0.3437374431120  0.1606300686893 1.0
C      1  0.4601082298989  0.6562695879292  0.1606841154616 1.0
C      1  0.3589417406433  0.7940301285750  0.1603738102483 1.0
C      1  0.6410872410023  0.2060232927699  0.1603453136919 1.0
C      1  0.6339557184166  0.7990079379489  0.8394065020582 1.0
C      1  0.3661305469071  0.2009896244635  0.8393348684081 1.0
C      1  0.2538128796789  0.4902271787729  0.5545935398705 1.0
C      1  0.7461851765131  0.5097884471917  0.5545892151248 1.0
C      1  0.6346869654491  0.5474133662153  0.3996628567552 1.0
C      1  0.3653296237453  0.4525638446467  0.3996078414894 1.0
C      1  0.7718393215310  0.2263249782354  0.3488552357357 1.0
C      1  0.2281363973231  0.7736775584575  0.3488891300241 1.0
C      1  0.2313645692213  0.2374635019483  0.6515215415658 1.0
C      1  0.7686336709358  0.7624613421249  0.6515226435471 1.0
C      1  0.7151124563446  0.6052489768116  0.2319505263329 1.0
C      1  0.2848446191998  0.3947474799143  0.2319518483646 1.0
C      1  0.3217343339635  0.5972262302608  0.7780083851148 1.0
C      1  0.6782879223072  0.4027663600358  0.7780822011956 1.0
C      1  0.8156358020496  0.7271131778391  0.4951356141420 1.0
C      1  0.1843566349960  0.2728659214395  0.4951343314318 1.0
C      1  0.2033157031889  0.7316495612903  0.5202598104621 1.0
C      1  0.7966848750942  0.2683409073781  0.5202203290587 1.0
C      1  0.4130316697889  0.8771377736548  0.2971581889126 1.0
C      1  0.5869595311389  0.1228331198938  0.2970628220308 1.0
C      1  0.5707511549545  0.8733876617186  0.6941884458267 1.0
C      1  0.4293064197461  0.1265882043668  0.6941456987061 1.0
C      1  0.5674278799552  0.3398335310790  0.5894398391419 1.0
C      1  0.4325941928815  0.6601795160532  0.5894828319766 1.0
C      1  0.4137033334996  0.2719546127580  0.3957792678589 1.0
C      1  0.5862834893039  0.7280335716871  0.3958077821877 1.0
C      1  0.6658452271614  0.7695725450207  0.5247493487025 1.0
C      1  0.3341801654290  0.2303916235307  0.5247206779872 1.0
C      1  0.3380433747068  0.6972539887215  0.4523370720502 1.0
C      1  0.6620033658859  0.3027606105842  0.4523007019290 1.0
C      1  0.2617358914516  0.7141130800641  0.5954286227387 1.0
C      1  0.7382642398402  0.2858679381620  0.5953959635621 1.0
C      1  0.7681006248009  0.7145842246588  0.4135594760929 1.0
C      1  0.2319147669875  0.2854845777825  0.4135790762234 1.0
C      1  0.3827637705060  0.5396767911725  0.4501799450615 1.0
C      1  0.6172274678942  0.4603315589877  0.4502256411289 1.0
C      1  0.6881478969994  0.5909643951872  0.5489091543160 1.0
C      1  0.3118841596131  0.4090338182698  0.5489183763133 1.0
C      1  0.6365733212633  0.8780747922749  0.6221119309216 1.0
C      1  0.3634365434476  0.1218875726665  0.6220659915703 1.0
C      1  0.3462161983466  0.8767188651979  0.3726132394897 1.0
C      1  0.6537764136340  0.1232884927140  0.3725522579525 1.0
C      1  0.3682086426363  0.5305973447658  0.2464834282806 1.0
C      1  0.6317172975153  0.4693883360277  0.2464767339570 1.0
C      1  0.6095197288801  0.5453485700772  0.7619848470036 1.0
C      1  0.3904738833415  0.4546446609183  0.7619313695668 1.0
C      1  0.7408892870236  0.2304183123478  0.4452515145937 1.0
C      1  0.2590912093344  0.7696002747009  0.4453004369513 1.0
C      1  0.2396154641771  0.2332146256031  0.5583267781344 1.0
C      1  0.7603875747246  0.7667383242665  0.5583432271513 1.0
C      1  0.8585378641440  0.6253459478052  0.6050988242870 1.0
C      1  0.1414265278259  0.3746052379313  0.6051160957260 1.0
C      1  0.1035629219057  0.6592710047666  0.3427150721777 1.0
C      1  0.8964102313892  0.3407659463900  0.3426585841844 1.0
C      1  0.4938785647491  0.2798465192196  0.4460455498139 1.0
C      1  0.5061252706395  0.7201774057198  0.4460787820728 1.0
C      1  0.4885667688101  0.2951947708486  0.5418034013897 1.0
C      1  0.5114697072242  0.7048043608902  0.5418214079605 1.0
C      1  0.1652019342400  0.4940647934417  0.4999285909162 1.0
C      1  0.8347639552965  0.5059092188058  0.4998695845966 1.0
C      1  0.8719985641134  0.4175582979406  0.4726888213127 1.0
C      1  0.1279460126219  0.5824117219522  0.4727287902487 1.0
C      1  0.4509700660261  0.4310975521793  0.8452125642739 1.0
C      1  0.5490117049375  0.5689075096973  0.8453126737697 1.0
C      1  0.5577624376993  0.4378632892769  0.1822114760722 1.0
C      1  0.4421419830404  0.5621298801844  0.1821732076998 1.0
C      1  0.1336791872859  0.4165119714454  0.4335322890553 1.0
C      1  0.8663052568821  0.5834628433646  0.4334937031454 1.0
C      1  0.8612744817381  0.3660603984642  0.6235701097280 1.0
C      1  0.1387114684688  0.6338830459137  0.6235656500113 1.0
C      1  0.4257210148213  0.8622266583992  0.6087163414578 1.0
C      1  0.5743088050232  0.1378506857489  0.6086836692214 1.0
C      1  0.5541448271242  0.8776882009566  0.3760486801108 1.0
C      1  0.4459274387756  0.1222834221184  0.3760042384968 1.0
C      1  0.8434648490549  0.5265793763874  0.5980443225762 1.0
C      1  0.1565149068642  0.4733779288219  0.5980984979721 1.0
C      1  0.0947663590043  0.5774284643250  0.3846523409157 1.0
C      1  0.9052069614939  0.4225932957483  0.3846062907700 1.0
C      1  0.4147754468527  0.1038504921539  0.4526675016723 1.0
C      1  0.5853172031168  0.8961643193676  0.4527079933852 1.0
C      1  0.6234101001365  0.1369389666548  0.5409619166002 1.0
C      1  0.3766054825631  0.8630732217142  0.5409989607169 1.0
C      1  0.6637612667451  0.6149661906759  0.7110731417696 1.0
C      1  0.3361843160954  0.3850070500385  0.7110618159483 1.0
C      1  0.3268149729113  0.6031968400829  0.3029046566000 1.0
C      1  0.6731386000652  0.3968156456262  0.3028932922472 1.0
C      1  0.5786649514113  0.4481243218942  0.5985697625900 1.0
C      1  0.4213960942561  0.5518745011655  0.5985863954814 1.0
C      1  0.4615978134770  0.5217148259917  0.5126150538037 1.0
C      1  0.5384394433044  0.4783570471755  0.5126423187041 1.0
C      1  0.1239539750039  0.3437600795589  0.5157503275611 1.0
C      1  0.8760102087674  0.6562038092922  0.5157381104869 1.0
C      1  0.8591215884801  0.3432397630195  0.5308561757902 1.0
C      1  0.1408342896885  0.6567366468657  0.5308715075189 1.0
C      1  0.3859775570208  0.4465249428674  0.3058302124387 1.0
C      1  0.6140021172229  0.5534485019286  0.3058952954853 1.0
C      1  0.5518441327311  0.4791718018367  0.6994341026006 1.0
C      1  0.4482046532881  0.5208082043510  0.6994315051881 1.0
C      1  0.8476314803156  0.5271515753929  0.2794363537088 1.0
C      1  0.1523316593862  0.4728565440653  0.2794571743270 1.0
C      1  0.1763831641982  0.5450780517343  0.7450253002786 1.0
C      1  0.8236040588556  0.4549101893747  0.7449972597862 1.0
C      1  0.4940072740573  0.1453176174133  0.2974913599767 1.0
C      1  0.5059942355589  0.8547029293930  0.2975625185394 1.0
C      1  0.5194986620831  0.1547975593231  0.6857367473492 1.0
C      1  0.4805583920143  0.8452544041963  0.6857170261801 1.0
C      1  0.6713575645031  0.7160920903949  0.4401582951667 1.0
C      1  0.3286576095849  0.2839582018353  0.4401754712351 1.0
C      1  0.3375589112869  0.6661213429976  0.5480372407483 1.0
C      1  0.6624795176100  0.3338973200117  0.5479891298327 1.0
C      1  0.2438163061963  0.3850407390299  0.7307422024251 1.0
C      1  0.7561332775110  0.6149020953189  0.7307330221051 1.0
C      1  0.7602099908946  0.3799878994864  0.2785482854447 1.0
C      1  0.2397362451340  0.6199942944648  0.2785885529916 1.0
C      1  0.3551191566631  0.3639226247990  0.6175554880229 1.0
C      1  0.6448166390427  0.6359730013196  0.6175333340237 1.0
C      1  0.6313844971793  0.3759084489811  0.3892004187369 1.0
C      1  0.3686055001617  0.6241124915727  0.3891873968310 1.0
C      1  0.1329457487641  0.5473925886026  0.6593326654159 1.0
C      1  0.8669857045959  0.4525736813637  0.6592990948635 1.0
C      1  0.9014108494281  0.5148847682878  0.3560936110434 1.0
C      1  0.0986042983025  0.4851423864599  0.3561377916272 1.0
C      1  0.7967222360076  0.6101509692166  0.2843663166006 1.0
C      1  0.2032514180211  0.3898666979749  0.2843877429067 1.0
C      1  0.2360368087863  0.6254520984894  0.7455875083187 1.0
C      1  0.7639408671841  0.3745624393014  0.7455419940954 1.0
C      1  0.1894800493172  0.3256438099084  0.6734371358244 1.0
C      1  0.8104828782298  0.6742741283743  0.6734288063266 1.0
C      1  0.8169066252983  0.3076916068661  0.3148154300203 1.0
C      1  0.1830751461871  0.6923117305154  0.3148240280920 1.0
C      1  0.5855451448110  0.3801146906795  0.7485865465468 1.0
C      1  0.4144920797790  0.6199594833131  0.7486350633415 1.0
C      1  0.3793385668526  0.3583412025493  0.2524678202702 1.0
C      1  0.6206250829686  0.6416688365665  0.2525040323814 1.0
C      1  0.4029546689558  0.2763408009478  0.3034999542532 1.0
C      1  0.5970545465594  0.7236786612177  0.3035205354668 1.0
C      1  0.5748336528809  0.3102225485318  0.6805900444791 1.0
C      1  0.4252315939715  0.6898354413624  0.6805963676291 1.0
C      1  0.2279071283067  0.4713008471903  0.7728913367246 1.0
C      1  0.7720867674102  0.5287022012501  0.7729288217900 1.0
C      1  0.7901729188281  0.4634644270701  0.2334278113002 1.0
C      1  0.2097585855267  0.5365410232271  0.2334341517632 1.0
C      1  0.4540428426009  0.7605773536002  0.7315954001515 1.0
C      1  0.5460330564112  0.2394790981630  0.7316021306538 1.0
C      1  0.5469293712532  0.7767272220787  0.2477518445192 1.0
C      1  0.4530585383276  0.2232862848843  0.2477065966446 1.0
C      1  0.3141307592264  0.5077720335366  0.7958431501509 1.0
C      1  0.6858830758620  0.4922382853687  0.7958556825186 1.0
C      1  0.7145506985260  0.5115522913585  0.2054428642711 1.0
C      1  0.2853753781994  0.4884537858011  0.2054413465792 1.0
C      1  0.5976413518810  0.7312407741146  0.8701550516882 1.0
C      1  0.4023970696469  0.2687669429245  0.8700292900317 1.0
C      1  0.3967553425401  0.7217043677406  0.1454478874261 1.0
C      1  0.6032515468617  0.2783433286291  0.1453584755420 1.0
C      1  0.3279696926143  0.5608697665405  0.5457291591223 1.0
C      1  0.6720633545713  0.4391302284752  0.5457418381669 1.0
C      1  0.6638617611150  0.6145696207243  0.4587429265583 1.0
C      1  0.3362503528091  0.3854528533034  0.4587699832521 1.0
C      1  0.1922875495551  0.3584666963375  0.3703620837512 1.0
C      1  0.8077186512032  0.6416129214386  0.3703298099234 1.0
C      1  0.7853245300552  0.3239082584461  0.6696740583665 1.0
C      1  0.2146498817928  0.6760723782043  0.6696557720070 1.0
C      1  0.4999706693834  0.5000121476017  0.8714612159453 1.0
C      1  0.4999564687339  0.5000112664181  0.1627733130530 1.0
END
