TITL C-29086-3345-25 -0.358 3375.00 -51.42057486 0 0 7 (Cs) n - 1
REM
REM Run started: at 2020.12.19 20:53:40 in /gpfs/home/chem/mssmkc/CARBON/AIRSS/Generating-Clusters/Str-Search/Higher-Symm/C4-100
REM VASP from code version vasp.5.4.4.18Apr17-6-g9f103f2a35 (build Oct 11 2019 16:45:47) gamma-only
REM
REM
REM
REM
REM ./C.cell (6bd13a13d554368a30d355f37ece5b26)
REM AIRSS Version 0.9.1 bugfix July 2018 build 013d7b7c2542+ Fri, 06 Jul 2018 19:26:36 +0100
REM compiler GCC version 6.3.0
REM options -cpp -iprefix /gpfs/warwick/csc/orac/software/Core/GCCcore/6.3.0/bin/../lib/gcc/x86_64-pc-linux-gnu/6.3.0/ -mtune=generic -march=x86-64 -g -O0
REM seed 1897979027 -484074050 -440846823 -1802828326 -110697625 872362272 1916148122 -751092556 -663081671 1861282545 -1471244057 108706987
REM
REM C.POTCAR (d86ddea03c3ceb6dc662c8ad6801f873)
REM 
CELL 1.54180   15.00000   15.00000   15.00000   90.00000   90.00000   90.00000
LATT -1
SFAC C  
C      1  0.4137885155821  0.4999999835757  0.5233926269141 1.0
C      1  0.4474227267685  0.4999999974326  0.6088128006414 1.0
C      1  0.5332840326542  0.4999999983670  0.5830590064227 1.0
C      1  0.6006912738440  0.5000000132681  0.5255341271972 1.0
C      1  0.5537921287249  0.4999999937007  0.4471870339114 1.0
C      1  0.5038261249985  0.5000000273214  0.3688681834654 1.0
C      1  0.4471951974278  0.4999999863344  0.4431462214478 1.0
END
