TITL C-29123-7884-208 -4.512 3375.00 -765.62567299 0 0 95 (C1) n - 1
REM
REM Run started: at 2020.12.21 11:17:19 in /gpfs/home/chem/mssmkc/CARBON/AIRSS/Generating-Clusters/Str-Search/Higher-Symm/C4-100
REM VASP from code version vasp.5.4.4.18Apr17-6-g9f103f2a35 (build Oct 11 2019 16:45:47) gamma-only
REM
REM
REM
REM
REM ./C.cell (6bd13a13d554368a30d355f37ece5b26)
REM AIRSS Version 0.9.1 bugfix July 2018 build 013d7b7c2542+ Fri, 06 Jul 2018 19:26:36 +0100
REM compiler GCC version 6.3.0
REM options -cpp -iprefix /gpfs/warwick/csc/orac/software/Core/GCCcore/6.3.0/bin/../lib/gcc/x86_64-pc-linux-gnu/6.3.0/ -mtune=generic -march=x86-64 -g -O0
REM seed 1617339909 -319022143 1330604668 1521320121 1894858397 903105337 1865475666 687604326 858435981 673184320 1383765814 771501207
REM
REM C.POTCAR (d86ddea03c3ceb6dc662c8ad6801f873)
REM 
CELL 1.54180   15.00000   15.00000   15.00000   90.00000   90.00000   90.00000
LATT -1
SFAC C  
C      1  0.7330778274926  0.7506399431723  0.4814806412451 1.0
C      1  0.5979847651559  0.1738072362157  0.5008404821721 1.0
C      1  0.1722954673005  0.5758151807955  0.5030604618964 1.0
C      1  0.6966092567654  0.3012484333951  0.5533975782676 1.0
C      1  0.2322367445808  0.4212346695505  0.5516550662208 1.0
C      1  0.5746998689973  0.7818016551837  0.5467735744698 1.0
C      1  0.5775330323408  0.2448741239357  0.6410174932189 1.0
C      1  0.2452815384061  0.5555784023541  0.6409991770065 1.0
C      1  0.6927170714652  0.7043457712564  0.6254321041617 1.0
C      1  0.6732506416002  0.5453103800479  0.2877266022075 1.0
C      1  0.4495247792671  0.3225768631195  0.2812286386076 1.0
C      1  0.3583362675794  0.6386166969408  0.2849237182015 1.0
C      1  0.4026390739243  0.2374366895788  0.6055490960334 1.0
C      1  0.3376885293369  0.7039155504300  0.6134113567070 1.0
C      1  0.7588343000416  0.5426447733372  0.6063490406646 1.0
C      1  0.3885253208053  0.4750742881789  0.6532732925374 1.0
C      1  0.5522818509274  0.6209011051564  0.6572652278940 1.0
C      1  0.5518379803148  0.4193659713752  0.6885495245247 1.0
C      1  0.7679696300323  0.5157549238833  0.5144971279393 1.0
C      1  0.3789357309574  0.2488963796127  0.5086385162391 1.0
C      1  0.3497633745040  0.7319213453766  0.5190247425254 1.0
C      1  0.4495948464609  0.4193960865383  0.6985832372997 1.0
C      1  0.5107373637672  0.5774462582757  0.7334150045451 1.0
C      1  0.5749337177709  0.4989789133852  0.7515786229086 1.0
C      1  0.6296981754415  0.6629744925911  0.6841057209953 1.0
C      1  0.5636929082888  0.3167918878265  0.7050493376071 1.0
C      1  0.3169661741263  0.5191172609820  0.6930233273497 1.0
C      1  0.6204936815647  0.4529415888627  0.6012583966054 1.0
C      1  0.3890100111735  0.4165722207737  0.5767158084848 1.0
C      1  0.4839886933658  0.6460195992049  0.5896889011182 1.0
C      1  0.4295979512283  0.6312833957793  0.7372733889784 1.0
C      1  0.6673376462814  0.5162709644886  0.7417515738425 1.0
C      1  0.4104276732303  0.3365805699931  0.7300629627146 1.0
C      1  0.2603012642590  0.4241020497570  0.3005689938325 1.0
C      1  0.5457603098210  0.7503903620692  0.3003077587199 1.0
C      1  0.7052630870561  0.3119182462542  0.3062945605791 1.0
C      1  0.6672373925817  0.7551446720781  0.5522470219539 1.0
C      1  0.6334581641617  0.2336953337237  0.5679365800096 1.0
C      1  0.2078277814168  0.5131765761524  0.5680761628252 1.0
C      1  0.7487885458937  0.4234963648391  0.5124024193631 1.0
C      1  0.3078854335785  0.3097804188763  0.5037242125422 1.0
C      1  0.4350573864631  0.7715076888210  0.5115896598042 1.0
C      1  0.2515232863536  0.3847089185162  0.4677289339181 1.0
C      1  0.5241584661256  0.7868776268584  0.4672622267656 1.0
C      1  0.7240344365352  0.3390394408411  0.4714662457649 1.0
C      1  0.7691697529283  0.6762580101089  0.4444678406522 1.0
C      1  0.5219480144820  0.1774307767298  0.4520680957554 1.0
C      1  0.2119060874334  0.6451413576128  0.4610353223923 1.0
C      1  0.5338990475514  0.6964719106060  0.2383531167353 1.0
C      1  0.7347752185526  0.2976347692456  0.2269927678028 1.0
C      1  0.3082482881352  0.4413646354562  0.2354683024426 1.0
C      1  0.4821624190361  0.2768586825638  0.7385980418330 1.0
C      1  0.3404605202172  0.6036020127271  0.7362350743424 1.0
C      1  0.6935110218801  0.6063065637795  0.7323552171933 1.0
C      1  0.4270148003921  0.7010370336724  0.6586073095512 1.0
C      1  0.7091670280368  0.4728061825872  0.6595275798960 1.0
C      1  0.3521822009317  0.3014544743188  0.6588800032554 1.0
C      1  0.7308750907483  0.5510302307639  0.3473269430850 1.0
C      1  0.4346464589872  0.2709729397780  0.3442067189237 1.0
C      1  0.3299245485229  0.6793444231861  0.3509295433486 1.0
C      1  0.5813482089965  0.6435140784604  0.4115101082690 1.0
C      1  0.5797423552061  0.3574325114435  0.4060023407346 1.0
C      1  0.3414862395506  0.5073532456168  0.4050665920741 1.0
C      1  0.7364258465805  0.5810156268532  0.4424989260137 1.0
C      1  0.4545525541270  0.2505315138319  0.4402916799579 1.0
C      1  0.3086038059413  0.6689750307957  0.4486391282623 1.0
C      1  0.8080327985468  0.7599563013357  0.4207175898095 1.0
C      1  0.5771287224624  0.1000057716035  0.4424092535142 1.0
C      1  0.1174558826358  0.6357982824384  0.4505709990119 1.0
C      1  0.5605387224534  0.7386034870052  0.3921442502000 1.0
C      1  0.6716787573758  0.3245939905958  0.3893054024941 1.0
C      1  0.2705716077734  0.4432023085575  0.3919250933140 1.0
C      1  0.2850871040539  0.6439261087824  0.6634959644376 1.0
C      1  0.7463078111600  0.6253241655451  0.6511438794316 1.0
C      1  0.4838260492237  0.2216839913121  0.6558411978672 1.0
C      1  0.4135292446191  0.5071157412283  0.3396661964953 1.0
C      1  0.5444895958996  0.5854261777628  0.3501763433714 1.0
C      1  0.5588532829506  0.4251016823200  0.3487876536779 1.0
C      1  0.3052006271618  0.3572008573350  0.5910059016446 1.0
C      1  0.4889639987133  0.7486133893747  0.5925406487814 1.0
C      1  0.7042768925560  0.3932789546243  0.5971620696423 1.0
C      1  0.5940408495750  0.5165493926880  0.5253733545350 1.0
C      1  0.4603046282060  0.4111706120399  0.5131404383047 1.0
C      1  0.4423914442546  0.5824309217175  0.5194575908422 1.0
C      1  0.5191343598848  0.6003341446556  0.2531750342192 1.0
C      1  0.5616799778802  0.4382958431760  0.2525145913795 1.0
C      1  0.3995808435914  0.4704167838425  0.2368566703885 1.0
C      1  0.5031490910028  0.3403353263253  0.4667301771978 1.0
C      1  0.3629445279357  0.5812821512106  0.4711116110350 1.0
C      1  0.6349161248125  0.5854495884934  0.4757030426432 1.0
C      1  0.5929686687214  0.5283935364451  0.2363515277894 1.0
C      1  0.4738283345665  0.4025861279714  0.2348743128225 1.0
C      1  0.4206350575350  0.5682973837365  0.2560586834833 1.0
C      1  0.5041474024006  0.5023510312585  0.3855986058706 1.0
C      1  0.4999249350693  0.5028521160971  0.4919487420075 1.0
END
