TITL C-29469-8165-62 -1.686 3375.00 -279.46712586 0 0 35 (C1) n - 1
REM
REM Run started: at 2021.01.04 18:49:36 in /gpfs/home/chem/mssmkc/CARBON/AIRSS/Generating-Clusters/Str-Search/Higher-Symm/C4-100
REM VASP from code version vasp.5.4.4.18Apr17-6-g9f103f2a35 (build Oct 11 2019 16:45:47) gamma-only
REM
REM
REM
REM
REM ./C.cell (6bd13a13d554368a30d355f37ece5b26)
REM AIRSS Version 0.9.1 bugfix July 2018 build 013d7b7c2542+ Fri, 06 Jul 2018 19:26:36 +0100
REM compiler GCC version 6.3.0
REM options -cpp -iprefix /gpfs/warwick/csc/orac/software/Core/GCCcore/6.3.0/bin/../lib/gcc/x86_64-pc-linux-gnu/6.3.0/ -mtune=generic -march=x86-64 -g -O0
REM seed -65717212 1439977480 607468055 -2115085226 1639956878 -1279802389 -777226467 -1395142034 699329989 2035754503 1066328016 -10975275
REM
REM C.POTCAR (d86ddea03c3ceb6dc662c8ad6801f873)
REM 
CELL 1.54180   15.00000   15.00000   15.00000   90.00000   90.00000   90.00000
LATT -1
SFAC C  
C      1  0.3657814694379  0.6089298003333  0.5472924180961 1.0
C      1  0.6559178526345  0.6115796606183  0.4641468244231 1.0
C      1  0.5899214546052  0.5737750527515  0.3119141427995 1.0
C      1  0.3979455952232  0.5487739613180  0.7018682372221 1.0
C      1  0.4755112089079  0.3685909418720  0.3604128204572 1.0
C      1  0.5132361115527  0.3708963641875  0.6413757595646 1.0
C      1  0.4077096586386  0.3269251374869  0.4250434742175 1.0
C      1  0.5828969705949  0.3331841596615  0.5787456178401 1.0
C      1  0.5963109660727  0.4687649856780  0.4362776359727 1.0
C      1  0.3842137465511  0.4559949618991  0.5696414741758 1.0
C      1  0.5747141069766  0.4436122815480  0.6720649104502 1.0
C      1  0.4166055599086  0.4375365989507  0.3211619123509 1.0
C      1  0.3623688205247  0.5346751803254  0.6153681677130 1.0
C      1  0.6365047832803  0.5505666827881  0.3883628190664 1.0
C      1  0.4516187697789  0.6458716678892  0.5449795568747 1.0
C      1  0.5824700236577  0.6671848496924  0.4843790375725 1.0
C      1  0.3791661880464  0.4146468141482  0.4056215310691 1.0
C      1  0.6272893216029  0.4139360097210  0.5970140218392 1.0
C      1  0.3531894463899  0.5694569714516  0.4528405777857 1.0
C      1  0.6609948879513  0.5643115930236  0.5487973201942 1.0
C      1  0.3639533324259  0.5873112152764  0.3649308922988 1.0
C      1  0.6025213043341  0.5987056826153  0.6230913645131 1.0
C      1  0.6431217898136  0.4746614409087  0.5271182706218 1.0
C      1  0.4000478747966  0.4828698205933  0.4737945701704 1.0
C      1  0.5613819996022  0.5365564619846  0.6861810597019 1.0
C      1  0.4245577622865  0.5338408398916  0.3099459949392 1.0
C      1  0.5592067381718  0.3753624382419  0.4124595638678 1.0
C      1  0.4320885505717  0.3720766771286  0.5902516738658 1.0
C      1  0.5098751439001  0.5649094615115  0.2881341711327 1.0
C      1  0.4774837510940  0.5596313718209  0.7222333540559 1.0
C      1  0.5454060987169  0.3224835620158  0.4923735001061 1.0
C      1  0.4487750033298  0.3179249362036  0.5090216765718 1.0
C      1  0.5031370790987  0.6153558036843  0.4691285997350 1.0
C      1  0.5017702216423  0.5209094025775  0.4569283786425 1.0
C      1  0.5477394078798  0.6636629102016  0.5784599700927 1.0
END
