TITL C-29736-5025-2 -5.114 3375.00 -875.79571720 0 0 108 (C1) n - 1
REM
REM Run started: at 2020.12.27 15:02:12 in /rds/project/t2_vol4/rds-t2-cs072/BORA/CARBON/AIRSS/Generating-Clusters/Str-Search/Higher-Symm/C100-200
REM VASP from code version vasp.5.4.4.18Apr17-6-g9f103f2a35 (build Oct 11 2019 16:45:47) gamma-only
REM
REM
REM
REM
REM ./C.cell (533062f00bc710175b3da973d35f2034)
REM AIRSS Version 0.9.1 bugfix July 2018 build 013d7b7c2542+ Fri, 06 Jul 2018 19:26:36 +0100
REM compiler GCC version 4.8.5 20150623 (Red Hat 4.8.5-39)
REM options -cpp -mtune=generic -march=x86-64 -g -O0
REM seed -1065076782 -916667018 493644916 454792220 -1055967643 -241061501 -1294947534 -65014895 -694631969 -992487796 -443651721 802421067
REM
REM C.POTCAR (d86ddea03c3ceb6dc662c8ad6801f873)
REM 
CELL 1.54180   15.00000   15.00000   15.00000   90.00000   90.00000   90.00000
LATT -1
SFAC C  
C      1  0.4201420194363  0.7506248450785  0.6837077432132 1.0
C      1  0.3831379553022  0.7301046573987  0.3651226429496 1.0
C      1  0.5010766215037  0.7412210317398  0.4677802159006 1.0
C      1  0.2876839724889  0.2555878251974  0.5408746390084 1.0
C      1  0.6471022171634  0.6542540245974  0.2714638570152 1.0
C      1  0.5905141321678  0.5429272684172  0.4231519784982 1.0
C      1  0.7107944515090  0.7446664942092  0.4342939014005 1.0
C      1  0.3850411660190  0.4887486528048  0.3775235046842 1.0
C      1  0.3005469925320  0.6816379383496  0.6886865478236 1.0
C      1  0.4527999076494  0.5384732138143  0.8062515681190 1.0
C      1  0.6948841803998  0.3743288670163  0.5282489441583 1.0
C      1  0.6026045149158  0.6016781690891  0.6118216541693 1.0
C      1  0.8872516606238  0.6717886104449  0.6073434721496 1.0
C      1  0.3572435752468  0.2432041852268  0.6030758620746 1.0
C      1  0.5127447219363  0.1958248467161  0.5514129601564 1.0
C      1  0.5940778843773  0.7645055685374  0.6389916435604 1.0
C      1  0.6465128811812  0.6919782287380  0.3682830939230 1.0
C      1  0.4425770172956  0.4524103590766  0.2077590051865 1.0
C      1  0.7913190665554  0.5186802552729  0.5626108113025 1.0
C      1  0.3473565702167  0.7413747689343  0.5275686661415 1.0
C      1  0.5486782828373  0.4032087701269  0.3589504042568 1.0
C      1  0.4295697396220  0.2922374272490  0.7375161144817 1.0
C      1  0.4508608244099  0.4464401664356  0.7697502206896 1.0
C      1  0.5574044283299  0.2363213365431  0.3441286555529 1.0
C      1  0.5989007145888  0.4772087540349  0.3505748698456 1.0
C      1  0.6365958860243  0.4804356325081  0.2554144123470 1.0
C      1  0.3589251945008  0.5547470939616  0.5636788251780 1.0
C      1  0.2190774289824  0.5966793546538  0.4714429264859 1.0
C      1  0.2466429762630  0.3562956449701  0.4322896157241 1.0
C      1  0.8283056046207  0.6002942699898  0.5885999693945 1.0
C      1  0.2553434511830  0.6048732489579  0.6666068837554 1.0
C      1  0.5440932621824  0.4455751220216  0.2076702776312 1.0
C      1  0.3448747888258  0.4441665355054  0.7499163811342 1.0
C      1  0.5813409015078  0.2769643555894  0.6899922750132 1.0
C      1  0.4170741133995  0.6206878567098  0.2187650223103 1.0
C      1  0.5752211815764  0.8524902604011  0.6694738869011 1.0
C      1  0.3050522502951  0.2862468666499  0.3910689004307 1.0
C      1  0.4351599597969  0.6126375469458  0.5525971476500 1.0
C      1  0.6973897951794  0.4148280590368  0.6850188277935 1.0
C      1  0.2951277656263  0.5323144101732  0.2561820459193 1.0
C      1  0.6702634892136  0.6904975070314  0.5083969748099 1.0
C      1  0.1939114703118  0.5044073440187  0.4618775736177 1.0
C      1  0.2558557392568  0.6495323409595  0.4060100853680 1.0
C      1  0.2284683162467  0.4431183318546  0.3989658625776 1.0
C      1  0.7182693057776  0.4543625213464  0.5932159082971 1.0
C      1  0.4522437392958  0.4040286097650  0.6077843679670 1.0
C      1  0.4704813989291  0.7618000787153  0.3829384861009 1.0
C      1  0.6663598118803  0.6133341019894  0.4357866679629 1.0
C      1  0.8371971203231  0.6789187499058  0.5293911407184 1.0
C      1  0.2529039588535  0.5759004034681  0.5683295625869 1.0
C      1  0.3758523905117  0.4701005595257  0.5987215946726 1.0
C      1  0.6910971860636  0.5696548176572  0.2619964044578 1.0
C      1  0.3905019875066  0.3194683045503  0.3464944451355 1.0
C      1  0.5455191825729  0.6958882372929  0.3886257234444 1.0
C      1  0.3143921444582  0.2174244507643  0.4551460856707 1.0
C      1  0.2042354452652  0.4873058332952  0.5543009605491 1.0
C      1  0.7990153852427  0.5164249347020  0.4680459808030 1.0
C      1  0.5090651386766  0.7830978342644  0.6708508295188 1.0
C      1  0.4375898971547  0.7032240098664  0.5254261497857 1.0
C      1  0.5178959092232  0.4390062176966  0.6848233821424 1.0
C      1  0.4268825049317  0.6152993274558  0.7874911431548 1.0
C      1  0.5745033244570  0.6696049162244  0.2190419279103 1.0
C      1  0.4733879830754  0.1998788896890  0.4615361649393 1.0
C      1  0.3805760016470  0.5310940594441  0.2083881020439 1.0
C      1  0.6383435998167  0.6915053548340  0.5952205722761 1.0
C      1  0.4280459189937  0.3571443487938  0.2527855010490 1.0
C      1  0.7700472977892  0.5949454367872  0.4110982096927 1.0
C      1  0.7940905425341  0.6901046531706  0.4469638959321 1.0
C      1  0.5156077815425  0.6006753942485  0.3880735811435 1.0
C      1  0.4981677789472  0.3677050620602  0.4346899577318 1.0
C      1  0.5724101675858  0.2512720109329  0.5977150703299 1.0
C      1  0.5180651174816  0.5659704252119  0.5687721179379 1.0
C      1  0.5560317353205  0.5250084716739  0.6530639397506 1.0
C      1  0.2791792687831  0.4891222924063  0.8041456164991 1.0
C      1  0.7457502721015  0.4210985916540  0.7598303658275 1.0
C      1  0.6329358695930  0.5115963514603  0.5828813252592 1.0
C      1  0.4967034737191  0.6543057418522  0.1921927634883 1.0
C      1  0.5642256018784  0.4971782344207  0.5117185496113 1.0
C      1  0.4633590370755  0.3485491753072  0.8052820452040 1.0
C      1  0.7766101668555  0.4606192919716  0.3291200789185 1.0
C      1  0.3897936360988  0.1590570863229  0.4759905129345 1.0
C      1  0.4312594373802  0.5741708927741  0.3662672366305 1.0
C      1  0.2417506577865  0.3375395837423  0.5276332922145 1.0
C      1  0.7361492531936  0.3631676948718  0.4448401811513 1.0
C      1  0.6049219527902  0.3446213726223  0.5670453328439 1.0
C      1  0.4171328085177  0.1755412069699  0.5696061597082 1.0
C      1  0.2638970187596  0.5214683786676  0.7160915019823 1.0
C      1  0.4141357500096  0.4046196300255  0.3992164749732 1.0
C      1  0.2945720218498  0.4849055565211  0.3383878751836 1.0
C      1  0.3775384680149  0.6478254066715  0.3090047796610 1.0
C      1  0.7938895481073  0.4379570846703  0.4192065718454 1.0
C      1  0.4800164330095  0.2723224271087  0.3954492549714 1.0
C      1  0.7950886426012  0.4280047872776  0.8301209143817 1.0
C      1  0.7111592501571  0.4047905552699  0.2913427189170 1.0
C      1  0.7638610668043  0.5539702313624  0.3179416667297 1.0
C      1  0.3017760988254  0.4417565482675  0.6591206825303 1.0
C      1  0.3847698521388  0.6876371884658  0.7445096878238 1.0
C      1  0.5177508199656  0.2755095784434  0.7594550622409 1.0
C      1  0.5260970534335  0.3991183757889  0.5260961546380 1.0
C      1  0.2846180555510  0.6111953974212  0.3164559541426 1.0
C      1  0.5185001511807  0.3776658547087  0.2711709757696 1.0
C      1  0.6354767545553  0.2675795230097  0.3484592654565 1.0
C      1  0.6059335675812  0.3723025261527  0.6709068685552 1.0
C      1  0.7022167996393  0.3293020819360  0.3556548135106 1.0
C      1  0.2337827895428  0.4080826523991  0.5910493390966 1.0
C      1  0.3373699748445  0.7453209315684  0.6225621474016 1.0
C      1  0.3167966907968  0.7214663759560  0.4342167347002 1.0
C      1  0.4026529277004  0.3142548296140  0.6494475511898 1.0
END
