TITL C-29086-3345-112 -1.785 3375.00 -282.56346735 0 0 36 (C1) n - 1
REM
REM Run started: at 2020.12.20 12:55:24 in /gpfs/home/chem/mssmkc/CARBON/AIRSS/Generating-Clusters/Str-Search/Higher-Symm/C4-100
REM VASP from code version vasp.5.4.4.18Apr17-6-g9f103f2a35 (build Oct 11 2019 16:45:47) gamma-only
REM
REM
REM
REM
REM ./C.cell (6bd13a13d554368a30d355f37ece5b26)
REM AIRSS Version 0.9.1 bugfix July 2018 build 013d7b7c2542+ Fri, 06 Jul 2018 19:26:36 +0100
REM compiler GCC version 6.3.0
REM options -cpp -iprefix /gpfs/warwick/csc/orac/software/Core/GCCcore/6.3.0/bin/../lib/gcc/x86_64-pc-linux-gnu/6.3.0/ -mtune=generic -march=x86-64 -g -O0
REM seed 1395490495 1984040425 -996618202 1070134300 2048587512 434333760 -1392711084 -27146775 846490089 1459346623 -1401633903 190643408
REM
REM C.POTCAR (d86ddea03c3ceb6dc662c8ad6801f873)
REM 
CELL 1.54180   15.00000   15.00000   15.00000   90.00000   90.00000   90.00000
LATT -1
SFAC C  
C      1  0.4396457559528  0.5812713441267  0.6733377180585 1.0
C      1  0.3156513609449  0.5905238153379  0.4886000294230 1.0
C      1  0.4599078946761  0.5791750920573  0.3253020694722 1.0
C      1  0.6620867176905  0.5820654945047  0.4004040916859 1.0
C      1  0.6474511136675  0.5829245175509  0.6197243964025 1.0
C      1  0.3867727267576  0.4173350846105  0.3462980362891 1.0
C      1  0.6223061770800  0.4183903278903  0.3402604110166 1.0
C      1  0.6963659186415  0.4197092916945  0.5643813972641 1.0
C      1  0.5061386138325  0.4194371431756  0.7025327571575 1.0
C      1  0.3198715770856  0.4171895053743  0.5571218800645 1.0
C      1  0.5436599535481  0.3806377994425  0.3053081006652 1.0
C      1  0.7087770701717  0.3795964341966  0.4807932358194 1.0
C      1  0.5897139369952  0.3806778943572  0.6865370216158 1.0
C      1  0.3541319694607  0.3805975047256  0.6365269103531 1.0
C      1  0.3226381111527  0.3758655324880  0.3982030766655 1.0
C      1  0.6141353195209  0.5126309347169  0.3530633036794 1.0
C      1  0.6783254058210  0.5145519375783  0.5581098678656 1.0
C      1  0.5071376770837  0.5135516774002  0.6866528951406 1.0
C      1  0.3554252451016  0.5092790752067  0.5426959546195 1.0
C      1  0.4073084623143  0.5094953076899  0.3786608740479 1.0
C      1  0.6793635305208  0.3794333881102  0.4032517826338 1.0
C      1  0.6587545867465  0.3804215759975  0.6405388738721 1.0
C      1  0.4224077401312  0.3812510421665  0.6832882647236 1.0
C      1  0.2972369072358  0.3756452318304  0.4777532006881 1.0
C      1  0.4609241464523  0.3802975804807  0.3023931293429 1.0
C      1  0.5051503973950  0.6484526469465  0.7028991808955 1.0
C      1  0.3089110257015  0.6382432212604  0.5704247144141 1.0
C      1  0.3861200389635  0.6385856149667  0.3294772809288 1.0
C      1  0.6234712680022  0.6472459913959  0.3380529753637 1.0
C      1  0.6936033840480  0.6463940443142  0.5621129460143 1.0
C      1  0.3663497719413  0.5788054309434  0.6168349315920 1.0
C      1  0.3440724853416  0.5906170150681  0.3999967112118 1.0
C      1  0.5524214796544  0.5808040936756  0.3234442959408 1.0
C      1  0.6891109045315  0.5820279662280  0.4891758314067 1.0
C      1  0.5734823313538  0.5832058222610  0.6759379114231 1.0
C      1  0.4305830944816  0.5268942202298  0.4762464422429 1.0
END
