TITL C-29123-7884-50 -4.464 3375.00 -793.39869879 0 0 97 (C1) n - 1
REM
REM Run started: at 2020.12.20 02:56:46 in /gpfs/home/chem/mssmkc/CARBON/AIRSS/Generating-Clusters/Str-Search/Higher-Symm/C4-100
REM VASP from code version vasp.5.4.4.18Apr17-6-g9f103f2a35 (build Oct 11 2019 16:45:47) gamma-only
REM
REM
REM
REM
REM ./C.cell (6bd13a13d554368a30d355f37ece5b26)
REM AIRSS Version 0.9.1 bugfix July 2018 build 013d7b7c2542+ Fri, 06 Jul 2018 19:26:36 +0100
REM compiler GCC version 6.3.0
REM options -cpp -iprefix /gpfs/warwick/csc/orac/software/Core/GCCcore/6.3.0/bin/../lib/gcc/x86_64-pc-linux-gnu/6.3.0/ -mtune=generic -march=x86-64 -g -O0
REM seed 760337497 1258605089 270309261 1828743573 1497913840 -1310570914 1416163309 451706897 44196324 1888359290 -587024695 463161893
REM
REM C.POTCAR (d86ddea03c3ceb6dc662c8ad6801f873)
REM 
CELL 1.54180   15.00000   15.00000   15.00000   90.00000   90.00000   90.00000
LATT -1
SFAC C  
C      1  0.4048258846823  0.6086608101501  0.5004763319029 1.0
C      1  0.5504576876826  0.6051695287146  0.5840028006318 1.0
C      1  0.5517496557717  0.6076575877679  0.4140396479775 1.0
C      1  0.6003158390913  0.6073698477871  0.4992465053683 1.0
C      1  0.4526975730846  0.6039268690407  0.5857371618122 1.0
C      1  0.4540099410841  0.6092896815292  0.4152126822961 1.0
C      1  0.3071496090699  0.4253855188421  0.3302506812281 1.0
C      1  0.4527329087182  0.4087369564485  0.7393678425352 1.0
C      1  0.7445605194193  0.4224303994636  0.4122112718588 1.0
C      1  0.6951533010433  0.4214355922316  0.3302526357670 1.0
C      1  0.5507157935819  0.4104285455576  0.7403471125411 1.0
C      1  0.2578867199434  0.4265849068837  0.4123072119365 1.0
C      1  0.6073361336073  0.4652289454843  0.3117206728178 1.0
C      1  0.2841743669540  0.4685855646300  0.4989605377434 1.0
C      1  0.6141988675315  0.4621279901724  0.6811730649362 1.0
C      1  0.3954561322004  0.4679234005246  0.3114273767242 1.0
C      1  0.7189175187852  0.4650531288173  0.4987378468493 1.0
C      1  0.3900992224944  0.4592234954557  0.6796756892038 1.0
C      1  0.2621237835568  0.2591945008000  0.4166911579974 1.0
C      1  0.5487975742983  0.2944891075580  0.7344055691326 1.0
C      1  0.6887121216842  0.2553147402935  0.3336173883046 1.0
C      1  0.7383317647410  0.2546747697739  0.4167914776294 1.0
C      1  0.4530331163844  0.2950921501627  0.7342674448819 1.0
C      1  0.3114902948856  0.2586202057540  0.3335701746695 1.0
C      1  0.3259326563336  0.6149625343996  0.6615979747146 1.0
C      1  0.7283018072374  0.6202798808996  0.5723254190682 1.0
C      1  0.4532654139322  0.6233953179993  0.2675312426026 1.0
C      1  0.6771311422897  0.6194050490254  0.6578717780076 1.0
C      1  0.2779236656120  0.6229415769655  0.5738109050500 1.0
C      1  0.5529333479806  0.6213809900037  0.2671426153767 1.0
C      1  0.5466068864912  0.2988175419063  0.2836660184233 1.0
C      1  0.2813347082810  0.2997388476428  0.5662051200296 1.0
C      1  0.6759126666963  0.2992024918234  0.6484336367140 1.0
C      1  0.4538791129632  0.2995736601807  0.2836310498622 1.0
C      1  0.7195360467902  0.2975844441538  0.5663552215282 1.0
C      1  0.3246509330426  0.2997490860286  0.6486396863650 1.0
C      1  0.2193996874386  0.3409648799977  0.3941633510713 1.0
C      1  0.5534419333762  0.3491218689756  0.8184251857521 1.0
C      1  0.7298783511619  0.3359744386942  0.3045933066003 1.0
C      1  0.7812455018958  0.3362131939723  0.3939122001137 1.0
C      1  0.4492741156029  0.3492680891281  0.8188588734288 1.0
C      1  0.2717984820116  0.3401905020722  0.3052809288948 1.0
C      1  0.7301803671742  0.3989083922603  0.5717502809571 1.0
C      1  0.4545932698232  0.4004433779666  0.2682081618331 1.0
C      1  0.3161447366455  0.4000054771753  0.6520780659677 1.0
C      1  0.2710922436329  0.4015206591536  0.5715188132869 1.0
C      1  0.5470319602027  0.3993253247852  0.2685084409603 1.0
C      1  0.6866315852475  0.3999649420154  0.6531925131065 1.0
C      1  0.6257078028067  0.5569795371517  0.2736391031308 1.0
C      1  0.2469312240206  0.5628244963182  0.5050416840577 1.0
C      1  0.6351580353458  0.5546729921141  0.7167895584388 1.0
C      1  0.3795897289605  0.5609678564746  0.2753025312635 1.0
C      1  0.7585912635000  0.5575455854130  0.5047191834367 1.0
C      1  0.3688049837107  0.5486237371238  0.7186070886439 1.0
C      1  0.4481961204692  0.7523658899630  0.6613732024508 1.0
C      1  0.6532479986206  0.7617397864961  0.4667394566704 1.0
C      1  0.4031283599691  0.7648141566414  0.3833536059448 1.0
C      1  0.5402332232827  0.7579550365795  0.6426475869881 1.0
C      1  0.3614770024970  0.7675136937611  0.4678193099517 1.0
C      1  0.6124295787656  0.7605883193541  0.3801328119621 1.0
C      1  0.6104194230457  0.5025201930574  0.4977280539495 1.0
C      1  0.4472789406418  0.5047079668373  0.4053450669562 1.0
C      1  0.4472519038278  0.4995015803810  0.5907794738045 1.0
C      1  0.3929279505874  0.5039519059857  0.4975698945886 1.0
C      1  0.5561197880008  0.5032397249354  0.4052259429475 1.0
C      1  0.5567717153345  0.5003758262441  0.5908902442099 1.0
C      1  0.5439016738972  0.8193842015603  0.3594311493214 1.0
C      1  0.3893968574556  0.8323006083643  0.5308365409603 1.0
C      1  0.5567044361769  0.8316538987422  0.5799005697630 1.0
C      1  0.4619943457049  0.8273165677231  0.3439382727425 1.0
C      1  0.6216125731135  0.8327216650322  0.5159055217740 1.0
C      1  0.4060499705657  0.8266151649527  0.6212841628521 1.0
C      1  0.4079391152637  0.6719904545253  0.3454780046313 1.0
C      1  0.4147960517822  0.6618191922854  0.6668718563096 1.0
C      1  0.6850000553895  0.6696533676609  0.4937153779132 1.0
C      1  0.6005341110343  0.6682649491613  0.3441948061269 1.0
C      1  0.5863087890324  0.6689663763693  0.6585468023668 1.0
C      1  0.3247396029036  0.6753175260551  0.4958149283815 1.0
C      1  0.4555725597234  0.6006553824235  0.7347382960429 1.0
C      1  0.7289335184718  0.6106827519344  0.4236643272214 1.0
C      1  0.3248734775195  0.6146437743159  0.3431259253181 1.0
C      1  0.5498461563049  0.6065049128862  0.7317487617259 1.0
C      1  0.2786196251656  0.6171811877158  0.4255688044864 1.0
C      1  0.6817040358374  0.6087630537650  0.3415236786097 1.0
C      1  0.4034688916305  0.2547883343216  0.6627800473524 1.0
C      1  0.6905293937639  0.2417788404428  0.4980626871096 1.0
C      1  0.4049950088916  0.2428747894594  0.3379201665574 1.0
C      1  0.5973868048693  0.2540030266401  0.6628170900715 1.0
C      1  0.3098712369178  0.2443454891773  0.4976763486580 1.0
C      1  0.5949661517770  0.2414356586064  0.3379490859024 1.0
C      1  0.4517498165353  0.2068201967662  0.4177483766875 1.0
C      1  0.4513084110456  0.2161841466118  0.5853392420703 1.0
C      1  0.5971975025696  0.2086703083914  0.5017987179144 1.0
C      1  0.5480416940606  0.2061836979310  0.4178518159906 1.0
C      1  0.5488687610145  0.2157619432744  0.5854086200145 1.0
C      1  0.4027528457050  0.2099358159514  0.5016195761222 1.0
C      1  0.4682587303321  0.8769055210533  0.5689372631464 1.0
END
