TITL C-29013-524-2 -4.859 3375.00 -821.46547873 0 0 103 (C1) n - 1
REM
REM Run started: at 2020.12.30 03:16:06 in /rds/project/t2_vol4/rds-t2-cs072/BORA/CARBON/AIRSS/Generating-Clusters/Str-Search/Higher-Symm/C100-200
REM VASP from code version vasp.5.4.4.18Apr17-6-g9f103f2a35 (build Oct 11 2019 16:45:47) gamma-only
REM
REM
REM
REM
REM ./C.cell (533062f00bc710175b3da973d35f2034)
REM AIRSS Version 0.9.1 bugfix July 2018 build 013d7b7c2542+ Fri, 06 Jul 2018 19:26:36 +0100
REM compiler GCC version 4.8.5 20150623 (Red Hat 4.8.5-39)
REM options -cpp -mtune=generic -march=x86-64 -g -O0
REM seed 1000743931 -980826064 -295800962 838529107 -1876941051 1869169751 -1252491223 -320559700 -358214625 -1983772342 1909789476 -1936520145
REM
REM C.POTCAR (d86ddea03c3ceb6dc662c8ad6801f873)
REM 
CELL 1.54180   15.00000   15.00000   15.00000   90.00000   90.00000   90.00000
LATT -1
SFAC C  
C      1  0.2358805242184  0.2401731954309  0.5753664868218 1.0
C      1  0.2319090072949  0.7474171417616  0.4265123206822 1.0
C      1  0.7816315692386  0.7068054899992  0.5911826611445 1.0
C      1  0.7721689611568  0.2913161816668  0.4019232609155 1.0
C      1  0.8164431826492  0.5619549495689  0.5761740752752 1.0
C      1  0.8138249387329  0.4345343379547  0.4206460009498 1.0
C      1  0.2017708552594  0.4129391103312  0.5584812672564 1.0
C      1  0.1972743204352  0.5781396338589  0.4440259960201 1.0
C      1  0.6852766255878  0.5760138324427  0.7586578637228 1.0
C      1  0.6754595945589  0.4280720617188  0.2352324968492 1.0
C      1  0.2932425631465  0.4228392830251  0.7369616102556 1.0
C      1  0.3155823698916  0.5653156223108  0.2434261977386 1.0
C      1  0.2076984178481  0.6626227227728  0.4066095343930 1.0
C      1  0.2147796462797  0.3274268827556  0.5904536985869 1.0
C      1  0.8320223389407  0.3575468551317  0.3758669963928 1.0
C      1  0.8408405295020  0.6394778805633  0.6172987167597 1.0
C      1  0.6884700891006  0.2993109986068  0.3619902419154 1.0
C      1  0.6986108946232  0.7025901161869  0.6322367980413 1.0
C      1  0.2966705039902  0.6941294227857  0.3671300650646 1.0
C      1  0.3024745123391  0.2984376093329  0.6272947534557 1.0
C      1  0.2791742467547  0.6638579672167  0.6561983349538 1.0
C      1  0.2730404172768  0.3275233650354  0.3510616846008 1.0
C      1  0.7316550068318  0.3447766138886  0.6488225870986 1.0
C      1  0.7370689080998  0.6515704981717  0.3461932462913 1.0
C      1  0.4227372107799  0.6661598933683  0.2699618162845 1.0
C      1  0.4333984975516  0.3435525667935  0.7248183856730 1.0
C      1  0.5687085016766  0.3274252186584  0.2694278726783 1.0
C      1  0.5818804761437  0.6868366500844  0.7306091376928 1.0
C      1  0.3164445449066  0.5104265997421  0.7564696329570 1.0
C      1  0.2948921465734  0.4692266081881  0.2460278009101 1.0
C      1  0.7026448010981  0.4787517207570  0.7608061408909 1.0
C      1  0.6984593068959  0.5222452903675  0.2333522301182 1.0
C      1  0.3334561589964  0.3439062596852  0.7129255775195 1.0
C      1  0.3295807879279  0.6531915157367  0.2787637343756 1.0
C      1  0.6711775719477  0.6590268009904  0.7162176531906 1.0
C      1  0.6601587631193  0.3457157804155  0.2794095353609 1.0
C      1  0.6366779157685  0.5248594899307  0.5853787941510 1.0
C      1  0.6367033506866  0.4748099137800  0.4144989157056 1.0
C      1  0.3752847483975  0.4816455013554  0.5888453059589 1.0
C      1  0.3670930615788  0.5190030183632  0.4113155885413 1.0
C      1  0.5428706420757  0.4836960399544  0.7325901094459 1.0
C      1  0.5393544857819  0.5299045244929  0.2683039429404 1.0
C      1  0.4692086240966  0.5580567050506  0.7236783976746 1.0
C      1  0.4561507297381  0.4627695122397  0.2690855459767 1.0
C      1  0.4070318654581  0.5565260599259  0.6436054738325 1.0
C      1  0.3982438015985  0.4494303965734  0.3537176337878 1.0
C      1  0.6017040043427  0.4564630920929  0.6494202692021 1.0
C      1  0.6048941985773  0.5421057269076  0.3512260400049 1.0
C      1  0.2732713755445  0.2102784142944  0.4877522140013 1.0
C      1  0.2706549535534  0.7763697282874  0.5143044009501 1.0
C      1  0.7709240925995  0.7423003122375  0.5001665917387 1.0
C      1  0.7625593644339  0.2543626904264  0.4928849339888 1.0
C      1  0.5184923568066  0.7198006679702  0.6687857003030 1.0
C      1  0.5043523153509  0.2978681065371  0.3309238880269 1.0
C      1  0.4854609917401  0.2839766567589  0.6703886746791 1.0
C      1  0.4910853896963  0.6923994090534  0.3322924376814 1.0
C      1  0.6921982945597  0.5840293676470  0.3099457977133 1.0
C      1  0.6897036798818  0.4134275352833  0.6867896336474 1.0
C      1  0.3094796179337  0.4024838654845  0.3181090112113 1.0
C      1  0.3192892038341  0.5903561690531  0.6874074793013 1.0
C      1  0.8840983852508  0.5111105971316  0.5364183428968 1.0
C      1  0.8834596864421  0.4856903359082  0.4565956709932 1.0
C      1  0.1315702695215  0.4551949476377  0.5173979092739 1.0
C      1  0.1278832990735  0.5282342810392  0.4759777287080 1.0
C      1  0.3766013352244  0.4067941248674  0.5260889021641 1.0
C      1  0.3722492467247  0.5940570363127  0.4719024922240 1.0
C      1  0.6329816051387  0.6016591768118  0.5225366461132 1.0
C      1  0.6300322583752  0.3992418060332  0.4770037923536 1.0
C      1  0.4654840178362  0.4234263083740  0.7642524859369 1.0
C      1  0.5053723108504  0.6253104180470  0.2652599457469 1.0
C      1  0.4966341337801  0.6526816738386  0.7332221748453 1.0
C      1  0.4853983349099  0.3659756849876  0.2644289242040 1.0
C      1  0.6214011552956  0.5132774234681  0.7893796622821 1.0
C      1  0.6131481379759  0.4946046870394  0.2055983692716 1.0
C      1  0.4089739408875  0.4977944928929  0.7793800266844 1.0
C      1  0.3776527745749  0.4995162862427  0.2138338695461 1.0
C      1  0.7283602994773  0.2882111021549  0.5808035296916 1.0
C      1  0.7358542918267  0.7080874776411  0.4140682427157 1.0
C      1  0.2914306203198  0.7230842923119  0.5885130576882 1.0
C      1  0.2904218537725  0.2656514314945  0.4137963374440 1.0
C      1  0.6280178799144  0.7050026022488  0.5534194722168 1.0
C      1  0.6204084973601  0.2982036518583  0.4427144170925 1.0
C      1  0.3746629808335  0.3145810632502  0.5580573577364 1.0
C      1  0.3725214508956  0.6851853983996  0.4353750035012 1.0
C      1  0.4652952004637  0.7177542164996  0.4187298417207 1.0
C      1  0.4652308192241  0.2752170518505  0.5835982952004 1.0
C      1  0.5240945294695  0.2730725567841  0.4214063495452 1.0
C      1  0.5334908367856  0.7355322894425  0.5769386116760 1.0
C      1  0.4294080215680  0.4451558100182  0.4488248075322 1.0
C      1  0.4295505011811  0.5586223777775  0.5466373927993 1.0
C      1  0.5795939155915  0.5552771352458  0.4472463992887 1.0
C      1  0.5772228905431  0.4474999819842  0.5520795189631 1.0
C      1  0.3663545515642  0.7467709497744  0.5173649470732 1.0
C      1  0.3653845954690  0.2481151306225  0.4822680058164 1.0
C      1  0.6733611717144  0.2478149312434  0.5138276612589 1.0
C      1  0.6816302459337  0.7515181937720  0.4803286371572 1.0
C      1  0.2895881011598  0.4633842696966  0.5388264062429 1.0
C      1  0.2860433409094  0.5353271283138  0.4671924342735 1.0
C      1  0.7223220712597  0.5356031075475  0.5360903645360 1.0
C      1  0.7217393829272  0.4621851412952  0.4635421319356 1.0
C      1  0.4662761668953  0.2438176266033  0.4882982719768 1.0
C      1  0.4683967605615  0.7488819423342  0.5109923386496 1.0
C      1  0.5040862751096  0.5024708781989  0.4982023297219 1.0
END
