TITL C-29737-7294-15 -7.806 3375.00 -1419.12726853 0 0 174 (C2v) n - 1
REM
REM Run started: at 2021.01.04 17:04:36 in /gpfs/home/chem/mssmkc/CARBON/AIRSS/Generating-Clusters/Str-Search/Higher-Symm/C100-200
REM VASP from code version vasp.5.4.4.18Apr17-6-g9f103f2a35 (build Oct 11 2019 16:45:47) gamma-only
REM
REM
REM
REM
REM ./C.cell (533062f00bc710175b3da973d35f2034)
REM AIRSS Version 0.9.1 bugfix July 2018 build 013d7b7c2542+ Fri, 06 Jul 2018 19:26:36 +0100
REM compiler GCC version 6.3.0
REM options -cpp -iprefix /gpfs/warwick/csc/orac/software/Core/GCCcore/6.3.0/bin/../lib/gcc/x86_64-pc-linux-gnu/6.3.0/ -mtune=generic -march=x86-64 -g -O0
REM seed -1712837444 894807732 -1264807514 566755722 -109150080 -173281213 -2010930216 1025507382 1314116253 -1033795498 1551768755 1367814731
REM
REM C.POTCAR (d86ddea03c3ceb6dc662c8ad6801f873)
REM 
CELL 1.54180   15.00000   15.00000   15.00000   90.00000   90.00000   90.00000
LATT -1
SFAC C  
C      1  0.1545920669964  0.4354176961721  0.5481423080767 1.0
C      1  0.1570450356002  0.5172748663106  0.4043692665776 1.0
C      1  0.1618796014411  0.5991214870739  0.5473397767058 1.0
C      1  0.8454076946775  0.4354172258542  0.5481417671119 1.0
C      1  0.8429544493931  0.5172751138277  0.4043689877304 1.0
C      1  0.8381199274486  0.5991206689003  0.5473397623847 1.0
C      1  0.1545914304600  0.4354171420783  0.4518581309130 1.0
C      1  0.1570442062006  0.5172749442762  0.5956318390447 1.0
C      1  0.1618788762215  0.5991218729901  0.4526612037647 1.0
C      1  0.8454080337118  0.4354173397326  0.4518576426209 1.0
C      1  0.8429550627684  0.5172741293662  0.5956315933185 1.0
C      1  0.8381210952367  0.5991215214152  0.4526612718944 1.0
C      1  0.4070126694192  0.6417671654289  0.5872130541151 1.0
C      1  0.4461218179978  0.3111505661426  0.5984757055893 1.0
C      1  0.4065460972191  0.4843924009307  0.3186507345485 1.0
C      1  0.5929868459272  0.6417672218281  0.5872125577369 1.0
C      1  0.5538785457582  0.3111506947795  0.5984754892521 1.0
C      1  0.5934543768771  0.4843931161243  0.3186506826943 1.0
C      1  0.4070128403629  0.6417668103290  0.4127875952373 1.0
C      1  0.4461211149710  0.3111500873450  0.4015239808768 1.0
C      1  0.4065458892246  0.4843913775626  0.6813490432985 1.0
C      1  0.5929861894057  0.6417666834815  0.4127877770704 1.0
C      1  0.5538784691969  0.3111508151166  0.4015233902346 1.0
C      1  0.5934547693751  0.4843917481473  0.6813480423904 1.0
C      1  0.2049400636816  0.5981763043284  0.7322094536651 1.0
C      1  0.2064429657423  0.2807368437319  0.4551607507155 1.0
C      1  0.2070233619579  0.6755947857423  0.3132170533821 1.0
C      1  0.7950592497224  0.5981752941954  0.7322088945946 1.0
C      1  0.7935567105586  0.2807364568694  0.4551598178972 1.0
C      1  0.7929782203404  0.6755954645863  0.3132178256939 1.0
C      1  0.2049387294423  0.5981716969915  0.2677897580984 1.0
C      1  0.2064430619804  0.2807373056960  0.5448403358698 1.0
C      1  0.2070223118452  0.6755929716016  0.6867856577555 1.0
C      1  0.7950617918375  0.5981728304176  0.2677905029356 1.0
C      1  0.7935576167676  0.2807366580149  0.5448394672499 1.0
C      1  0.7929766099727  0.6755925729837  0.6867852925238 1.0
C      1  0.4498024869649  0.4712780439756  0.4071318681203 1.0
C      1  0.4500727340588  0.5616536583685  0.5484895659342 1.0
C      1  0.4025764550324  0.3912859960725  0.5519643365916 1.0
C      1  0.5501972597251  0.4712784060427  0.4071316777515 1.0
C      1  0.5499265099257  0.5616536561544  0.5484893180496 1.0
C      1  0.5974226169136  0.3912858410286  0.5519634615762 1.0
C      1  0.4498024227245  0.4712793585120  0.5928670960975 1.0
C      1  0.4500726267233  0.5616527097599  0.4515101293344 1.0
C      1  0.4025763599051  0.3912857022939  0.4480346452614 1.0
C      1  0.5501974687916  0.4712793686219  0.5928665472594 1.0
C      1  0.5499262702397  0.5616527398614  0.4515101156396 1.0
C      1  0.5974228604329  0.3912860296049  0.4480339177619 1.0
C      1  0.5538935384081  0.7298008079882  0.4495339478551 1.0
C      1  0.5543902662897  0.4015673232642  0.7408036055789 1.0
C      1  0.5577250570461  0.3069857777697  0.2973620123269 1.0
C      1  0.4461058223249  0.7298009047230  0.4495336413669 1.0
C      1  0.4456106423163  0.4015675449971  0.7408039723874 1.0
C      1  0.4422754200757  0.3069853065042  0.2973623200848 1.0
C      1  0.5538931104168  0.7298000589937  0.5504664519387 1.0
C      1  0.5543901383130  0.4015679427617  0.2591949350999 1.0
C      1  0.5577229448124  0.3069856943531  0.7026365627941 1.0
C      1  0.4461059572765  0.7298001688509  0.5504666199149 1.0
C      1  0.4456101458349  0.4015675384183  0.2591953502897 1.0
C      1  0.4422774625419  0.3069856910161  0.7026369758970 1.0
C      1  0.3844342292811  0.1438099608220  0.4526087151962 1.0
C      1  0.4094907048824  0.7008641526828  0.2485644214057 1.0
C      1  0.4119967992271  0.6246133578994  0.8071410659279 1.0
C      1  0.6155668140201  0.1438117293926  0.4526064594005 1.0
C      1  0.5905085827281  0.7008647277556  0.2485645492029 1.0
C      1  0.5880039086658  0.6246132392703  0.8071407122766 1.0
C      1  0.3844346957737  0.1438087936958  0.5473929016543 1.0
C      1  0.4094940417601  0.7008641374891  0.7514373474466 1.0
C      1  0.4119957143426  0.6246144785047  0.1928595321465 1.0
C      1  0.6155665208858  0.1438074897520  0.5473895814920 1.0
C      1  0.5905063125400  0.7008641845760  0.7514374604343 1.0
C      1  0.5880034013493  0.6246153120838  0.1928595919268 1.0
C      1  0.7076387162855  0.3191954755599  0.2438406431987 1.0
C      1  0.6832008105713  0.8219528846654  0.4534151599449 1.0
C      1  0.6970310242793  0.4011791654170  0.8005249257731 1.0
C      1  0.2923614316976  0.3191940434365  0.2438418022852 1.0
C      1  0.3167984278997  0.8219527876490  0.4534155881447 1.0
C      1  0.3029701463407  0.4011796501947  0.8005251980672 1.0
C      1  0.7076383978697  0.3191929115977  0.7561568842153 1.0
C      1  0.6832005768441  0.8219525572184  0.5465867190394 1.0
C      1  0.6970310346168  0.4011836373887  0.1994740652374 1.0
C      1  0.2923626756226  0.3191935114487  0.7561565965598 1.0
C      1  0.3167981034749  0.8219527940934  0.5465869757731 1.0
C      1  0.3029696775161  0.4011818448464  0.1994749297195 1.0
C      1  0.4480836659014  0.2209497080593  0.5513613232036 1.0
C      1  0.4460829999939  0.5630388917365  0.2699140330158 1.0
C      1  0.4466327970905  0.6463807433665  0.6771386783725 1.0
C      1  0.5519174141138  0.2209496391699  0.5513603057139 1.0
C      1  0.5539170802033  0.5630392057093  0.2699138087992 1.0
C      1  0.5533676708068  0.6463809974124  0.6771386195876 1.0
C      1  0.4480835588403  0.2209499533465  0.4486391309021 1.0
C      1  0.4460828009754  0.5630375591925  0.7300865325802 1.0
C      1  0.4466324960765  0.6463821327661  0.3228616298817 1.0
C      1  0.5519164498447  0.2209508256309  0.4486386753751 1.0
C      1  0.5539177582134  0.5630377008282  0.7300863690173 1.0
C      1  0.5533669908875  0.6463822451448  0.3228616495069 1.0
C      1  0.6048021285978  0.7875768918532  0.7106203856800 1.0
C      1  0.6563276725015  0.1236378353506  0.6281004087006 1.0
C      1  0.5490010804638  0.5825693160672  0.1133886722743 1.0
C      1  0.3951976120833  0.7875771664385  0.7106200157368 1.0
C      1  0.3436751062979  0.1236379020998  0.6281021435549 1.0
C      1  0.4509985292694  0.5825690135602  0.1133884728032 1.0
C      1  0.6048015592769  0.7875788709500  0.2893815179972 1.0
C      1  0.6563289576012  0.1236374060768  0.3718977992002 1.0
C      1  0.5490022188697  0.5825668699250  0.8866123664990 1.0
C      1  0.3951969910186  0.7875781963594  0.2893820602768 1.0
C      1  0.3436719773576  0.1236377085553  0.3718977066094 1.0
C      1  0.4509991768369  0.5825669863940  0.8866123727387 1.0
C      1  0.5499746220003  0.4825127621277  0.8763200731222 1.0
C      1  0.6583638261162  0.1761169507856  0.3065053597883 1.0
C      1  0.5485299112801  0.8476465795856  0.3259182543128 1.0
C      1  0.4500265276830  0.4825128995882  0.8763206172821 1.0
C      1  0.3416355436418  0.1761153006150  0.3065092146796 1.0
C      1  0.4514691520453  0.8476462134243  0.3259175122648 1.0
C      1  0.5499737788932  0.4825150801098  0.1236772247975 1.0
C      1  0.6583593538022  0.1761134199482  0.6934937228013 1.0
C      1  0.5485315682283  0.8476462926466  0.6740839584343 1.0
C      1  0.4500262787486  0.4825148098983  0.1236781548515 1.0
C      1  0.3416424667081  0.1761129820908  0.6934982334244 1.0
C      1  0.4514682764910  0.8476467512749  0.6740837369174 1.0
C      1  0.2180355572898  0.3567603937038  0.3054473163744 1.0
C      1  0.2357732140825  0.7553747286926  0.4553895852597 1.0
C      1  0.2238327823077  0.4355805009727  0.7386385860975 1.0
C      1  0.7819658679190  0.3567605687491  0.3054462561057 1.0
C      1  0.7642251937443  0.7553743991361  0.4553903701568 1.0
C      1  0.7761673760723  0.4355798010012  0.7386382270038 1.0
C      1  0.2180357268218  0.3567594672384  0.6945518207745 1.0
C      1  0.2357730954677  0.7553744569419  0.5446112263686 1.0
C      1  0.2238316819798  0.4355832183742  0.2613624544297 1.0
C      1  0.7819653659035  0.3567587135962  0.6945515409600 1.0
C      1  0.7642261820797  0.7553747732742  0.5446117480006 1.0
C      1  0.7761681299811  0.4355840259669  0.2613622645134 1.0
C      1  0.7828736480299  0.5152592698648  0.6823113057094 1.0
C      1  0.7846102399630  0.3638305199230  0.4057476481155 1.0
C      1  0.7748740165198  0.6693338870712  0.4090523018219 1.0
C      1  0.2171255875404  0.5152600695314  0.6823121947706 1.0
C      1  0.2153899924728  0.3638306006920  0.4057485332054 1.0
C      1  0.2251248159230  0.6693346892671  0.4090514062746 1.0
C      1  0.7828734093758  0.5152627450715  0.3176884359335 1.0
C      1  0.7846111061996  0.3638302933999  0.5942508330537 1.0
C      1  0.7748742768346  0.6693349633423  0.5909472676365 1.0
C      1  0.2171259147934  0.5152620468389  0.3176883997887 1.0
C      1  0.2153890019434  0.3638310637264  0.5942517440547 1.0
C      1  0.2251251673451  0.6693354524132  0.5909475848851 1.0
C      1  0.6926454939601  0.5111143415365  0.3764934052152 1.0
C      1  0.6868972482859  0.6078545583567  0.5734555800388 1.0
C      1  0.6961835595092  0.4246300798813  0.5566040657802 1.0
C      1  0.3073545140708  0.5111137867613  0.3764945710113 1.0
C      1  0.3131023644867  0.6078549323833  0.5734564331721 1.0
C      1  0.3038163830919  0.4246299210877  0.5566045432652 1.0
C      1  0.6926459018185  0.5111125181631  0.6235055298837 1.0
C      1  0.6868966663662  0.6078543317330  0.4265427303657 1.0
C      1  0.6961830995259  0.4246292164612  0.4433946094800 1.0
C      1  0.3073539587673  0.5111129583911  0.6235062564213 1.0
C      1  0.3131025931116  0.6078547502292  0.4265425080297 1.0
C      1  0.3038166138070  0.4246295456977  0.4433958696988 1.0
C      1  0.6040928543048  0.8037041865522  0.6037480606900 1.0
C      1  0.6405698063894  0.2559725473766  0.7340913743912 1.0
C      1  0.6042406925170  0.4246558567317  0.1732484147321 1.0
C      1  0.3959062514458  0.8037045869402  0.6037482404599 1.0
C      1  0.3594309439415  0.2559724477401  0.7340914350103 1.0
C      1  0.3957592520085  0.4246551290700  0.1732486750133 1.0
C      1  0.6040933604509  0.8037053400891  0.3962529066708 1.0
C      1  0.6405731022547  0.2559742291153  0.2659061012137 1.0
C      1  0.6042415226539  0.4246515787563  0.8267508635920 1.0
C      1  0.3959062752933  0.8037063105891  0.3962532470872 1.0
C      1  0.3594274849223  0.2559733060918  0.2659074716097 1.0
C      1  0.3957595149183  0.4246515893823  0.8267519536146 1.0
C      1  0.8107057330240  0.6790061556983  0.2182322324608 1.0
C      1  0.1892966734731  0.6790063028530  0.2182310757325 1.0
C      1  0.1892983401032  0.6790051442373  0.7817656560794 1.0
C      1  0.8106993481073  0.6790050376791  0.7817665923150 1.0
C      1  0.8112460612893  0.1973565394183  0.5000009064579 1.0
C      1  0.1887539114435  0.1973567363705  0.5000015835606 1.0
END
