TITL C-29123-7884-14 -3.904 3375.00 -710.83691519 0 0 85 (C1) n - 1
REM
REM Run started: at 2020.12.19 19:30:28 in /gpfs/home/chem/mssmkc/CARBON/AIRSS/Generating-Clusters/Str-Search/Higher-Symm/C4-100
REM VASP from code version vasp.5.4.4.18Apr17-6-g9f103f2a35 (build Oct 11 2019 16:45:47) gamma-only
REM
REM
REM
REM
REM ./C.cell (6bd13a13d554368a30d355f37ece5b26)
REM AIRSS Version 0.9.1 bugfix July 2018 build 013d7b7c2542+ Fri, 06 Jul 2018 19:26:36 +0100
REM compiler GCC version 6.3.0
REM options -cpp -iprefix /gpfs/warwick/csc/orac/software/Core/GCCcore/6.3.0/bin/../lib/gcc/x86_64-pc-linux-gnu/6.3.0/ -mtune=generic -march=x86-64 -g -O0
REM seed -1854627188 -119460601 566737257 -184136175 1752832166 -1632328464 -1920078502 -1410259699 1133073459 1925978523 -779597350 36851649
REM
REM C.POTCAR (d86ddea03c3ceb6dc662c8ad6801f873)
REM 
CELL 1.54180   15.00000   15.00000   15.00000   90.00000   90.00000   90.00000
LATT -1
SFAC C  
C      1  0.4270625466711  0.2178396596383  0.4713434955709 1.0
C      1  0.4633379402252  0.2195448086826  0.5623790336426 1.0
C      1  0.5551976567453  0.2189703856583  0.5266004776395 1.0
C      1  0.5210119551992  0.2201095370252  0.4393783287849 1.0
C      1  0.4337079719819  0.7699150948411  0.4710463916015 1.0
C      1  0.4667341308595  0.7734906919372  0.5627041319441 1.0
C      1  0.5563210772962  0.7765611807802  0.5285739288510 1.0
C      1  0.5257569496745  0.7754064785940  0.4370316815590 1.0
C      1  0.5125930215154  0.3977975287006  0.2688867733802 1.0
C      1  0.2497772182657  0.3957410023814  0.4812067802475 1.0
C      1  0.4776509747330  0.3962399668140  0.7385717770058 1.0
C      1  0.7400089331362  0.3902578776735  0.5135356535758 1.0
C      1  0.5099320303064  0.5910800316512  0.2653177312733 1.0
C      1  0.2556382217412  0.5955474409203  0.4850187273264 1.0
C      1  0.4883367828919  0.5825513976358  0.7278554189150 1.0
C      1  0.7503324763682  0.5998964442346  0.5117958756541 1.0
C      1  0.2467505567925  0.5466271968368  0.6412462411511 1.0
C      1  0.6400905259841  0.5348927700015  0.7488033031985 1.0
C      1  0.7502359547885  0.5369547208122  0.3591030973757 1.0
C      1  0.3502041123210  0.5462813794972  0.2501911264063 1.0
C      1  0.2501677315054  0.4486578014573  0.6382819087790 1.0
C      1  0.6416235517523  0.4376314795393  0.7466502110731 1.0
C      1  0.7474242449883  0.4416565911716  0.3570679042327 1.0
C      1  0.3490960113011  0.4460768118438  0.2547618315902 1.0
C      1  0.3967439093157  0.5411259116729  0.7082802511919 1.0
C      1  0.7212458212469  0.5528285074449  0.5955632456222 1.0
C      1  0.5916288117514  0.5380048519253  0.2948655751517 1.0
C      1  0.2860365987986  0.5420951621361  0.4030916104841 1.0
C      1  0.3903448364061  0.4394845707370  0.7226515939791 1.0
C      1  0.7056502294478  0.4402296041183  0.5938435829491 1.0
C      1  0.6016573348489  0.4366864998799  0.2767363455513 1.0
C      1  0.2570911296157  0.4384607480222  0.3920726845235 1.0
C      1  0.5514980958336  0.6962632217353  0.3875497184751 1.0
C      1  0.3709796321955  0.7092942780173  0.4420397950392 1.0
C      1  0.4433091185910  0.6974840942979  0.6173807713756 1.0
C      1  0.6169421482030  0.7067249084204  0.5571488906333 1.0
C      1  0.5519442581920  0.2812032638564  0.3758827078009 1.0
C      1  0.3648801832317  0.2798388906521  0.4461542232487 1.0
C      1  0.4356763319130  0.2867945420362  0.6173131000845 1.0
C      1  0.6230186664810  0.2786056734732  0.5551728728869 1.0
C      1  0.3277051587281  0.5958600479545  0.3250729483755 1.0
C      1  0.3224676378673  0.5942467105041  0.6647282786860 1.0
C      1  0.6590083794986  0.5911529286425  0.6709860124394 1.0
C      1  0.6674726171324  0.5843242718392  0.3472387176220 1.0
C      1  0.3165125858958  0.3976857002434  0.3271233475284 1.0
C      1  0.3246186512449  0.3982423847330  0.6650457434213 1.0
C      1  0.6682283080506  0.3891641129406  0.6729741084643 1.0
C      1  0.6689827529575  0.3926576282686  0.3296408666547 1.0
C      1  0.6519766027118  0.6716803935110  0.3964364922343 1.0
C      1  0.3887251263906  0.6666645749648  0.3534713580778 1.0
C      1  0.3475940321556  0.6664781193929  0.6059512583267 1.0
C      1  0.6058600135635  0.6792136088768  0.6590462344459 1.0
C      1  0.6400664695843  0.3228753667672  0.3923730327343 1.0
C      1  0.3917934080739  0.3444273534957  0.3734187738568 1.0
C      1  0.3480757681076  0.3265853479456  0.6028855843287 1.0
C      1  0.6078885043946  0.3189764467779  0.6412222054217 1.0
C      1  0.7799063319756  0.4420304245004  0.4489841755099 1.0
C      1  0.4422155960170  0.4466296508996  0.2299697777093 1.0
C      1  0.2143016703882  0.4477638981755  0.5499720486202 1.0
C      1  0.5477403031682  0.4387925353143  0.7817522018716 1.0
C      1  0.7871915133243  0.5426433147972  0.4489790385215 1.0
C      1  0.4430854419851  0.5436889844008  0.2216121860691 1.0
C      1  0.2123343710699  0.5473826199272  0.5505962982236 1.0
C      1  0.5523520145378  0.5359534567035  0.7852347712110 1.0
C      1  0.5074797030927  0.3466971540723  0.6556942752232 1.0
C      1  0.6774774652451  0.3196849967524  0.4841883284321 1.0
C      1  0.4849147497561  0.3278850007755  0.3273335604337 1.0
C      1  0.3100404185317  0.3238726548255  0.5139785741987 1.0
C      1  0.5148307126126  0.6729226969444  0.6882906175869 1.0
C      1  0.6905044400909  0.6775995948401  0.4840886463350 1.0
C      1  0.4814843314194  0.6642478399289  0.3205905803438 1.0
C      1  0.3147970827633  0.6673813840185  0.5130031534943 1.0
C      1  0.6063364973262  0.4632823177763  0.5588176809609 1.0
C      1  0.5831918787121  0.4590261247931  0.4624357367977 1.0
C      1  0.4159347266533  0.4285105433889  0.4312585567911 1.0
C      1  0.5110568762962  0.4408812601074  0.5929024810307 1.0
C      1  0.5660748688139  0.6184860301476  0.5356906749047 1.0
C      1  0.5367370599359  0.6005427674486  0.4429089516380 1.0
C      1  0.4526048037886  0.5553815824258  0.4813822305446 1.0
C      1  0.4732456479076  0.5995161642948  0.5683576942840 1.0
C      1  0.5918670888184  0.5340251178200  0.3984080449389 1.0
C      1  0.3770864541911  0.5106116880004  0.4364147471411 1.0
C      1  0.4739917236552  0.5297977738919  0.6380074367699 1.0
C      1  0.6222445732056  0.5547781496172  0.5821269778295 1.0
C      1  0.4894571552452  0.4538484698011  0.4909153901917 1.0
END
