TITL C-29086-3345-168 -0.982 3375.00 -150.07069707 0 0 20 (C1) n - 1
REM
REM Run started: at 2020.12.20 22:22:57 in /gpfs/home/chem/mssmkc/CARBON/AIRSS/Generating-Clusters/Str-Search/Higher-Symm/C4-100
REM VASP from code version vasp.5.4.4.18Apr17-6-g9f103f2a35 (build Oct 11 2019 16:45:47) gamma-only
REM
REM
REM
REM
REM ./C.cell (6bd13a13d554368a30d355f37ece5b26)
REM AIRSS Version 0.9.1 bugfix July 2018 build 013d7b7c2542+ Fri, 06 Jul 2018 19:26:36 +0100
REM compiler GCC version 6.3.0
REM options -cpp -iprefix /gpfs/warwick/csc/orac/software/Core/GCCcore/6.3.0/bin/../lib/gcc/x86_64-pc-linux-gnu/6.3.0/ -mtune=generic -march=x86-64 -g -O0
REM seed 762924551 296958383 -1377135917 -1868004185 1429570651 1586235961 466392347 1818718787 280457142 1526500697 2044809338 1946528972
REM
REM C.POTCAR (d86ddea03c3ceb6dc662c8ad6801f873)
REM 
CELL 1.54180   15.00000   15.00000   15.00000   90.00000   90.00000   90.00000
LATT -1
SFAC C  
C      1  0.5250186660243  0.4957252667430  0.4945345420779 1.0
C      1  0.5867243406522  0.6407893965427  0.4478234121693 1.0
C      1  0.6342911271539  0.4907653581927  0.4670198136301 1.0
C      1  0.4306720871170  0.3911763073725  0.6995769196079 1.0
C      1  0.5071230551206  0.5964129823238  0.4796762102780 1.0
C      1  0.4328645130354  0.6235582797236  0.3991318971318 1.0
C      1  0.4966725710188  0.5223776886322  0.2799066566283 1.0
C      1  0.6236215006359  0.5575948725410  0.3205965703923 1.0
C      1  0.3689895078555  0.3595332599047  0.7498331044494 1.0
C      1  0.5428143005364  0.4550682263112  0.5845187193722 1.0
C      1  0.2371522556427  0.2968104829922  0.8429804184665 1.0
C      1  0.4141861647775  0.6349163978572  0.4834695050925 1.0
C      1  0.3050701571371  0.3274587207808  0.7984301377356 1.0
C      1  0.4889419797312  0.4232858039165  0.6467033801442 1.0
C      1  0.6430698632473  0.5750514750558  0.4126532843255 1.0
C      1  0.4573892548178  0.6053765377672  0.3114223168901 1.0
C      1  0.5628512445234  0.4714376560980  0.3275519679360 1.0
C      1  0.5495971246269  0.6010586986190  0.2736553908608 1.0
C      1  0.6304026625003  0.4862613109618  0.5640888730610 1.0
C      1  0.5625477238458  0.4453411776642  0.4164268797507 1.0
END
