TITL C-29123-7884-135 -3.353 3375.00 -565.81335494 0 0 70 (Cs) n - 1
REM
REM Run started: at 2020.12.20 21:42:45 in /gpfs/home/chem/mssmkc/CARBON/AIRSS/Generating-Clusters/Str-Search/Higher-Symm/C4-100
REM VASP from code version vasp.5.4.4.18Apr17-6-g9f103f2a35 (build Oct 11 2019 16:45:47) gamma-only
REM
REM
REM
REM
REM ./C.cell (6bd13a13d554368a30d355f37ece5b26)
REM AIRSS Version 0.9.1 bugfix July 2018 build 013d7b7c2542+ Fri, 06 Jul 2018 19:26:36 +0100
REM compiler GCC version 6.3.0
REM options -cpp -iprefix /gpfs/warwick/csc/orac/software/Core/GCCcore/6.3.0/bin/../lib/gcc/x86_64-pc-linux-gnu/6.3.0/ -mtune=generic -march=x86-64 -g -O0
REM seed -463886556 -858624096 1152515175 2045992105 944973046 -862170078 -1142207135 1899565047 -1952794916 -480489031 -1041815092 2068592289
REM
REM C.POTCAR (d86ddea03c3ceb6dc662c8ad6801f873)
REM 
CELL 1.54180   15.00000   15.00000   15.00000   90.00000   90.00000   90.00000
LATT -1
SFAC C  
C      1  0.5489391240502  0.1952495095109  0.4090176363429 1.0
C      1  0.4510579333473  0.1952488461337  0.4090175255185 1.0
C      1  0.7317137410239  0.3963230259038  0.5260478211165 1.0
C      1  0.2682855491979  0.3963256544820  0.5260474134260 1.0
C      1  0.4025507749216  0.3467781660005  0.3449521292910 1.0
C      1  0.5974475480208  0.3467777510295  0.3449525692905 1.0
C      1  0.3025850407863  0.5226185727488  0.6612722847205 1.0
C      1  0.6974143108150  0.5226154800813  0.6612738775143 1.0
C      1  0.2207475884589  0.5501183549283  0.5627724103440 1.0
C      1  0.7792526933367  0.5501154602161  0.5627724743659 1.0
C      1  0.3905287968656  0.2919965701154  0.6382506305906 1.0
C      1  0.6094743316315  0.2919874511050  0.6382440492031 1.0
C      1  0.5439503904542  0.5855771576163  0.3152293134503 1.0
C      1  0.4560510385983  0.5855782806452  0.3152287683055 1.0
C      1  0.4522813088516  0.4513959872484  0.5584623064694 1.0
C      1  0.5477167162009  0.4513954230310  0.5584618223564 1.0
C      1  0.5511770099501  0.7421821833529  0.5617278975286 1.0
C      1  0.4488250803246  0.7421831848771  0.5617284050316 1.0
C      1  0.7379354875913  0.5226758736246  0.4080855077501 1.0
C      1  0.2620647107875  0.5226794757075  0.4080851324129 1.0
C      1  0.4019609271841  0.5095607038611  0.3055112805131 1.0
C      1  0.5980393965244  0.5095592892548  0.3055110014698 1.0
C      1  0.7279653062408  0.4309479622633  0.4336104260255 1.0
C      1  0.2720339328607  0.4309524321616  0.4336097211677 1.0
C      1  0.3072160518204  0.7383001424741  0.4765181974932 1.0
C      1  0.6927820782604  0.7382983642766  0.4765194044344 1.0
C      1  0.6768146331618  0.3181160790785  0.4982764671766 1.0
C      1  0.3231840244772  0.3181193185519  0.4982759217591 1.0
C      1  0.5922870906005  0.3576366157962  0.6845236525994 1.0
C      1  0.4077117052152  0.3576285716863  0.6845289493955 1.0
C      1  0.5506470476664  0.6357349794713  0.5547128895419 1.0
C      1  0.4493542547226  0.6357362112167  0.5547119799603 1.0
C      1  0.6704874211890  0.3567692150813  0.4074911794907 1.0
C      1  0.3295111629943  0.3567715252192  0.4074910553184 1.0
C      1  0.3932612062026  0.5294498149563  0.6839166040564 1.0
C      1  0.6067384015634  0.5294488346426  0.6839168102920 1.0
C      1  0.2616313951103  0.4657216975290  0.5881446604278 1.0
C      1  0.7383677427316  0.4657187792607  0.5881448211167 1.0
C      1  0.3828982560765  0.2630085856954  0.5482799947695 1.0
C      1  0.6171009362756  0.2630052570296  0.5482815517118 1.0
C      1  0.2263563006841  0.5855424916011  0.4748060356288 1.0
C      1  0.7736445983120  0.5855387215634  0.4748060211712 1.0
C      1  0.6031825224470  0.7638642543744  0.4798161131324 1.0
C      1  0.3968202795680  0.7638654249761  0.4798166886662 1.0
C      1  0.4520927653087  0.7159114044019  0.6633386900824 1.0
C      1  0.5479085967230  0.7159098509573  0.6633393997118 1.0
C      1  0.2314115599255  0.5897645065467  0.6501238771523 1.0
C      1  0.7685894163717  0.5897601288760  0.6501255322534 1.0
C      1  0.4107823221861  0.5016558528724  0.4984148392455 1.0
C      1  0.5892173485705  0.5016536904077  0.4984168353694 1.0
C      1  0.6724954059625  0.5557200811874  0.3475828589430 1.0
C      1  0.3275049070028  0.5557242009606  0.3475821359653 1.0
C      1  0.7475091258354  0.6757716622668  0.4711443207748 1.0
C      1  0.2524962068636  0.6757787358910  0.4711428328441 1.0
C      1  0.4120760319680  0.5874432673693  0.4778012255610 1.0
C      1  0.5879241625200  0.5874427578374  0.4778015948637 1.0
C      1  0.5490349342512  0.2667898536747  0.3439775107855 1.0
C      1  0.4509615713139  0.2667905337418  0.3439776337380 1.0
C      1  0.4454173172457  0.4451051948295  0.6635907694258 1.0
C      1  0.5545816267422  0.4451035063423  0.6635898179028 1.0
C      1  0.4507758525718  0.7243274953336  0.4069438317045 1.0
C      1  0.5492266844315  0.7243262398064  0.4069440367472 1.0
C      1  0.4497664116075  0.4253560626352  0.3101744943792 1.0
C      1  0.5502322268135  0.4253549545199  0.3101749066667 1.0
C      1  0.5957153133990  0.6328481353910  0.3828962030495 1.0
C      1  0.4042854799245  0.6328492587251  0.3828958317583 1.0
C      1  0.4471677163739  0.6099658248009  0.6578222732575 1.0
C      1  0.5528321175746  0.6099652269105  0.6578217085518 1.0
C      1  0.4497670989549  0.2097815789702  0.5047622800898 1.0
C      1  0.5502319524548  0.2097821143648  0.5047631568292 1.0
END
