TITL C-29086-3345-66 -3.686 3375.00 -626.33535908 0 0 78 (C1) n - 1
REM
REM Run started: at 2020.12.20 04:36:43 in /gpfs/home/chem/mssmkc/CARBON/AIRSS/Generating-Clusters/Str-Search/Higher-Symm/C4-100
REM VASP from code version vasp.5.4.4.18Apr17-6-g9f103f2a35 (build Oct 11 2019 16:45:47) gamma-only
REM
REM
REM
REM
REM ./C.cell (6bd13a13d554368a30d355f37ece5b26)
REM AIRSS Version 0.9.1 bugfix July 2018 build 013d7b7c2542+ Fri, 06 Jul 2018 19:26:36 +0100
REM compiler GCC version 6.3.0
REM options -cpp -iprefix /gpfs/warwick/csc/orac/software/Core/GCCcore/6.3.0/bin/../lib/gcc/x86_64-pc-linux-gnu/6.3.0/ -mtune=generic -march=x86-64 -g -O0
REM seed 979951075 84780220 -300629239 -1090513518 350634201 1788969983 -1781169717 -456398833 -1270600062 -183724628 -1972741939 -988306110
REM
REM C.POTCAR (d86ddea03c3ceb6dc662c8ad6801f873)
REM 
CELL 1.54180   15.00000   15.00000   15.00000   90.00000   90.00000   90.00000
LATT -1
SFAC C  
C      1  0.3955062733309  0.3742105363597  0.5755122772007 1.0
C      1  0.2086327841373  0.4812667302558  0.5484391067587 1.0
C      1  0.4150200234524  0.4657474591825  0.2201142602338 1.0
C      1  0.4948211868719  0.3316394319927  0.7414103866378 1.0
C      1  0.5496318802972  0.3891987514777  0.3385453803599 1.0
C      1  0.6962969128331  0.6751866922040  0.5461686377721 1.0
C      1  0.7052153123244  0.6341475162723  0.7038989848187 1.0
C      1  0.2738084501697  0.3546415128061  0.6238775644561 1.0
C      1  0.5720347975818  0.6229199539640  0.7921088471227 1.0
C      1  0.7873808673294  0.5075315935117  0.5089688059549 1.0
C      1  0.3880799375418  0.3549898338907  0.3278637561686 1.0
C      1  0.4914001903581  0.2452403486947  0.5053209905736 1.0
C      1  0.3267765254381  0.5927902646351  0.2667838763634 1.0
C      1  0.5373500451248  0.3636313462834  0.2405148394234 1.0
C      1  0.7072475734986  0.4536746524225  0.5496607836141 1.0
C      1  0.5302487843935  0.2608240304417  0.5864657941994 1.0
C      1  0.6040311782983  0.3211911096026  0.6125515641567 1.0
C      1  0.6236407911696  0.5097292978401  0.4172936229807 1.0
C      1  0.6771887807725  0.3351744870358  0.4446594249430 1.0
C      1  0.5592134705654  0.4992027524058  0.6467465618030 1.0
C      1  0.3301843869954  0.5940682192141  0.4910372531766 1.0
C      1  0.4709420482385  0.6929651435046  0.6426180489693 1.0
C      1  0.4374491074666  0.3763295431074  0.2354301443327 1.0
C      1  0.5537554585293  0.5365115098757  0.2735972542529 1.0
C      1  0.5928532819363  0.4456528678071  0.2667059065818 1.0
C      1  0.3377830239028  0.4413371627300  0.3471160911505 1.0
C      1  0.5652195679831  0.5749360738526  0.3714434049122 1.0
C      1  0.6163330829008  0.6627578533575  0.3979269982897 1.0
C      1  0.3586055538199  0.6929841043420  0.4973455762850 1.0
C      1  0.6699377999037  0.3562524099061  0.5445038832163 1.0
C      1  0.3895488154000  0.4523244371821  0.5162872240363 1.0
C      1  0.3799331686209  0.5538020305415  0.6588912796976 1.0
C      1  0.5665232117276  0.7406745163163  0.4136002640974 1.0
C      1  0.5488737067739  0.5018533333030  0.5597352434820 1.0
C      1  0.6785688407882  0.3864542039022  0.2908533605314 1.0
C      1  0.3828949341550  0.5421514013338  0.5602800978947 1.0
C      1  0.6977496478035  0.6442047622765  0.4547525097174 1.0
C      1  0.5679594050090  0.7067971511939  0.6518594326069 1.0
C      1  0.6222428372257  0.6689421120871  0.7246192177135 1.0
C      1  0.6210462145060  0.7305258631966  0.5733002265529 1.0
C      1  0.5524076934305  0.5310170208988  0.7903791519234 1.0
C      1  0.7193804522832  0.3973312247339  0.3758297779710 1.0
C      1  0.3864968808675  0.7232947133463  0.4027555635340 1.0
C      1  0.2064765719647  0.4131077108524  0.6009366494818 1.0
C      1  0.4823046577238  0.7800092291638  0.5059903748343 1.0
C      1  0.4332699389595  0.6219468501279  0.6986771787357 1.0
C      1  0.3943586939490  0.5943210618894  0.4111205992778 1.0
C      1  0.4133943911041  0.3695504369427  0.7536725595129 1.0
C      1  0.6102892860212  0.2884514296234  0.3937789306619 1.0
C      1  0.4723493089078  0.5471753676479  0.2295530276469 1.0
C      1  0.4688031047074  0.7691661029918  0.4105498438702 1.0
C      1  0.3341696283039  0.4952211001151  0.2728992891259 1.0
C      1  0.3015478541852  0.3319754796636  0.4549059216348 1.0
C      1  0.5169804409496  0.2767768178105  0.4231102186875 1.0
C      1  0.3304622612609  0.2884748412856  0.3800433503739 1.0
C      1  0.5776590758980  0.4607665510295  0.7226887190550 1.0
C      1  0.7158274496408  0.4948706627850  0.3895657738125 1.0
C      1  0.3572299407666  0.3890313177525  0.6697777532643 1.0
C      1  0.4784865612674  0.5627489363114  0.4250012036288 1.0
C      1  0.4293185704718  0.2843929593563  0.5682506431537 1.0
C      1  0.7587717236075  0.5649018803972  0.4346066670807 1.0
C      1  0.5721395682011  0.3611180169179  0.7007113889402 1.0
C      1  0.6239556512147  0.4902643161750  0.5069166544680 1.0
C      1  0.2527076255657  0.5197287742951  0.4795490306292 1.0
C      1  0.4723446030872  0.3470112735396  0.3806992153348 1.0
C      1  0.4689747865808  0.5174524188155  0.5107554039646 1.0
C      1  0.3740998972164  0.4488215517322  0.8005414198226 1.0
C      1  0.3136447471062  0.4401546802314  0.4438793935700 1.0
C      1  0.6124112020461  0.3137079018930  0.2962009086468 1.0
C      1  0.4116327310292  0.6221413423759  0.2475956723418 1.0
C      1  0.7607483790446  0.5294128529425  0.5925399907345 1.0
C      1  0.3196606984635  0.3048856795503  0.5499575101467 1.0
C      1  0.3703881176931  0.6507411434655  0.3359891938965 1.0
C      1  0.4829194058316  0.5967959249416  0.7764906536256 1.0
C      1  0.7319768651792  0.6193496978686  0.6182474468629 1.0
C      1  0.5765966431987  0.7759178882247  0.5058239404286 1.0
C      1  0.3575316105737  0.4784119468127  0.7107136396742 1.0
C      1  0.4263530225228  0.7250894951849  0.5604859566074 1.0
END
