TITL C-29086-3345-135 -3.565 3375.00 -623.36425063 0 0 74 (C1) n - 1
REM
REM Run started: at 2020.12.20 16:26:14 in /gpfs/home/chem/mssmkc/CARBON/AIRSS/Generating-Clusters/Str-Search/Higher-Symm/C4-100
REM VASP from code version vasp.5.4.4.18Apr17-6-g9f103f2a35 (build Oct 11 2019 16:45:47) gamma-only
REM
REM
REM
REM
REM ./C.cell (6bd13a13d554368a30d355f37ece5b26)
REM AIRSS Version 0.9.1 bugfix July 2018 build 013d7b7c2542+ Fri, 06 Jul 2018 19:26:36 +0100
REM compiler GCC version 6.3.0
REM options -cpp -iprefix /gpfs/warwick/csc/orac/software/Core/GCCcore/6.3.0/bin/../lib/gcc/x86_64-pc-linux-gnu/6.3.0/ -mtune=generic -march=x86-64 -g -O0
REM seed 288443247 1248459180 1039127703 1647505989 85210978 446407488 476450520 1589782942 -1485450147 -54325853 -1443158862 -374494851
REM
REM C.POTCAR (d86ddea03c3ceb6dc662c8ad6801f873)
REM 
CELL 1.54180   15.00000   15.00000   15.00000   90.00000   90.00000   90.00000
LATT -1
SFAC C  
C      1  0.6606963107313  0.3534589644726  0.3536006308430 1.0
C      1  0.6841595861492  0.6027885597839  0.3476231658116 1.0
C      1  0.4533698046007  0.7072277989621  0.3488151468434 1.0
C      1  0.2840068500578  0.5153555881324  0.3527213570722 1.0
C      1  0.4148246517551  0.3003030887308  0.3563482861333 1.0
C      1  0.2674806668810  0.3879061944052  0.4443933148026 1.0
C      1  0.5333457948090  0.2458226406971  0.4464102083636 1.0
C      1  0.7554342510231  0.4479423232079  0.4388313260966 1.0
C      1  0.6277832265366  0.7238989568141  0.4345175635409 1.0
C      1  0.3289653176123  0.6810570877553  0.4420665184209 1.0
C      1  0.4204135766244  0.4768786203943  0.6338921820869 1.0
C      1  0.4939145410164  0.4147811830148  0.6670634844959 1.0
C      1  0.5851337490379  0.4649501703423  0.6481112808178 1.0
C      1  0.5659219884757  0.5520588290002  0.6265614898784 1.0
C      1  0.4679830690653  0.5598373241647  0.5901852219596 1.0
C      1  0.7580079920506  0.5577605423645  0.5644405099123 1.0
C      1  0.5279271021753  0.7565286896728  0.5658530749347 1.0
C      1  0.2669955763788  0.5915328835786  0.5766526774513 1.0
C      1  0.3347780025074  0.3055886705151  0.5764376052848 1.0
C      1  0.6343922297383  0.2823398195505  0.5759890758732 1.0
C      1  0.2340534184148  0.4649077417433  0.4916062407856 1.0
C      1  0.4513085925832  0.2441769518944  0.4969673589676 1.0
C      1  0.7317166612213  0.3701721728198  0.4918950979629 1.0
C      1  0.6984618767145  0.6772393231762  0.4822921454088 1.0
C      1  0.3942594201639  0.7378969003682  0.4878849519470 1.0
C      1  0.2999416248126  0.4192602089793  0.3577912941366 1.0
C      1  0.5119268852916  0.2837600793827  0.3596301976231 1.0
C      1  0.7081733112028  0.4385922617250  0.3542493238758 1.0
C      1  0.6172844450096  0.6759800960434  0.3504661166953 1.0
C      1  0.3657734692201  0.6606435715985  0.3556994053646 1.0
C      1  0.6272287865987  0.6337709134396  0.6303958962286 1.0
C      1  0.4165213865360  0.6488490022106  0.6253413442422 1.0
C      1  0.3193797956207  0.4503575281878  0.6367873963212 1.0
C      1  0.4863589020183  0.3110626708354  0.6540991448352 1.0
C      1  0.6796772449868  0.4271243315215  0.6469905751765 1.0
C      1  0.4664593805618  0.7598626631826  0.4254294767196 1.0
C      1  0.2414531241688  0.5423014379669  0.4330240642426 1.0
C      1  0.3781789027855  0.2686042888489  0.4361716529430 1.0
C      1  0.6821619509648  0.3090066472402  0.4333199293623 1.0
C      1  0.7389285149961  0.6104056610648  0.4221992761178 1.0
C      1  0.3484902079613  0.5746444209042  0.3149902366411 1.0
C      1  0.3755681954461  0.3781771403407  0.3159717933816 1.0
C      1  0.5727916439930  0.3415166164030  0.3154523091808 1.0
C      1  0.6673696005355  0.5139748180148  0.3139697579125 1.0
C      1  0.5309664265546  0.6628035544035  0.3154537147929 1.0
C      1  0.4238901882516  0.5299914368529  0.2787053051169 1.0
C      1  0.4372318492942  0.4371825473569  0.2724500883409 1.0
C      1  0.5339807989073  0.4184894889363  0.2728055016908 1.0
C      1  0.5801238559991  0.4992988415028  0.2799739226250 1.0
C      1  0.5117907270217  0.5655181108803  0.3091309910732 1.0
C      1  0.5805557064510  0.7331560102588  0.6378803906317 1.0
C      1  0.3223880478782  0.6267122000798  0.6423933436932 1.0
C      1  0.2994337691577  0.3469202351480  0.6508850901802 1.0
C      1  0.5833680721438  0.2616279974086  0.6501344895693 1.0
C      1  0.7602151765543  0.5038097371097  0.6394561701246 1.0
C      1  0.3777703411518  0.6240034051628  0.7171756256511 1.0
C      1  0.2819173549064  0.3997583362922  0.7175241744948 1.0
C      1  0.5309649649494  0.2487047683673  0.7182272855815 1.0
C      1  0.7525736498586  0.4538424066607  0.7098517570926 1.0
C      1  0.6240356130356  0.7002165698310  0.7053713713726 1.0
C      1  0.7706313482582  0.5345182018881  0.4717267004362 1.0
C      1  0.5507937230095  0.7640374421406  0.4720807298557 1.0
C      1  0.2696570268559  0.6186540376379  0.4822824272173 1.0
C      1  0.3082383218727  0.3120773839663  0.4833544703906 1.0
C      1  0.6187983181550  0.2593334756219  0.4830890272562 1.0
C      1  0.6940067115237  0.3583755718765  0.5780440494024 1.0
C      1  0.7012981568905  0.6355958540105  0.5663675275867 1.0
C      1  0.4350965649867  0.7289248514631  0.5715853279822 1.0
C      1  0.2564014675260  0.4966137090047  0.5778482802355 1.0
C      1  0.4274923811154  0.2775909007642  0.5815923090798 1.0
C      1  0.5008757272905  0.5471817299870  0.4121735090345 1.0
C      1  0.4146194362807  0.5465844115606  0.7516537003876 1.0
C      1  0.4795367876062  0.5513482187459  0.4916002445961 1.0
C      1  0.4528800574797  0.4710061816300  0.7408476678129 1.0
END
