TITL C-29086-3345-242 -2.51 3375.00 -414.45034477 0 0 53 (C1) n - 1
REM
REM Run started: at 2020.12.21 13:45:29 in /gpfs/home/chem/mssmkc/CARBON/AIRSS/Generating-Clusters/Str-Search/Higher-Symm/C4-100
REM VASP from code version vasp.5.4.4.18Apr17-6-g9f103f2a35 (build Oct 11 2019 16:45:47) gamma-only
REM
REM
REM
REM
REM ./C.cell (6bd13a13d554368a30d355f37ece5b26)
REM AIRSS Version 0.9.1 bugfix July 2018 build 013d7b7c2542+ Fri, 06 Jul 2018 19:26:36 +0100
REM compiler GCC version 6.3.0
REM options -cpp -iprefix /gpfs/warwick/csc/orac/software/Core/GCCcore/6.3.0/bin/../lib/gcc/x86_64-pc-linux-gnu/6.3.0/ -mtune=generic -march=x86-64 -g -O0
REM seed -606459299 1361755666 -559061698 1833268165 -93765847 -926883539 -1573799924 -1997561898 1199552982 2105601235 -1468186355 1896664246
REM
REM C.POTCAR (d86ddea03c3ceb6dc662c8ad6801f873)
REM 
CELL 1.54180   15.00000   15.00000   15.00000   90.00000   90.00000   90.00000
LATT -1
SFAC C  
C      1  0.6310338245536  0.6299087699340  0.5190825305803 1.0
C      1  0.6191000174000  0.5366452954321  0.6448452903662 1.0
C      1  0.5227874705801  0.6665728725833  0.6495763003630 1.0
C      1  0.3501112829193  0.3415446175869  0.5090790005636 1.0
C      1  0.6565990239618  0.3637750961386  0.4753217515236 1.0
C      1  0.3796670779774  0.6524283096551  0.4909657256028 1.0
C      1  0.3607746809805  0.4607442331627  0.6328021248157 1.0
C      1  0.6444486861283  0.4663661303263  0.3385947719727 1.0
C      1  0.3500037907659  0.5393592119567  0.3765853101895 1.0
C      1  0.4734847862257  0.3473545517293  0.6219158536641 1.0
C      1  0.5357425087319  0.3567013429877  0.3776937914829 1.0
C      1  0.4711311285882  0.6521699840475  0.3470169193170 1.0
C      1  0.5604988464657  0.2215229526047  0.4701993287509 1.0
C      1  0.2220284363346  0.5145210287913  0.5457093501939 1.0
C      1  0.4929435318355  0.5293541080950  0.2216664657857 1.0
C      1  0.4751231009827  0.7962635628535  0.5333598577322 1.0
C      1  0.5392382590639  0.7691173335811  0.4637145695201 1.0
C      1  0.4698518172162  0.2095756835944  0.4843578651240 1.0
C      1  0.7466458508100  0.5061482726335  0.5374104032596 1.0
C      1  0.1975146797057  0.5269405466585  0.4638220442889 1.0
C      1  0.7738649295554  0.5235564386235  0.4467927466502 1.0
C      1  0.5020571026815  0.4373793393415  0.2272527904692 1.0
C      1  0.4874712818797  0.4519911462726  0.7596619416244 1.0
C      1  0.5114582734334  0.5422169085968  0.7646931075045 1.0
C      1  0.6142158729779  0.2926149469398  0.5217610711660 1.0
C      1  0.2969533213800  0.5206979367561  0.5944999533526 1.0
C      1  0.5126864035627  0.5887932944419  0.2857311137117 1.0
C      1  0.4081263408197  0.7259967391590  0.5357656316269 1.0
C      1  0.5975830015623  0.6942035154335  0.4623823374151 1.0
C      1  0.4043251001669  0.2717352829191  0.4667216660671 1.0
C      1  0.6902372050608  0.4802409523189  0.6186224902337 1.0
C      1  0.2696699537052  0.4924951328191  0.4148592188930 1.0
C      1  0.7008971916268  0.5229483425432  0.3900520907342 1.0
C      1  0.4859818040441  0.4259241952855  0.3308049855996 1.0
C      1  0.5167241596623  0.3978074191543  0.6918352793975 1.0
C      1  0.4690993966172  0.5984034442776  0.6983853990778 1.0
C      1  0.3803345206910  0.5645910103212  0.5423130451962 1.0
C      1  0.5549527199264  0.4992358300284  0.3088207355129 1.0
C      1  0.5307943052207  0.3300545151453  0.5516925151027 1.0
C      1  0.6670403683073  0.4470777278697  0.5274498307621 1.0
C      1  0.3338915021472  0.4157633182486  0.4425743924048 1.0
C      1  0.6651619296657  0.5446068878129  0.4812359629172 1.0
C      1  0.4060977808192  0.4560708129331  0.3793709868807 1.0
C      1  0.5320679463250  0.4922971086795  0.6619396636272 1.0
C      1  0.4339452396469  0.5319850918475  0.6279164867213 1.0
C      1  0.4744085442220  0.7330427922756  0.6040816975434 1.0
C      1  0.5335155357329  0.7110310969196  0.3936424903737 1.0
C      1  0.4958789554977  0.3114601926508  0.4538919138498 1.0
C      1  0.3824979588365  0.3739696972267  0.5955908790884 1.0
C      1  0.3930256744573  0.6298387349798  0.3934479071432 1.0
C      1  0.6273567761131  0.3818416292268  0.3828434257325 1.0
C      1  0.6031558740778  0.6264077373357  0.6131267501245 1.0
C      1  0.3876082283502  0.4983747772643  0.4668263383990 1.0
END
