TITL C-29722-6659-7 -9.978 3375.00 -1477.22499771 0 0 179 (C1) n - 1
REM
REM Run started: at 2020.12.17 12:31:06 in /rds/project/t2_vol4/rds-t2-cs072/BORA/CARBON/AIRSS/Generating-Clusters/Str-Search/Higher-Symm/C100-200
REM VASP from code version vasp.5.4.4.18Apr17-6-g9f103f2a35 (build Oct 11 2019 16:45:47) gamma-only
REM
REM
REM
REM
REM ./C.cell (533062f00bc710175b3da973d35f2034)
REM AIRSS Version 0.9.1 bugfix July 2018 build 013d7b7c2542+ Fri, 06 Jul 2018 19:26:36 +0100
REM compiler GCC version 4.8.5 20150623 (Red Hat 4.8.5-39)
REM options -cpp -mtune=generic -march=x86-64 -g -O0
REM seed -864419371 420363956 1307779569 -1686393373 1341209260 -1687629007 -710621617 -146654305 1081581827 824156304 -1140530081 -1267347970
REM
REM C.POTCAR (d86ddea03c3ceb6dc662c8ad6801f873)
REM 
CELL 1.54180   15.00000   15.00000   15.00000   90.00000   90.00000   90.00000
LATT -1
SFAC C  
C      1  0.4353463545003  0.4534269669495  0.5891777032664 1.0
C      1  0.5586379715641  0.4402908311941  0.4393109423566 1.0
C      1  0.5614301819064  0.5493594661087  0.5832227240950 1.0
C      1  0.4515805220151  0.5611094822870  0.4432643556754 1.0
C      1  0.6449960429881  0.4444541598228  0.8001336983935 1.0
C      1  0.5868380595498  0.6324812289156  0.2133069911510 1.0
C      1  0.3443319941392  0.5903921281232  0.7914909642527 1.0
C      1  0.4279565814088  0.3070738026251  0.2101534598960 1.0
C      1  0.3855868661023  0.6061685377762  0.2336720777771 1.0
C      1  0.3375634713103  0.4007859112806  0.7829627276110 1.0
C      1  0.6322367408304  0.3181708466160  0.2245760965745 1.0
C      1  0.6656950092424  0.6385194727160  0.7733407983023 1.0
C      1  0.4838323256798  0.2341368467316  0.2312254796725 1.0
C      1  0.7370428522829  0.4831265078873  0.7777353311521 1.0
C      1  0.5185308810577  0.6998714566023  0.2521252139220 1.0
C      1  0.2544592112943  0.5489371988309  0.7908337989154 1.0
C      1  0.7835646071123  0.4027553608120  0.2625353468658 1.0
C      1  0.5812918002739  0.7875928757933  0.7223101349957 1.0
C      1  0.2929796076704  0.5767766912544  0.2271876933584 1.0
C      1  0.3577664191924  0.2997113334319  0.7656955409827 1.0
C      1  0.4214979780540  0.4471059655473  0.1349807464289 1.0
C      1  0.5584816768737  0.4893822294187  0.9463122361587 1.0
C      1  0.6072545231076  0.4811662003194  0.1763820850443 1.0
C      1  0.4987476138150  0.6155218001540  0.8275918028310 1.0
C      1  0.9280553700893  0.5782140260248  0.3817327447251 1.0
C      1  0.3973777453406  0.9227083768687  0.5973858536950 1.0
C      1  0.0769559411398  0.3880665575773  0.3799397489785 1.0
C      1  0.5714123630519  0.0936387360860  0.6362816332105 1.0
C      1  0.5894609318355  0.5034760456797  0.7423223329357 1.0
C      1  0.5303512563774  0.6130322473609  0.3003047408550 1.0
C      1  0.4046451138236  0.5293194271689  0.7297354220026 1.0
C      1  0.4791535811969  0.4468769178848  0.2805767740842 1.0
C      1  0.5891613586201  0.5828166769334  0.8079586225135 1.0
C      1  0.4719530659082  0.5460775517567  0.2532247129545 1.0
C      1  0.4254562043850  0.4489688241081  0.7934264593630 1.0
C      1  0.5801512372201  0.3919970101967  0.1921705188446 1.0
C      1  0.7252578822544  0.3247854802191  0.2621048598196 1.0
C      1  0.6584343152014  0.7256824117404  0.7274698762535 1.0
C      1  0.2342259365411  0.6456975390798  0.2505349083477 1.0
C      1  0.2957129004253  0.3867011631009  0.6858448181635 1.0
C      1  0.1651194580333  0.5175699599594  0.4004801723872 1.0
C      1  0.4448239177280  0.1714788660601  0.5984464419237 1.0
C      1  0.8397027727188  0.4389025700626  0.3470368036006 1.0
C      1  0.5508180272223  0.8447486192214  0.6343495082354 1.0
C      1  0.7660414859935  0.4196605777427  0.6304288062303 1.0
C      1  0.6042070600795  0.7731931202433  0.3755446720152 1.0
C      1  0.2288381294704  0.5839685168403  0.6292975942094 1.0
C      1  0.4066919595104  0.2314444387862  0.3603158053930 1.0
C      1  0.2317824547025  0.7187105979310  0.2917519753973 1.0
C      1  0.2944841840012  0.2856411449141  0.6928715719793 1.0
C      1  0.7440000309888  0.2578163110668  0.3228181728235 1.0
C      1  0.7285447746715  0.7394112163521  0.6681910855740 1.0
C      1  0.7916241827183  0.4244542247828  0.7278448524017 1.0
C      1  0.5567182214369  0.7824288346255  0.2961824921821 1.0
C      1  0.1980588619226  0.5929802084598  0.7237050566319 1.0
C      1  0.4390147280890  0.1745681069274  0.2928004201820 1.0
C      1  0.6238477120841  0.1616191525396  0.2909041638024 1.0
C      1  0.8180483334357  0.6116821898108  0.7046359207597 1.0
C      1  0.3705393637242  0.7794199542296  0.2602115753343 1.0
C      1  0.2069035791344  0.4174204755188  0.7195848319069 1.0
C      1  0.3757941845595  0.6261522789335  0.4690213133475 1.0
C      1  0.3269976257991  0.4282186890183  0.5956758320483 1.0
C      1  0.6343169038533  0.3720503686453  0.4652283585048 1.0
C      1  0.6639976250904  0.5584319879530  0.5705412978432 1.0
C      1  0.5373459426424  0.0125259361739  0.5984154943731 1.0
C      1  0.0005588396629  0.5293661152628  0.4239817431024 1.0
C      1  0.4385561656701  0.0070311345280  0.5790551621588 1.0
C      1  0.9954044903640  0.4288809202707  0.4171241628259 1.0
C      1  0.2953675931631  0.7766012855755  0.3246607726261 1.0
C      1  0.2386862252118  0.2456843157178  0.6334662300784 1.0
C      1  0.6941372177712  0.1882783924925  0.3521638709945 1.0
C      1  0.7978941831954  0.6862137986077  0.6454706905038 1.0
C      1  0.4779985337445  0.4084496376361  0.3754563850910 1.0
C      1  0.5836269793007  0.4730166670079  0.6474262832723 1.0
C      1  0.5408611491581  0.6020881943359  0.3978469550716 1.0
C      1  0.4112839452715  0.5426897950547  0.6334410313864 1.0
C      1  0.7754665238691  0.6368990162515  0.2455247145391 1.0
C      1  0.3441144716217  0.7656507762072  0.7248060560660 1.0
C      1  0.2466423467851  0.3344356076986  0.2601936746313 1.0
C      1  0.6086118758132  0.2685097934880  0.7432054556721 1.0
C      1  0.4973761420193  0.3720455922116  0.7892082702334 1.0
C      1  0.6908890663064  0.5209866669113  0.1830526493593 1.0
C      1  0.4601547234650  0.6960295707657  0.8062665996489 1.0
C      1  0.3370643713728  0.4281554012370  0.1737349095713 1.0
C      1  0.3167063179336  0.8636467969562  0.5832863557305 1.0
C      1  0.1332938596132  0.3063198596474  0.3913732219455 1.0
C      1  0.6534022417995  0.1476710418822  0.6273612232692 1.0
C      1  0.8832024639798  0.6658319143547  0.3868862158306 1.0
C      1  0.2960482574950  0.3649570386070  0.4422387188439 1.0
C      1  0.6206177245437  0.3124672045092  0.5479422498022 1.0
C      1  0.6972802191353  0.6359317434214  0.4258780215124 1.0
C      1  0.3814334568401  0.7001180920941  0.5397337111000 1.0
C      1  0.6695883631659  0.2314786997654  0.6789563808521 1.0
C      1  0.8129052316590  0.6957526727453  0.3127575216161 1.0
C      1  0.2951998524325  0.7878625416969  0.6455699182158 1.0
C      1  0.2120860759132  0.2845339808907  0.3317083936095 1.0
C      1  0.2700523196275  0.4838359945235  0.2145360929151 1.0
C      1  0.4525027675166  0.2889882241884  0.7673635303712 1.0
C      1  0.7725912570769  0.4814585340419  0.2126420217454 1.0
C      1  0.4999777511149  0.7726939629553  0.7651920224912 1.0
C      1  0.2084122858409  0.4268898291351  0.2646810393366 1.0
C      1  0.5187994873487  0.2259889890229  0.7346510505314 1.0
C      1  0.8251857162073  0.5539770407645  0.2464172879712 1.0
C      1  0.4264969142398  0.8182892714794  0.7242926759654 1.0
C      1  0.3669279775224  0.6879344154138  0.7786284798358 1.0
C      1  0.3341318583728  0.3383258558241  0.2137037473392 1.0
C      1  0.5942358963005  0.3574943943440  0.7846666025862 1.0
C      1  0.6879617668762  0.6155373324314  0.2069509955129 1.0
C      1  0.1458446691292  0.5389707981022  0.6682942860522 1.0
C      1  0.4835462037675  0.0954463592571  0.3092745483040 1.0
C      1  0.8531750693824  0.4625937027752  0.6661670307064 1.0
C      1  0.5071407140286  0.8553329938452  0.2673952281400 1.0
C      1  0.4180486101733  0.2748005090211  0.4803687227478 1.0
C      1  0.7289472160517  0.3955058058633  0.4441933609210 1.0
C      1  0.5942841848722  0.7479828621791  0.5057170267981 1.0
C      1  0.2899224783871  0.5791443114145  0.4982949860471 1.0
C      1  0.6704140755359  0.1954567773082  0.4509843285285 1.0
C      1  0.7993293413975  0.6649876384356  0.5465717864412 1.0
C      1  0.3190592890750  0.7887292107676  0.4183157562047 1.0
C      1  0.2151764630276  0.2968129669476  0.5585323633941 1.0
C      1  0.6027022108943  0.6829167173674  0.4277194827723 1.0
C      1  0.3111089897485  0.5329335243358  0.5927141384144 1.0
C      1  0.4433822059449  0.3133383530792  0.3962768817645 1.0
C      1  0.6834868670280  0.4782194976987  0.6109994079473 1.0
C      1  0.4680192842692  0.6939190623663  0.5907279721480 1.0
C      1  0.3204210583515  0.4535963435274  0.4052695252840 1.0
C      1  0.5314804396250  0.3207439612762  0.5900411485999 1.0
C      1  0.6874954356702  0.5409142420501  0.3874364033514 1.0
C      1  0.6069414505751  0.5033854001225  0.8727000700094 1.0
C      1  0.5349211845811  0.5508568074863  0.1708609453174 1.0
C      1  0.4285332995359  0.5469868315213  0.8254921046483 1.0
C      1  0.4797967873501  0.3899686347175  0.1948677950157 1.0
C      1  0.2662159385144  0.2680791684032  0.4144817451091 1.0
C      1  0.7110535405122  0.2731429205102  0.5931150149918 1.0
C      1  0.7700919413754  0.6958335962038  0.3953802907931 1.0
C      1  0.2796715102516  0.7292538496011  0.5654341932198 1.0
C      1  0.4045161977644  0.0970915361063  0.5484081421988 1.0
C      1  0.8898235236535  0.3919231208986  0.4247107883532 1.0
C      1  0.5860739920475  0.9251344798781  0.5768174716423 1.0
C      1  0.0939695316349  0.5671338961133  0.4504418426306 1.0
C      1  0.5038608191285  0.1553249246309  0.6733435566614 1.0
C      1  0.8769747965359  0.5262541948286  0.3189317284226 1.0
C      1  0.4552208251229  0.8702746459027  0.6548173697763 1.0
C      1  0.1440606113447  0.4492737346101  0.3345918748312 1.0
C      1  0.6004457090081  0.5212441980332  0.4007551473345 1.0
C      1  0.4859450208560  0.6084570193798  0.6128737585190 1.0
C      1  0.4085107692559  0.4779920705562  0.3983017678235 1.0
C      1  0.5136067380442  0.4022312934112  0.6257131128035 1.0
C      1  0.5394925871694  0.7592306707133  0.5768685747138 1.0
C      1  0.2529316077944  0.5192600947778  0.4298512303435 1.0
C      1  0.4579839114976  0.2586904229914  0.5618070426516 1.0
C      1  0.7502325284428  0.4674085641521  0.3921277442358 1.0
C      1  0.7445947046297  0.5810698001280  0.7645417637176 1.0
C      1  0.4159762116436  0.6966720683019  0.2364842643526 1.0
C      1  0.2514400355542  0.4542617613163  0.7982649987774 1.0
C      1  0.5826890937973  0.2358867386495  0.2391053826006 1.0
C      1  0.1792253519610  0.2723205482459  0.4684085538793 1.0
C      1  0.6962497530575  0.1803687453857  0.5481553505044 1.0
C      1  0.8384614390636  0.7053895939314  0.4639246451960 1.0
C      1  0.2826473312438  0.8159702644003  0.5070012639915 1.0
C      1  0.4248985296877  0.8546953281388  0.2486293912802 1.0
C      1  0.1347555103598  0.4481759705714  0.6763858324291 1.0
C      1  0.5672754063740  0.0870291586928  0.3018150628996 1.0
C      1  0.8744302491841  0.5473185518491  0.6717756066251 1.0
C      1  0.6187122150982  0.9127919840245  0.4930275579700 1.0
C      1  0.1245597008118  0.6323120285591  0.5082146396857 1.0
C      1  0.3474603785253  0.1193053916058  0.4798655528429 1.0
C      1  0.8166968584781  0.3621822013720  0.4816882182736 1.0
C      1  0.6206948176812  0.8266284927138  0.4538947504428 1.0
C      1  0.2199295324583  0.6430036350004  0.5449337392427 1.0
C      1  0.3492783562914  0.2089686308443  0.4408002757067 1.0
C      1  0.7860249685795  0.3387672326790  0.5761542337439 1.0
C      1  0.6197437687750  0.2708655983421  0.4611836839559 1.0
C      1  0.7228685477477  0.6189907902935  0.5217592337888 1.0
C      1  0.3822349265352  0.7238437594881  0.4446063700461 1.0
C      1  0.2777443704619  0.3692524592364  0.5320676604884 1.0
C      1  0.4736167856155  0.5187477388862  0.0931976487382 1.0
C      1  0.5061955008770  0.5063403191500  0.0101795662684 1.0
C      1  0.4997763058383  0.4970800432892  0.5125689646663 1.0
END
