TITL C-29326-6164-10 -5.217 3375.00 -922.67171625 0 0 114 (C2v) n - 1
REM
REM Run started: at 2020.12.30 11:13:12 in /rds/project/t2_vol4/rds-t2-cs072/BORA/CARBON/AIRSS/Generating-Clusters/Str-Search/Higher-Symm/C100-200
REM VASP from code version vasp.5.4.4.18Apr17-6-g9f103f2a35 (build Oct 11 2019 16:45:47) gamma-only
REM
REM
REM
REM
REM ./C.cell (533062f00bc710175b3da973d35f2034)
REM AIRSS Version 0.9.1 bugfix July 2018 build 013d7b7c2542+ Fri, 06 Jul 2018 19:26:36 +0100
REM compiler GCC version 4.8.5 20150623 (Red Hat 4.8.5-39)
REM options -cpp -mtune=generic -march=x86-64 -g -O0
REM seed 609000232 -580201613 -1459143572 -564208435 1579849036 807739972 -313718698 -2026448720 361916528 1851768009 -261277370 2105653123
REM
REM C.POTCAR (d86ddea03c3ceb6dc662c8ad6801f873)
REM 
CELL 1.54180   15.00000   15.00000   15.00000   90.00000   90.00000   90.00000
LATT -1
SFAC C  
C      1  0.1859615107239  0.5646859072232  0.5960617225838 1.0
C      1  0.8140382901962  0.5646859863909  0.4039402109030 1.0
C      1  0.1859602142487  0.5646881976335  0.4039524491258 1.0
C      1  0.8140408417483  0.5646873574152  0.5960495285330 1.0
C      1  0.6093968922713  0.5581801418365  0.6041974571251 1.0
C      1  0.3906034609912  0.5581813357417  0.3958031363525 1.0
C      1  0.6093940338882  0.5581804755023  0.3957973422638 1.0
C      1  0.3906061866944  0.5581790577138  0.6042029127928 1.0
C      1  0.2225729593334  0.5552117766813  0.3177705824487 1.0
C      1  0.7774279145177  0.5552096927728  0.6822323866626 1.0
C      1  0.2225805187161  0.5552074703140  0.6822441034341 1.0
C      1  0.7774190424199  0.5552081321234  0.3177581911808 1.0
C      1  0.7017206562746  0.6733754279261  0.3892912695728 1.0
C      1  0.2982800942627  0.6733752698480  0.6107107248353 1.0
C      1  0.7017245939996  0.6733777873205  0.6107032752655 1.0
C      1  0.2982751650911  0.6733789770355  0.3892986608960 1.0
C      1  0.7182919013293  0.3315456819830  0.4011413047497 1.0
C      1  0.2817075522073  0.3315454379995  0.5988565005405 1.0
C      1  0.7182946181114  0.3315443469820  0.5988459362493 1.0
C      1  0.2817045852467  0.3315455350980  0.4011517586554 1.0
C      1  0.5486634342129  0.1532383873585  0.5484465916717 1.0
C      1  0.4513368845416  0.1532392992447  0.4515499533827 1.0
C      1  0.5486604939835  0.1532391935758  0.4515479852869 1.0
C      1  0.4513390463932  0.1532394959544  0.5484488770948 1.0
C      1  0.5454550881631  0.3588220752259  0.4502653813078 1.0
C      1  0.4545449976502  0.3588212693080  0.5497323148776 1.0
C      1  0.5454580772422  0.3588216284889  0.5497324525166 1.0
C      1  0.4545419624974  0.3588222469932  0.4502660497799 1.0
C      1  0.3982938295343  0.2107770564280  0.4003739682776 1.0
C      1  0.6017062846429  0.2107749576838  0.5996233405242 1.0
C      1  0.3982990493155  0.2107752463692  0.5996310639111 1.0
C      1  0.6017011978978  0.2107749492782  0.4003663982592 1.0
C      1  0.5798218917838  0.7694709387246  0.6757908469908 1.0
C      1  0.4201763001172  0.7694725026717  0.3242120534096 1.0
C      1  0.5798232441841  0.7694734258696  0.3242130776018 1.0
C      1  0.4201786481927  0.7694722897948  0.6757877415975 1.0
C      1  0.3179717679336  0.5956141109192  0.3288190165876 1.0
C      1  0.6820276840947  0.5956127702714  0.6711822033348 1.0
C      1  0.3179787043980  0.5956113576435  0.6711908206931 1.0
C      1  0.6820218897516  0.5956132886509  0.3288108792899 1.0
C      1  0.3469107278903  0.4789436579103  0.5500334088963 1.0
C      1  0.6530894736272  0.4789438804311  0.4499659191112 1.0
C      1  0.3469092815199  0.4789456309529  0.4499747649301 1.0
C      1  0.6530905027409  0.4789448728597  0.5500248824574 1.0
C      1  0.4489171470462  0.8751490244626  0.4531917097651 1.0
C      1  0.5510776105598  0.8751429982566  0.5468088116088 1.0
C      1  0.4489147537624  0.8751500397363  0.5468090589793 1.0
C      1  0.5510832000121  0.8751500979471  0.4531925479071 1.0
C      1  0.5505259278957  0.4923077867149  0.6614802851264 1.0
C      1  0.4494740423347  0.4923091822599  0.3385199621163 1.0
C      1  0.5505192124322  0.4923085769366  0.3385171933183 1.0
C      1  0.4494806278009  0.4923062774442  0.6614820400239 1.0
C      1  0.2320566317186  0.5309193660424  0.7701740911357 1.0
C      1  0.7679439067012  0.5309200657788  0.2298274541547 1.0
C      1  0.2320467985419  0.5309283561034  0.2298371950475 1.0
C      1  0.7679548749159  0.5309273190996  0.7701642030599 1.0
C      1  0.6778199609023  0.2585463850301  0.4484224055724 1.0
C      1  0.3221797188663  0.2585464161395  0.5515753871709 1.0
C      1  0.6778226729282  0.2585457161770  0.5515647714345 1.0
C      1  0.3221770949773  0.2585463987537  0.4484317748126 1.0
C      1  0.3435917980853  0.3661958559435  0.6650376256036 1.0
C      1  0.6564081847268  0.3661976600673  0.3349604150570 1.0
C      1  0.3435856895671  0.3661988778788  0.3349697304904 1.0
C      1  0.6564141677058  0.3661975765622  0.6650282736153 1.0
C      1  0.5485255300237  0.2348849787286  0.6794706047320 1.0
C      1  0.4514748803696  0.2348872560698  0.3205255275969 1.0
C      1  0.5485135579443  0.2348863822137  0.3205232041819 1.0
C      1  0.4514862389951  0.2348855260120  0.6794730446887 1.0
C      1  0.3854780047614  0.7173260354146  0.5939086443581 1.0
C      1  0.6145232696229  0.7173266648640  0.4060930269817 1.0
C      1  0.3854750881246  0.7173302201718  0.4060931321261 1.0
C      1  0.6145254548983  0.7173279504845  0.5939092676273 1.0
C      1  0.4053478459561  0.4184080125046  0.6047424998267 1.0
C      1  0.5946524359213  0.4184091768126  0.3952564158019 1.0
C      1  0.4053453802353  0.4184100792418  0.3952635832817 1.0
C      1  0.5946548792331  0.4184087800429  0.6047353237888 1.0
C      1  0.5498261252117  0.3059198431345  0.7493459124988 1.0
C      1  0.4501754081684  0.3059209830661  0.2506513399141 1.0
C      1  0.5498132930889  0.3059211869809  0.2506493520468 1.0
C      1  0.4501866061419  0.3059198350666  0.7493483920614 1.0
C      1  0.3993204715378  0.4757610754907  0.7493219590274 1.0
C      1  0.6006792387928  0.4757637589260  0.2506773035541 1.0
C      1  0.3993101958186  0.4757649066313  0.2506822423237 1.0
C      1  0.6006901443228  0.4757630395076  0.7493175481387 1.0
C      1  0.3297097006766  0.5373038110748  0.2451045659374 1.0
C      1  0.6702913547357  0.5373025387672  0.7548956240514 1.0
C      1  0.3297177506884  0.5372981980085  0.7549036128733 1.0
C      1  0.6702828673416  0.5373005875340  0.2450966697137 1.0
C      1  0.2547039495206  0.4189157698474  0.4482312083239 1.0
C      1  0.7452955549079  0.4189146879114  0.5517683208379 1.0
C      1  0.2547050319814  0.4189153168839  0.5517783599900 1.0
C      1  0.7452952795146  0.4189153108055  0.4482203808631 1.0
C      1  0.6134951824344  0.3736508324120  0.2487998063654 1.0
C      1  0.3865049111300  0.3736478470239  0.7511988519161 1.0
C      1  0.6135079257269  0.3736511065984  0.7511928901406 1.0
C      1  0.3864929164319  0.3736533018030  0.2488062950828 1.0
C      1  0.6026504253409  0.8158140875838  0.5976539380303 1.0
C      1  0.3973482002507  0.8158158537117  0.4023495010476 1.0
C      1  0.6026499428590  0.8158147556160  0.4023519262716 1.0
C      1  0.3973481346246  0.8158133780802  0.5976512495797 1.0
C      1  0.2321784841906  0.6415586064604  0.4503459990493 1.0
C      1  0.7678215485735  0.6415580573194  0.5496570221116 1.0
C      1  0.2321803521719  0.6415571634279  0.5496671221163 1.0
C      1  0.7678203462295  0.6415573800665  0.4503341193727 1.0
C      1  0.4437662586369  0.6380265332507  0.4466143611152 1.0
C      1  0.5562342277316  0.6380254041078  0.5533864036126 1.0
C      1  0.4437666391872  0.6380251924410  0.5533866501196 1.0
C      1  0.5562337221061  0.6380257367740  0.4466144195047 1.0
C      1  0.1764853534643  0.4836439297203  0.4534783852387 1.0
C      1  0.8235150673563  0.4836433522799  0.5465230408988 1.0
C      1  0.1764845220585  0.4836431389067  0.5465357908334 1.0
C      1  0.8235155435231  0.4836426111109  0.4534648399895 1.0
C      1  0.4999993402794  0.7778722289363  0.2865107130224 1.0
C      1  0.4999999010961  0.7778750846875  0.7134952254733 1.0
END
