TITL C-29123-7884-222 -2.661 3375.00 -442.19404089 0 0 55 (C1) n - 1
REM
REM Run started: at 2020.12.21 14:29:26 in /gpfs/home/chem/mssmkc/CARBON/AIRSS/Generating-Clusters/Str-Search/Higher-Symm/C4-100
REM VASP from code version vasp.5.4.4.18Apr17-6-g9f103f2a35 (build Oct 11 2019 16:45:47) gamma-only
REM
REM
REM
REM
REM ./C.cell (6bd13a13d554368a30d355f37ece5b26)
REM AIRSS Version 0.9.1 bugfix July 2018 build 013d7b7c2542+ Fri, 06 Jul 2018 19:26:36 +0100
REM compiler GCC version 6.3.0
REM options -cpp -iprefix /gpfs/warwick/csc/orac/software/Core/GCCcore/6.3.0/bin/../lib/gcc/x86_64-pc-linux-gnu/6.3.0/ -mtune=generic -march=x86-64 -g -O0
REM seed 1382779276 -1640704669 -1906894299 684379094 2132305888 -1708713632 872572729 1284472842 437617962 -989487344 -1365881447 -1066568522
REM
REM C.POTCAR (d86ddea03c3ceb6dc662c8ad6801f873)
REM 
CELL 1.54180   15.00000   15.00000   15.00000   90.00000   90.00000   90.00000
LATT -1
SFAC C  
C      1  0.5483604227304  0.5943565917369  0.5967814370678 1.0
C      1  0.4091348056773  0.5785454848064  0.3193797171509 1.0
C      1  0.6830117577502  0.4215246568700  0.7512418099834 1.0
C      1  0.3107780036846  0.5331325997500  0.5824834341556 1.0
C      1  0.5398574570813  0.6655536217721  0.6728899284965 1.0
C      1  0.5056588662932  0.6874898759712  0.5827731185386 1.0
C      1  0.2431903448741  0.4463554978063  0.4212967803765 1.0
C      1  0.6426653606306  0.4878284380183  0.7879137164939 1.0
C      1  0.5392695937308  0.7153694862340  0.4897360503905 1.0
C      1  0.7425906354246  0.3897336004030  0.4608826121164 1.0
C      1  0.6326903794334  0.5731712135360  0.5686156688946 1.0
C      1  0.3564293038269  0.3848375493288  0.3169986626255 1.0
C      1  0.4458813783436  0.3423568610059  0.3240682833861 1.0
C      1  0.4710126244487  0.4661349416439  0.5175861300868 1.0
C      1  0.6049805945188  0.4166866988592  0.6126103028606 1.0
C      1  0.3207173004945  0.5509415410187  0.3310439916266 1.0
C      1  0.4109346566725  0.6612078692065  0.5712995119350 1.0
C      1  0.6988563102209  0.6385356819357  0.4408720093408 1.0
C      1  0.2168016763441  0.5342571216345  0.4433905297514 1.0
C      1  0.4793728587977  0.5227007380683  0.6037811426216 1.0
C      1  0.4711154574991  0.6524944664348  0.3491437847887 1.0
C      1  0.3005464158844  0.4550202595257  0.3388985350204 1.0
C      1  0.3981661431381  0.4080870184510  0.5171009933046 1.0
C      1  0.4889883383062  0.5270102231387  0.3152076792754 1.0
C      1  0.2753794624196  0.3899154571279  0.4912381195461 1.0
C      1  0.7095837623324  0.4726835942474  0.4659861991771 1.0
C      1  0.4617108084942  0.7002648642574  0.4293001986468 1.0
C      1  0.3564002554024  0.3386890616534  0.4697931648308 1.0
C      1  0.5471722282122  0.4682953523655  0.4670043988630 1.0
C      1  0.6855934282832  0.3818190156160  0.6720727631148 1.0
C      1  0.2604981162485  0.5986214648535  0.3870420275346 1.0
C      1  0.3624700668849  0.3919676518191  0.6570224061329 1.0
C      1  0.5418571054347  0.6103210787184  0.7406321981808 1.0
C      1  0.5515523486235  0.5974365184060  0.3163854414893 1.0
C      1  0.5973055872640  0.3007021154612  0.3737483078233 1.0
C      1  0.6970741931506  0.3120534612722  0.5139829446097 1.0
C      1  0.6300534662799  0.7034991478403  0.4759232296276 1.0
C      1  0.7688766636700  0.2990450380805  0.4378530855352 1.0
C      1  0.6615558823035  0.3331176732040  0.5992313716738 1.0
C      1  0.3170192226448  0.4329539646663  0.5768640713692 1.0
C      1  0.5387250069086  0.3604261385281  0.3412299205978 1.0
C      1  0.2948204533693  0.6496545455071  0.4658574455015 1.0
C      1  0.4385566251339  0.4037914313998  0.6881205684169 1.0
C      1  0.6676391741802  0.2901001000434  0.4230721600501 1.0
C      1  0.6220217855713  0.5393817056700  0.3485611138295 1.0
C      1  0.5521834791090  0.4614977230774  0.3645546189212 1.0
C      1  0.3789474832935  0.6849915507709  0.4847839052386 1.0
C      1  0.6817525501117  0.6442099007326  0.5312819250289 1.0
C      1  0.2569611530388  0.5799290882788  0.5218260444189 1.0
C      1  0.3918059259529  0.5755455540923  0.6062772133466 1.0
C      1  0.3782731747391  0.3171178487184  0.3803534609097 1.0
C      1  0.6976218262235  0.5507198993902  0.4015571629019 1.0
C      1  0.6300286595777  0.4825650326153  0.5294338181295 1.0
C      1  0.5219724831827  0.4553449505224  0.6712346238713 1.0
C      1  0.5635771361533  0.5200072339087  0.7517801603947 1.0
END
