TITL C-29123-7884-169 -3.014 3375.00 -534.44696752 0 0 65 (C1) n - 1
REM
REM Run started: at 2020.12.21 03:17:00 in /gpfs/home/chem/mssmkc/CARBON/AIRSS/Generating-Clusters/Str-Search/Higher-Symm/C4-100
REM VASP from code version vasp.5.4.4.18Apr17-6-g9f103f2a35 (build Oct 11 2019 16:45:47) gamma-only
REM
REM
REM
REM
REM ./C.cell (6bd13a13d554368a30d355f37ece5b26)
REM AIRSS Version 0.9.1 bugfix July 2018 build 013d7b7c2542+ Fri, 06 Jul 2018 19:26:36 +0100
REM compiler GCC version 6.3.0
REM options -cpp -iprefix /gpfs/warwick/csc/orac/software/Core/GCCcore/6.3.0/bin/../lib/gcc/x86_64-pc-linux-gnu/6.3.0/ -mtune=generic -march=x86-64 -g -O0
REM seed 1357363522 -958664864 1254239911 621769461 -788126744 1997684063 1614220615 1833215794 -288490459 -530042169 163220661 921692059
REM
REM C.POTCAR (d86ddea03c3ceb6dc662c8ad6801f873)
REM 
CELL 1.54180   15.00000   15.00000   15.00000   90.00000   90.00000   90.00000
LATT -1
SFAC C  
C      1  0.4098951198970  0.5552344373676  0.5025351960148 1.0
C      1  0.3873870561167  0.4816510603896  0.4523220849298 1.0
C      1  0.4266977421842  0.4029758041896  0.4466463401315 1.0
C      1  0.4994417143580  0.3646291732908  0.4851183685040 1.0
C      1  0.5777564882216  0.3874511896637  0.4410866330655 1.0
C      1  0.6280469448347  0.4678791354905  0.4386965713435 1.0
C      1  0.6195616063950  0.5621044507665  0.4409204768427 1.0
C      1  0.5461550127796  0.6137834016264  0.4269917036227 1.0
C      1  0.4660056909274  0.6163890571015  0.4646008818520 1.0
C      1  0.5928530441898  0.3845616583025  0.2835494570388 1.0
C      1  0.6431291327753  0.4624718572784  0.2832972291496 1.0
C      1  0.6274395270736  0.5612181132106  0.2819480141648 1.0
C      1  0.5558115091543  0.6235775258735  0.2815403567648 1.0
C      1  0.4551711873936  0.6324455565443  0.2871161531707 1.0
C      1  0.3798130147255  0.5706993974816  0.2975762890487 1.0
C      1  0.3654097952073  0.4739336273319  0.3025247697973 1.0
C      1  0.4107600603754  0.3883247920351  0.3026342298130 1.0
C      1  0.4985315254134  0.3535935661634  0.2830454526651 1.0
C      1  0.3958146029370  0.2689371083265  0.5632276401597 1.0
C      1  0.5573920994216  0.2663588131506  0.5659161836599 1.0
C      1  0.6580377210881  0.3820783301604  0.5958707040174 1.0
C      1  0.7036219895471  0.5370497357223  0.5856993057001 1.0
C      1  0.6699740074028  0.6901591709678  0.5756897581846 1.0
C      1  0.5247185451808  0.7500447940749  0.5627439490819 1.0
C      1  0.3885211427416  0.6736157951019  0.5908274383925 1.0
C      1  0.2974349429263  0.5299612335893  0.5927772270889 1.0
C      1  0.2870958802174  0.3750439627037  0.5933255773161 1.0
C      1  0.6307493035097  0.7158642865690  0.4277972444220 1.0
C      1  0.4101700274336  0.7002986873181  0.4359769188836 1.0
C      1  0.3219777834569  0.6468617721008  0.4410509223565 1.0
C      1  0.2603451188622  0.4301362341386  0.4511523559662 1.0
C      1  0.2960938224274  0.3363293004850  0.4427429179833 1.0
C      1  0.4544753824575  0.2582139025598  0.4043125445649 1.0
C      1  0.6644770583319  0.3279660440326  0.4487887674853 1.0
C      1  0.7172318167574  0.4202335243199  0.4539554228845 1.0
C      1  0.6964307972675  0.6326890373901  0.4365253146969 1.0
C      1  0.4591664863593  0.7089508995052  0.3479277058500 1.0
C      1  0.3115874028680  0.5896781550901  0.3691667455361 1.0
C      1  0.3076864022232  0.4910472228935  0.3870382346487 1.0
C      1  0.3807531931442  0.3315252251578  0.3868644911415 1.0
C      1  0.5192716005933  0.2776015094359  0.3418472340835 1.0
C      1  0.6080507369274  0.3203011787691  0.3628232708936 1.0
C      1  0.7035648725598  0.4712111349346  0.3659586962363 1.0
C      1  0.6931851157180  0.5727198348568  0.3586719567792 1.0
C      1  0.5587485796604  0.6886775436236  0.3604187952284 1.0
C      1  0.7132154449360  0.4485703820951  0.5536118143707 1.0
C      1  0.7186119744153  0.6205912466676  0.5334811620156 1.0
C      1  0.6113399022172  0.7422577211630  0.5171204523604 1.0
C      1  0.4367342194535  0.7325596171929  0.5282013341551 1.0
C      1  0.3309322732400  0.6095758734377  0.5403236704964 1.0
C      1  0.2586690081362  0.4545545479915  0.5472143139832 1.0
C      1  0.3129889773690  0.3044552915335  0.5315530176337 1.0
C      1  0.4761510620933  0.2619215410865  0.5034128622491 1.0
C      1  0.6423640839871  0.3010143251469  0.5418659450941 1.0
C      1  0.4246014185038  0.3221546363949  0.6389629692869 1.0
C      1  0.5186216824225  0.3283672266369  0.6338781842696 1.0
C      1  0.5770936280469  0.4054189389848  0.6447166340011 1.0
C      1  0.6288007217232  0.5575167609801  0.6481720927814 1.0
C      1  0.6163825402466  0.6526246941359  0.6452153173993 1.0
C      1  0.5310291262410  0.6909115044137  0.6407668817921 1.0
C      1  0.4524541529822  0.6372023763544  0.6526322043598 1.0
C      1  0.3730752575083  0.4914968687908  0.6501546887503 1.0
C      1  0.3604470901398  0.3949331269461  0.6497155547091 1.0
C      1  0.4585154962083  0.5397377953720  0.6643592670425 1.0
C      1  0.5536747360872  0.4982003835904  0.6638144020885 1.0
END
