TITL C-29086-3345-49 -3.666 3375.00 -584.66129467 0 0 74 (D2) n - 1
REM
REM Run started: at 2020.12.20 01:44:59 in /gpfs/home/chem/mssmkc/CARBON/AIRSS/Generating-Clusters/Str-Search/Higher-Symm/C4-100
REM VASP from code version vasp.5.4.4.18Apr17-6-g9f103f2a35 (build Oct 11 2019 16:45:47) gamma-only
REM
REM
REM
REM
REM ./C.cell (6bd13a13d554368a30d355f37ece5b26)
REM AIRSS Version 0.9.1 bugfix July 2018 build 013d7b7c2542+ Fri, 06 Jul 2018 19:26:36 +0100
REM compiler GCC version 6.3.0
REM options -cpp -iprefix /gpfs/warwick/csc/orac/software/Core/GCCcore/6.3.0/bin/../lib/gcc/x86_64-pc-linux-gnu/6.3.0/ -mtune=generic -march=x86-64 -g -O0
REM seed -1157147519 1075291895 885218165 -1681882147 -2064981995 -1719637963 -1394004909 -85409648 -771499789 757907244 1576585322 -985851595
REM
REM C.POTCAR (d86ddea03c3ceb6dc662c8ad6801f873)
REM 
CELL 1.54180   15.00000   15.00000   15.00000   90.00000   90.00000   90.00000
LATT -1
SFAC C  
C      1  0.6013725308859  0.5421114341882  0.4111279987692 1.0
C      1  0.3986261324770  0.4578879111858  0.4111288379981 1.0
C      1  0.6014662617512  0.4581430041344  0.5867085843442 1.0
C      1  0.3985334254513  0.5418565723437  0.5867089119104 1.0
C      1  0.6197346804693  0.3410403098450  0.7466313966503 1.0
C      1  0.3802660344064  0.6589590231469  0.7466301984258 1.0
C      1  0.6193134516412  0.6590366155228  0.2513006491291 1.0
C      1  0.3806865144861  0.3409643563500  0.2513000649473 1.0
C      1  0.6415539942449  0.4952575518719  0.7643512314132 1.0
C      1  0.3584464577515  0.5047422795741  0.7643515005464 1.0
C      1  0.6417554147446  0.5050444580753  0.2339365069916 1.0
C      1  0.3582435009770  0.4949567096434  0.2339379643197 1.0
C      1  0.5955582606827  0.5625844896707  0.5742171794571 1.0
C      1  0.4044418880512  0.4374148534456  0.5742177227346 1.0
C      1  0.5957507900936  0.4375023823646  0.4236629454292 1.0
C      1  0.4042483110918  0.5624974282825  0.4236631227109 1.0
C      1  0.2973728671804  0.7338720744619  0.5883257222206 1.0
C      1  0.7026260382345  0.2661281161880  0.5883267518667 1.0
C      1  0.2981161816542  0.2654734907819  0.4090154894201 1.0
C      1  0.7018832647876  0.7345265113961  0.4090172057994 1.0
C      1  0.3267509971164  0.4184528226014  0.2709170578625 1.0
C      1  0.6732481265797  0.5815472705901  0.2709169463736 1.0
C      1  0.3268943282405  0.5811109212362  0.7271038734824 1.0
C      1  0.6731064868285  0.4188894985189  0.7271037288895 1.0
C      1  0.5974795479046  0.2630001209691  0.7017647624585 1.0
C      1  0.4025211179857  0.7370001842971  0.7017627907928 1.0
C      1  0.5969677951270  0.7371456451831  0.2958937058006 1.0
C      1  0.4030313596598  0.2628548606417  0.2958916142971 1.0
C      1  0.4191225271127  0.5533675047015  0.2590910137055 1.0
C      1  0.5808766508598  0.4466331303914  0.2590895097901 1.0
C      1  0.4193938478886  0.4465946035566  0.7387582370586 1.0
C      1  0.5806066712741  0.5534056518202  0.7387577744429 1.0
C      1  0.7663066153477  0.5684572457861  0.4451058056134 1.0
C      1  0.2336944993834  0.4315411862101  0.4451074680188 1.0
C      1  0.7665170901570  0.4323922142929  0.5517498415682 1.0
C      1  0.2334830183245  0.5676086621195  0.5517470273913 1.0
C      1  0.6397348382757  0.7771632760123  0.3694249089288 1.0
C      1  0.3602637280226  0.2228359232366  0.3694219009857 1.0
C      1  0.6401994366788  0.2238732746998  0.6278295978806 1.0
C      1  0.3598000854655  0.7761264461079  0.6278288920747 1.0
C      1  0.4533134594012  0.4872762366418  0.6498536290839 1.0
C      1  0.5466866565902  0.5127233025342  0.6498534638247 1.0
C      1  0.4532299576120  0.5126167187618  0.3479309139315 1.0
C      1  0.5467691254146  0.4873826470721  0.3479309691205 1.0
C      1  0.6880573995224  0.4224824824036  0.6250617738850 1.0
C      1  0.3119427790994  0.5775180097799  0.6250619037512 1.0
C      1  0.6881322832985  0.5779835852619  0.3730052273916 1.0
C      1  0.3118668710260  0.4220154921943  0.3730054046067 1.0
C      1  0.2633154736325  0.6507950558412  0.5751041145263 1.0
C      1  0.7366852946627  0.3492037197127  0.5751045779882 1.0
C      1  0.2635486391485  0.3479826412545  0.4230661792437 1.0
C      1  0.7364514747461  0.6520172587375  0.4230651392190 1.0
C      1  0.6530982882501  0.3654387811640  0.3884438364006 1.0
C      1  0.3469022406790  0.6345614719239  0.3884455579208 1.0
C      1  0.6528893284000  0.6346297227671  0.6094232818995 1.0
C      1  0.3471106586628  0.3653693899294  0.6094238363462 1.0
C      1  0.5275050732691  0.3141181683321  0.7437612718747 1.0
C      1  0.4724964580936  0.6858819018653  0.7437593257898 1.0
C      1  0.5270517469744  0.6858472465156  0.2539539565259 1.0
C      1  0.4729478810421  0.3141533918706  0.2539536605831 1.0
C      1  0.5598016921105  0.6525023702027  0.7397348934370 1.0
C      1  0.4401996720221  0.3474978396152  0.7397358820185 1.0
C      1  0.5603760832185  0.3474844401769  0.2578866409670 1.0
C      1  0.4396239988798  0.6525159910257  0.2578881412437 1.0
C      1  0.5456566514293  0.4196298994334  0.5050195777433 1.0
C      1  0.4543434476097  0.5803694364242  0.5050200028026 1.0
C      1  0.5455431695506  0.5803548134573  0.4927878133146 1.0
C      1  0.4544557668731  0.4196447016851  0.4927882012732 1.0
C      1  0.3812262986416  0.6804359721268  0.3265946231441 1.0
C      1  0.6187759769333  0.3195669995956  0.3265941464350 1.0
C      1  0.3817769987345  0.3194514738990  0.6711381864542 1.0
C      1  0.6182248512552  0.6805489414560  0.6711372006547 1.0
C      1  0.2131725631435  0.4992763244560  0.4990319727810 1.0
C      1  0.7868269707780  0.5007235564373  0.4990320513190 1.0
END
