TITL C-29262-3963-5 -6.315 3375.00 -1075.81239512 0 0 131 (C1) n - 1
REM
REM Run started: at 2020.12.30 05:49:41 in /rds/project/t2_vol4/rds-t2-cs072/BORA/CARBON/AIRSS/Generating-Clusters/Str-Search/Higher-Symm/C100-200
REM VASP from code version vasp.5.4.4.18Apr17-6-g9f103f2a35 (build Oct 11 2019 16:45:47) gamma-only
REM
REM
REM
REM
REM ./C.cell (533062f00bc710175b3da973d35f2034)
REM AIRSS Version 0.9.1 bugfix July 2018 build 013d7b7c2542+ Fri, 06 Jul 2018 19:26:36 +0100
REM compiler GCC version 4.8.5 20150623 (Red Hat 4.8.5-39)
REM options -cpp -mtune=generic -march=x86-64 -g -O0
REM seed 1468882194 -925899057 2076311709 -344679572 1599601026 -519996255 963570510 -1707221975 -1417118862 975776722 904717191 1536199623
REM
REM C.POTCAR (d86ddea03c3ceb6dc662c8ad6801f873)
REM 
CELL 1.54180   15.00000   15.00000   15.00000   90.00000   90.00000   90.00000
LATT -1
SFAC C  
C      1  0.4235068508813  0.7237115550011  0.6906817743824 1.0
C      1  0.4228116783908  0.5500690396941  0.2107900136954 1.0
C      1  0.4252840110231  0.2207697292335  0.6020860986087 1.0
C      1  0.7411787999456  0.3505117140492  0.7070367188682 1.0
C      1  0.7393398951266  0.7526762947647  0.5259697796934 1.0
C      1  0.7392227968133  0.3946095296289  0.2678763254656 1.0
C      1  0.6645528804663  0.6078887579594  0.6702776697422 1.0
C      1  0.6636320622497  0.5923024435965  0.3211315874930 1.0
C      1  0.6650074398044  0.2976860496615  0.5098735838830 1.0
C      1  0.5698935051038  0.8044234484574  0.3628050427626 1.0
C      1  0.5711540576507  0.2264740099116  0.3058617567089 1.0
C      1  0.5721979073644  0.4659984518845  0.8338160642765 1.0
C      1  0.3491705672223  0.6793500909809  0.7333378852235 1.0
C      1  0.3481038354647  0.6085832086029  0.2277360986483 1.0
C      1  0.3505039529371  0.2053804139531  0.5430093474596 1.0
C      1  0.5655031276981  0.5572686575612  0.7999000995475 1.0
C      1  0.5635135462645  0.7294594134114  0.3004204451385 1.0
C      1  0.5654084783420  0.2101609858966  0.4019636014730 1.0
C      1  0.6048865017495  0.4591793963253  0.1471577841107 1.0
C      1  0.6080520769329  0.2124789483159  0.7118717244099 1.0
C      1  0.6060648883931  0.8251209903481  0.6435874542872 1.0
C      1  0.7889200689264  0.4285674754000  0.4290485627809 1.0
C      1  0.7896522906283  0.4733390934143  0.5968630194487 1.0
C      1  0.7885465939186  0.5962534805330  0.4739884417317 1.0
C      1  0.5165648306261  0.2461265285106  0.2325412453858 1.0
C      1  0.5181402623458  0.3922913682075  0.8536923965609 1.0
C      1  0.5159138271880  0.8580456462414  0.4172038926713 1.0
C      1  0.5814841930372  0.5508153511571  0.1687073707944 1.0
C      1  0.5844938245924  0.1850137184901  0.6219174061037 1.0
C      1  0.5826871541268  0.7604348647042  0.7120117098794 1.0
C      1  0.4354088612773  0.4813986865292  0.2741698810949 1.0
C      1  0.4369980640691  0.3104429942457  0.6288708378912 1.0
C      1  0.4353731671979  0.7033301999449  0.5994201042476 1.0
C      1  0.2276213842229  0.7209065336861  0.4592583623144 1.0
C      1  0.2292003446459  0.3486758093993  0.3284333957018 1.0
C      1  0.2295586959979  0.4217234551978  0.7160486316515 1.0
C      1  0.6517831481925  0.2446140678582  0.4346305551313 1.0
C      1  0.6517822972369  0.5690349101834  0.7537123640107 1.0
C      1  0.6502016017010  0.6840096326844  0.3129531103224 1.0
C      1  0.5033488027616  0.6330675992278  0.6111485197536 1.0
C      1  0.5027565424337  0.5273126859815  0.3294659757637 1.0
C      1  0.5038065050397  0.3362240450187  0.5614339998370 1.0
C      1  0.4560238252305  0.3821249897080  0.3898016814925 1.0
C      1  0.4560256601119  0.4602643609012  0.6563899797350 1.0
C      1  0.4548366778733  0.6527187223230  0.4557679037946 1.0
C      1  0.5404594119285  0.4711044190256  0.6271855423333 1.0
C      1  0.5388790800960  0.6215573859311  0.4618982797002 1.0
C      1  0.5395967074883  0.4043224998125  0.4140931860531 1.0
C      1  0.7378885770180  0.4871715858568  0.2481131804854 1.0
C      1  0.7400892367560  0.2870222626381  0.6367452281729 1.0
C      1  0.7386657480762  0.7234125231297  0.6160037505288 1.0
C      1  0.4911442099119  0.6837568947520  0.2563701006978 1.0
C      1  0.4934988757982  0.1942984594003  0.4637701982869 1.0
C      1  0.4927617735635  0.6178839942125  0.7828990719378 1.0
C      1  0.7082469335314  0.7257872549998  0.3766220738013 1.0
C      1  0.7092495089643  0.2789992305529  0.3663040634724 1.0
C      1  0.7102241318301  0.4933351606508  0.7582247860847 1.0
C      1  0.6579900378017  0.2656499733151  0.2864339030994 1.0
C      1  0.6594807769479  0.4304450851833  0.8097549282829 1.0
C      1  0.6571599892134  0.8014620960702  0.4057209553273 1.0
C      1  0.3255180121064  0.3338823399870  0.3225965793524 1.0
C      1  0.3258271830455  0.4246085546924  0.7319525343415 1.0
C      1  0.3237166090152  0.7342723896584  0.4490865636847 1.0
C      1  0.2752745371145  0.4029082938152  0.4756606677237 1.0
C      1  0.2753152484227  0.5224946232341  0.5955406071314 1.0
C      1  0.2749492720054  0.5665650221742  0.4321938976070 1.0
C      1  0.5091613799013  0.7073713225828  0.7397218396134 1.0
C      1  0.5080216370788  0.6013984516924  0.2008984270529 1.0
C      1  0.5107055041896  0.1870014338699  0.5626281009049 1.0
C      1  0.5276349597388  0.8774933283071  0.4981255405291 1.0
C      1  0.5277272533646  0.3063474955202  0.1750345520120 1.0
C      1  0.5301376390044  0.3125661011219  0.8300453795673 1.0
C      1  0.3828213709522  0.4199726787767  0.3370475916618 1.0
C      1  0.3834024318812  0.3950118330630  0.6500858874031 1.0
C      1  0.3819945144910  0.6787583191265  0.5156046842459 1.0
C      1  0.7593796700620  0.4448677783819  0.6867368770598 1.0
C      1  0.7577284334316  0.6881592425070  0.4541313992822 1.0
C      1  0.7582340836129  0.3650879139208  0.3596861807009 1.0
C      1  0.6026110231313  0.2773187145761  0.7817481932799 1.0
C      1  0.6004135967902  0.8536052848453  0.5525463147863 1.0
C      1  0.5998389435869  0.3661382996521  0.1680910867470 1.0
C      1  0.1414569946865  0.4272209966790  0.5785552837196 1.0
C      1  0.1407712155254  0.5984717493183  0.5230460660204 1.0
C      1  0.1411702815829  0.4648865641330  0.4024067455857 1.0
C      1  0.6017272153149  0.6251763258729  0.6043436035221 1.0
C      1  0.6012060734253  0.5263537154896  0.3398740237017 1.0
C      1  0.6021082551383  0.3463079660039  0.5574086291885 1.0
C      1  0.6114100341567  0.4394588703519  0.5745743569838 1.0
C      1  0.6105650885074  0.5929727203888  0.5154295405298 1.0
C      1  0.6107799834571  0.4654537024722  0.4121822647759 1.0
C      1  0.6728927464622  0.3360880025182  0.2252974769374 1.0
C      1  0.6751030009227  0.3424360146927  0.7791537673183 1.0
C      1  0.6728880799581  0.8189504219814  0.4972574176604 1.0
C      1  0.7527012380769  0.6303088690781  0.6310983614765 1.0
C      1  0.7519798893646  0.5473205312196  0.3208745416507 1.0
C      1  0.7534653195497  0.3202928862823  0.5483135287098 1.0
C      1  0.2184568200778  0.7022530362201  0.6238334193757 1.0
C      1  0.2187600835832  0.5008344392485  0.2624722995554 1.0
C      1  0.2197791675110  0.2883622295088  0.6177554540148 1.0
C      1  0.4777219580961  0.3783491222337  0.4812289198024 1.0
C      1  0.4792939024112  0.5428536563016  0.6188783080193 1.0
C      1  0.4774546262150  0.5770063732100  0.4051755649652 1.0
C      1  0.6733777184783  0.2158567448683  0.6474939642980 1.0
C      1  0.6716758914526  0.7678391205004  0.6725453788396 1.0
C      1  0.6704918098505  0.5133973416655  0.1816336233334 1.0
C      1  0.2673091962114  0.6888120762020  0.6898030851868 1.0
C      1  0.2665635053172  0.5653918279643  0.2408919195837 1.0
C      1  0.2686090727463  0.2376468264771  0.5734855688073 1.0
C      1  0.3404461037607  0.5207909626398  0.7612892171853 1.0
C      1  0.3387506688090  0.7117440911004  0.3511464754074 1.0
C      1  0.3408762115909  0.2607798769350  0.3915338929125 1.0
C      1  0.7881191207945  0.5245682626289  0.4060546229058 1.0
C      1  0.7890942691266  0.4056161419651  0.5251823974820 1.0
C      1  0.7886258264126  0.5679969028082  0.5685786025539 1.0
C      1  0.3288375770527  0.4743464041943  0.4181714536523 1.0
C      1  0.3291711651967  0.4373228237982  0.5624326822057 1.0
C      1  0.3290804224275  0.5807229079016  0.5224434347543 1.0
C      1  0.3939718301134  0.2104195214291  0.4534647566311 1.0
C      1  0.3933027788684  0.5998230535150  0.7739040371778 1.0
C      1  0.3916847493577  0.6839950382229  0.2763161578141 1.0
C      1  0.1760689412011  0.4267477920015  0.4860525626701 1.0
C      1  0.1760364913999  0.5188696693108  0.5696407252432 1.0
C      1  0.1758271398425  0.5452713136743  0.4481457885458 1.0
C      1  0.2693195401085  0.5108142951814  0.6977555193327 1.0
C      1  0.2680946230088  0.6609143985883  0.3913227576982 1.0
C      1  0.2694603611521  0.3203180790650  0.4146161246522 1.0
C      1  0.1899135884774  0.3743658036028  0.6421394221418 1.0
C      1  0.1884090929072  0.6804188152919  0.5371826597517 1.0
C      1  0.1893549898782  0.4363348066383  0.3245808137114 1.0
C      1  0.3856714586650  0.4971945506172  0.5005263504433 1.0
C      1  0.6283440967111  0.4993199621867  0.5008171746369 1.0
END
