TITL C-29469-8165-47 -3.131 3375.00 -537.31954296 0 0 67 (C1) n - 1
REM
REM Run started: at 2021.01.04 15:49:53 in /gpfs/home/chem/mssmkc/CARBON/AIRSS/Generating-Clusters/Str-Search/Higher-Symm/C4-100
REM VASP from code version vasp.5.4.4.18Apr17-6-g9f103f2a35 (build Oct 11 2019 16:45:47) gamma-only
REM
REM
REM
REM
REM ./C.cell (6bd13a13d554368a30d355f37ece5b26)
REM AIRSS Version 0.9.1 bugfix July 2018 build 013d7b7c2542+ Fri, 06 Jul 2018 19:26:36 +0100
REM compiler GCC version 6.3.0
REM options -cpp -iprefix /gpfs/warwick/csc/orac/software/Core/GCCcore/6.3.0/bin/../lib/gcc/x86_64-pc-linux-gnu/6.3.0/ -mtune=generic -march=x86-64 -g -O0
REM seed 2078008899 -427328199 968636135 1111752216 -134129552 1867506330 655717496 -1435216824 376001399 -610857481 -1934653985 -822785900
REM
REM C.POTCAR (d86ddea03c3ceb6dc662c8ad6801f873)
REM 
CELL 1.54180   15.00000   15.00000   15.00000   90.00000   90.00000   90.00000
LATT -1
SFAC C  
C      1  0.3904393433175  0.4687792804823  0.4701501510681 1.0
C      1  0.3897998608736  0.5628582662187  0.5007521095156 1.0
C      1  0.3895041015000  0.4879624316919  0.5676103248925 1.0
C      1  0.6407130380690  0.3592116323333  0.4235091224246 1.0
C      1  0.6477515918064  0.6420977962960  0.4181187657221 1.0
C      1  0.6510514990553  0.4994294856483  0.6626569179196 1.0
C      1  0.6970095027312  0.4100888411281  0.4743790557859 1.0
C      1  0.6981194763528  0.5684229128113  0.4376632362641 1.0
C      1  0.7014448523728  0.5213168112794  0.5895820805309 1.0
C      1  0.5016332208270  0.6969353191065  0.3625805904695 1.0
C      1  0.4923197115308  0.4997482130397  0.7057229969758 1.0
C      1  0.4933825468347  0.2885930786071  0.4004632469982 1.0
C      1  0.3261424812556  0.3582971798682  0.6522005601943 1.0
C      1  0.3262983528737  0.4431752190745  0.3177970609218 1.0
C      1  0.3251568896742  0.7128083205000  0.5313031118374 1.0
C      1  0.4878547681508  0.4505465033514  0.4522996730767 1.0
C      1  0.4867894362309  0.5889121909665  0.4912658958748 1.0
C      1  0.4874644302330  0.4803570021207  0.6002289883616 1.0
C      1  0.2366251996778  0.5589807928270  0.4999190278890 1.0
C      1  0.2354202709786  0.4862642663962  0.5624893548591 1.0
C      1  0.2363594798255  0.4705499721184  0.4696002320781 1.0
C      1  0.3340132684727  0.4308236516651  0.7118902435407 1.0
C      1  0.3335420161789  0.3589335778558  0.3577188132561 1.0
C      1  0.3381167568562  0.7066288366787  0.4391660832299 1.0
C      1  0.3100964984406  0.6243546955810  0.4896409667621 1.0
C      1  0.3098133276616  0.4535764468144  0.6198105898502 1.0
C      1  0.3108129791322  0.4345865755380  0.4162033824297 1.0
C      1  0.4306763350045  0.7287375331707  0.4204291202598 1.0
C      1  0.4251813267421  0.4348031688011  0.7404607648800 1.0
C      1  0.4237702026915  0.3270258442164  0.3459633714066 1.0
C      1  0.5007410415910  0.6377407036571  0.2872108500345 1.0
C      1  0.4956286479626  0.6073490555370  0.6825880992738 1.0
C      1  0.4955722205870  0.2487244692267  0.4884977754494 1.0
C      1  0.5786179634490  0.3284224179946  0.3611246964448 1.0
C      1  0.5859371448402  0.7132830696435  0.4189089114357 1.0
C      1  0.5851094917786  0.4513802898991  0.7113881512350 1.0
C      1  0.6306434956668  0.6752380610983  0.6409290881457 1.0
C      1  0.6290250644020  0.2857178415935  0.5758466949374 1.0
C      1  0.6268158291366  0.5379798512205  0.2848753989090 1.0
C      1  0.5996923244464  0.7520146608060  0.5901189285619 1.0
C      1  0.6030941273712  0.2833005702933  0.6685634264303 1.0
C      1  0.5987513618788  0.4565363911940  0.2410736360948 1.0
C      1  0.4676366778485  0.7680089858548  0.5013535125509 1.0
C      1  0.4658678013022  0.3504054603158  0.7199684866824 1.0
C      1  0.4625741356051  0.3855428293709  0.2786090011774 1.0
C      1  0.5871278886108  0.6127395697323  0.2337655453627 1.0
C      1  0.5771199853999  0.6732341434804  0.7242538852021 1.0
C      1  0.5844054084391  0.2085622436542  0.5316451214150 1.0
C      1  0.5423312645564  0.5282366158488  0.2132040266823 1.0
C      1  0.5377174246923  0.7378619815230  0.6619480912298 1.0
C      1  0.5437437849010  0.2289800420047  0.6176944288512 1.0
C      1  0.5292162316354  0.5732312220241  0.5831513935797 1.0
C      1  0.5332290790478  0.4171581409300  0.5323646270291 1.0
C      1  0.5323320309232  0.5309325627293  0.4258221044534 1.0
C      1  0.4072069053712  0.7365081954003  0.5746392152329 1.0
C      1  0.4090048783693  0.3092265601467  0.6483187967115 1.0
C      1  0.4088438572844  0.4690179509962  0.2737227471155 1.0
C      1  0.6264976755029  0.5817290510190  0.6083075773850 1.0
C      1  0.6186287211569  0.3673496487535  0.5222371319052 1.0
C      1  0.6171967799370  0.5528769492745  0.3812913496706 1.0
C      1  0.5625593195867  0.3583972441150  0.7141939497884 1.0
C      1  0.5571751379972  0.3803885865437  0.2817160707600 1.0
C      1  0.5628281485541  0.7609498222598  0.5010018197288 1.0
C      1  0.4570090464287  0.5502902413041  0.2555026456796 1.0
C      1  0.4515915852958  0.6974229743929  0.6477689670172 1.0
C      1  0.4579748767134  0.2614322615302  0.5801260861015 1.0
C      1  0.7206994763792  0.4987027884455  0.4989026224606 1.0
END
