TITL C-29086-3345-30 -3.438 3375.00 -579.27969313 0 0 70 (C2v) n - 1
REM
REM Run started: at 2020.12.19 22:43:37 in /gpfs/home/chem/mssmkc/CARBON/AIRSS/Generating-Clusters/Str-Search/Higher-Symm/C4-100
REM VASP from code version vasp.5.4.4.18Apr17-6-g9f103f2a35 (build Oct 11 2019 16:45:47) gamma-only
REM
REM
REM
REM
REM ./C.cell (6bd13a13d554368a30d355f37ece5b26)
REM AIRSS Version 0.9.1 bugfix July 2018 build 013d7b7c2542+ Fri, 06 Jul 2018 19:26:36 +0100
REM compiler GCC version 6.3.0
REM options -cpp -iprefix /gpfs/warwick/csc/orac/software/Core/GCCcore/6.3.0/bin/../lib/gcc/x86_64-pc-linux-gnu/6.3.0/ -mtune=generic -march=x86-64 -g -O0
REM seed 729735763 -889289818 834227851 1492529867 -533382629 -1219405394 471882234 -208736920 -949123515 325723731 1206617599 -1854746960
REM
REM C.POTCAR (d86ddea03c3ceb6dc662c8ad6801f873)
REM 
CELL 1.54180   15.00000   15.00000   15.00000   90.00000   90.00000   90.00000
LATT -1
SFAC C  
C      1  0.4513522076595  0.5506397311426  0.3702883951734 1.0
C      1  0.5486477227728  0.4493600533160  0.3702886420522 1.0
C      1  0.5486473846755  0.5506397956866  0.3702881301831 1.0
C      1  0.4513520565855  0.4493600395146  0.3702886970859 1.0
C      1  0.5480053668638  0.5498090565910  0.7086619792130 1.0
C      1  0.4519949306715  0.4501909510855  0.7086618860620 1.0
C      1  0.4519947955294  0.5498090744559  0.7086619509122 1.0
C      1  0.5480053455849  0.4501908900445  0.7086619587949 1.0
C      1  0.4544426897090  0.8095774825900  0.5399770111934 1.0
C      1  0.5455573828626  0.1904223266381  0.5399771579992 1.0
C      1  0.5455571443438  0.8095773877014  0.5399769059628 1.0
C      1  0.4544426201558  0.1904223302486  0.5399772482794 1.0
C      1  0.3277506753139  0.2436287072144  0.5049214660096 1.0
C      1  0.6722491276018  0.7563713673039  0.5049212940166 1.0
C      1  0.6722494292393  0.2436284246821  0.5049211480263 1.0
C      1  0.3277506249083  0.7563713658458  0.5049216628934 1.0
C      1  0.7699442346172  0.5454097568883  0.2656779929960 1.0
C      1  0.2300620421889  0.4545814364056  0.2656841699054 1.0
C      1  0.2300572755114  0.5454067668312  0.2656748287883 1.0
C      1  0.7699399014447  0.4545838405361  0.2656832182935 1.0
C      1  0.6222847035981  0.2346127192758  0.5890167632494 1.0
C      1  0.3777154497757  0.7653868921396  0.5890169719168 1.0
C      1  0.3777154375175  0.2346128981211  0.5890170063379 1.0
C      1  0.6222845958751  0.7653869964959  0.5890167496871 1.0
C      1  0.4102467988187  0.6975978326300  0.6488154424427 1.0
C      1  0.5897533990453  0.3024019138689  0.6488156320535 1.0
C      1  0.5897535141054  0.6975977993916  0.6488152802987 1.0
C      1  0.4102467829038  0.3024021221776  0.6488157108454 1.0
C      1  0.2699324412746  0.6967216087529  0.4657686487148 1.0
C      1  0.7300674638320  0.3032788593582  0.4657670582772 1.0
C      1  0.7300672680927  0.6967214081362  0.4657681840403 1.0
C      1  0.2699327872770  0.3032792697103  0.4657675510250 1.0
C      1  0.2654142210821  0.4512708667571  0.5514628005799 1.0
C      1  0.7345855382625  0.5487289727917  0.5514622222917 1.0
C      1  0.7345857536265  0.4512706604370  0.5514623380174 1.0
C      1  0.2654141482738  0.5487291537154  0.5514629169550 1.0
C      1  0.4004739908592  0.3723617795656  0.3837182509645 1.0
C      1  0.5995249482492  0.6276383261533  0.3837179379608 1.0
C      1  0.5995260685076  0.3723618542282  0.3837181489834 1.0
C      1  0.4004744112713  0.6276381088271  0.3837185824180 1.0
C      1  0.7012804900744  0.3640777777346  0.3911300931403 1.0
C      1  0.2987191151760  0.6359214199189  0.3911300301149 1.0
C      1  0.2987198348064  0.3640778034828  0.3911306805473 1.0
C      1  0.7012799164875  0.6359219830068  0.3911299128108 1.0
C      1  0.2562298553525  0.6093052363349  0.4831375814390 1.0
C      1  0.7437699109413  0.3906941130904  0.4831362876081 1.0
C      1  0.7437695079843  0.6093052573866  0.4831369179031 1.0
C      1  0.2562303342739  0.3906945797001  0.4831364460568 1.0
C      1  0.4518924693407  0.7069877394467  0.4060186165173 1.0
C      1  0.5481075180143  0.2930124033278  0.4060188079021 1.0
C      1  0.5481068792517  0.7069878561117  0.4060183798021 1.0
C      1  0.4518924601162  0.2930123455015  0.4060187655747 1.0
C      1  0.6159063717609  0.6045827500256  0.6705744516026 1.0
C      1  0.3840937352061  0.3954171786789  0.6705747172708 1.0
C      1  0.3840938073776  0.6045828513576  0.6705745939851 1.0
C      1  0.6159065673320  0.3954170100437  0.6705747141023 1.0
C      1  0.7494191598026  0.6105112097425  0.3116085558401 1.0
C      1  0.2505769516160  0.3894999387397  0.3115951635067 1.0
C      1  0.2505795270356  0.6105124528461  0.3116112525553 1.0
C      1  0.7494228507795  0.3894982695964  0.3115973426833 1.0
C      1  0.5901104894394  0.7753942059275  0.4602753828977 1.0
C      1  0.4098892533307  0.2246055826003  0.4602759276102 1.0
C      1  0.4098891163644  0.7753942159064  0.4602756557278 1.0
C      1  0.5901107439527  0.2246055382134  0.4602758490114 1.0
C      1  0.6835470649556  0.4492783242518  0.6333456087224 1.0
C      1  0.3164530626093  0.5507213572696  0.6333457256924 1.0
C      1  0.3164531439566  0.4492784771040  0.6333459205824 1.0
C      1  0.6835469141423  0.5507211687679  0.6333452727131 1.0
C      1  0.5000000652799  0.2838705570004  0.6602479946743 1.0
C      1  0.5000002027521  0.7161295696296  0.6602478105058 1.0
END
