TITL C-29013-524-4 -7.994 3375.00 -1161.19503466 0 0 141 (C1) n - 1
REM
REM Run started: at 2020.12.30 05:08:42 in /rds/project/t2_vol4/rds-t2-cs072/BORA/CARBON/AIRSS/Generating-Clusters/Str-Search/Higher-Symm/C100-200
REM VASP from code version vasp.5.4.4.18Apr17-6-g9f103f2a35 (build Oct 11 2019 16:45:47) gamma-only
REM
REM
REM
REM
REM ./C.cell (533062f00bc710175b3da973d35f2034)
REM AIRSS Version 0.9.1 bugfix July 2018 build 013d7b7c2542+ Fri, 06 Jul 2018 19:26:36 +0100
REM compiler GCC version 4.8.5 20150623 (Red Hat 4.8.5-39)
REM options -cpp -mtune=generic -march=x86-64 -g -O0
REM seed 683275040 2022780818 -260078656 -515184979 -895518984 -897300430 -1203156845 978331869 60732942 1949292508 936301672 -601401825
REM
REM C.POTCAR (d86ddea03c3ceb6dc662c8ad6801f873)
REM 
CELL 1.54180   15.00000   15.00000   15.00000   90.00000   90.00000   90.00000
LATT -1
SFAC C  
C      1  0.7146455468866  0.2310550339892  0.5613247366681 1.0
C      1  0.7263953213733  0.2600952735185  0.3565039043336 1.0
C      1  0.7325589408518  0.3261423705754  0.2828991650097 1.0
C      1  0.7481793806026  0.5411049399205  0.2534086820640 1.0
C      1  0.7422166383501  0.6387287290582  0.2582068348116 1.0
C      1  0.7496350375371  0.6871242048535  0.3428969077150 1.0
C      1  0.7165613604455  0.7579062983296  0.5517513022330 1.0
C      1  0.7234111849198  0.7173931335903  0.6416221125051 1.0
C      1  0.7272567769683  0.5475732802358  0.7513361089756 1.0
C      1  0.7299796587394  0.4500660527965  0.7553846414552 1.0
C      1  0.7178847811685  0.2736910469283  0.6489570603214 1.0
C      1  0.6348960150100  0.8111562277074  0.3425241196843 1.0
C      1  0.6087356881249  0.8995719089901  0.5475125902148 1.0
C      1  0.6207354292283  0.7850533754691  0.7485994279158 1.0
C      1  0.6130177508704  0.6138882924450  0.8549648509729 1.0
C      1  0.6217484665280  0.3894584426744  0.8705588877375 1.0
C      1  0.6043060908266  0.2123980395268  0.7563514267962 1.0
C      1  0.6097565373801  0.0897803918471  0.5508289885333 1.0
C      1  0.6054011645476  0.1450557998086  0.3426231645231 1.0
C      1  0.6149791645660  0.3018728831521  0.1655905315481 1.0
C      1  0.6296285592021  0.5027814760440  0.1358083865469 1.0
C      1  0.6248588976327  0.7180030147499  0.1658381195964 1.0
C      1  0.4643761581177  0.3932700976343  0.8440626721586 1.0
C      1  0.4513551053571  0.2345115736815  0.7247017932090 1.0
C      1  0.4621415602558  0.1267659637049  0.5475713111021 1.0
C      1  0.4566934908412  0.1977749418510  0.3510386710138 1.0
C      1  0.4656305504321  0.3337831307205  0.2055572808647 1.0
C      1  0.4529472935822  0.5220761068610  0.1692775983792 1.0
C      1  0.4782161477885  0.7031227158324  0.2189983282868 1.0
C      1  0.4807758418870  0.8081251158570  0.3925370425727 1.0
C      1  0.4564408499525  0.8660357076795  0.5588073821494 1.0
C      1  0.4693441934961  0.7560132526833  0.7136125705949 1.0
C      1  0.4574233997411  0.5929718243431  0.8312136287082 1.0
C      1  0.2482087049256  0.2663860115056  0.5800406452804 1.0
C      1  0.2500590581507  0.2574422213046  0.4848769387177 1.0
C      1  0.2465393440964  0.3402629716660  0.3165820820472 1.0
C      1  0.2461576120490  0.4239612900517  0.2690139829720 1.0
C      1  0.2560424160394  0.6228331972887  0.3043826588685 1.0
C      1  0.2696441515101  0.7074922536845  0.3470220922840 1.0
C      1  0.2544597781358  0.7326678569261  0.4375991276565 1.0
C      1  0.2441392173510  0.7276731586399  0.6359331357864 1.0
C      1  0.2440679242991  0.6626738217486  0.7072231379325 1.0
C      1  0.2469071851191  0.4792062355575  0.7529306546256 1.0
C      1  0.2466760196079  0.3880192637161  0.7242618571736 1.0
C      1  0.5381756269886  0.7387596015088  0.1606059376241 1.0
C      1  0.5507027172999  0.8368324128886  0.3429149364125 1.0
C      1  0.5176103320734  0.9403598399788  0.5530553137060 1.0
C      1  0.5351597975708  0.7878857406059  0.7665273633392 1.0
C      1  0.5280776296543  0.6299285193659  0.8734881154076 1.0
C      1  0.5367257594977  0.3782992127355  0.8922914021427 1.0
C      1  0.5183446298034  0.2037587227740  0.7764950865853 1.0
C      1  0.5193447730744  0.0508389145857  0.5506366566852 1.0
C      1  0.5179759221219  0.1319246339872  0.3422631601733 1.0
C      1  0.5283842768164  0.3055578122787  0.1468685009872 1.0
C      1  0.5386355269718  0.5122569569481  0.1521896913118 1.0
C      1  0.3301073987263  0.6092326871074  0.2390964084511 1.0
C      1  0.3469016734316  0.7507645058400  0.3118293928294 1.0
C      1  0.3274571050380  0.7961607604625  0.4647546581967 1.0
C      1  0.3242809429771  0.7783442119104  0.6339373236040 1.0
C      1  0.3247870134785  0.6679080541341  0.7562980353572 1.0
C      1  0.3229310420548  0.5022431589168  0.8021198415514 1.0
C      1  0.3225790720414  0.3402689750294  0.7500936659804 1.0
C      1  0.3214705312976  0.2281723272617  0.6222499551140 1.0
C      1  0.3272564138068  0.2137723963065  0.4525606723175 1.0
C      1  0.3250726314339  0.2918429225788  0.3001018257631 1.0
C      1  0.3247715795614  0.4353655691764  0.2182774550301 1.0
C      1  0.4675541569087  0.4381256621998  0.7557621053695 1.0
C      1  0.4826533074828  0.2724321003618  0.6418716944958 1.0
C      1  0.4764816576902  0.2269687904632  0.5538633443808 1.0
C      1  0.4990992737215  0.2844819173824  0.3583414085571 1.0
C      1  0.5039273787606  0.3495130439308  0.2939538005142 1.0
C      1  0.5176036256488  0.5445515924437  0.2444821703979 1.0
C      1  0.5153371914527  0.6342696154086  0.2770589996182 1.0
C      1  0.5069999950232  0.7445997142756  0.4649912035663 1.0
C      1  0.4977302085913  0.7735054667330  0.5535833826033 1.0
C      1  0.4996979518035  0.7150193217322  0.6279277705760 1.0
C      1  0.4816363597826  0.5345889382200  0.7584063577315 1.0
C      1  0.5203006289773  0.3441434567855  0.4304729810635 1.0
C      1  0.5264562677706  0.4199028422428  0.3576256815052 1.0
C      1  0.5292146046021  0.5094388371085  0.3372081250309 1.0
C      1  0.5257784612759  0.6065210908631  0.3654699968215 1.0
C      1  0.5221136735084  0.6530192772661  0.4487601810632 1.0
C      1  0.5211741963688  0.5984015897085  0.5239397075232 1.0
C      1  0.5138119141768  0.6211650728772  0.6132949283777 1.0
C      1  0.5074451689832  0.5414412668833  0.6703634651528 1.0
C      1  0.5014298409269  0.4376027643253  0.6628841586652 1.0
C      1  0.5078565007307  0.3577314494845  0.6103386429664 1.0
C      1  0.5125743986822  0.3186757848752  0.5177057522761 1.0
C      1  0.1928610133668  0.4095094692760  0.6449402825140 1.0
C      1  0.1938420082651  0.3486941751772  0.5739098201352 1.0
C      1  0.1945875967604  0.3364303250905  0.4721285430956 1.0
C      1  0.1937135332658  0.3785602341274  0.3886415336178 1.0
C      1  0.1975679664153  0.4679258740885  0.3360173236034 1.0
C      1  0.1984391414233  0.5622506183274  0.3515942355289 1.0
C      1  0.1754966838495  0.5905937469566  0.4401129781031 1.0
C      1  0.1969303688058  0.6726528344910  0.4854199977584 1.0
C      1  0.1942856917638  0.6699933999195  0.5799531663982 1.0
C      1  0.1916723025799  0.5989480014672  0.6546152496857 1.0
C      1  0.1921035162913  0.5078031688681  0.6771500078120 1.0
C      1  0.3616248015537  0.5925907946603  0.8084499583282 1.0
C      1  0.3758387242037  0.4105183128110  0.8039785304222 1.0
C      1  0.3570776872724  0.2588969462050  0.7089283819521 1.0
C      1  0.3783833387266  0.1867084254914  0.5420809167748 1.0
C      1  0.3615973134575  0.2223804780748  0.3633870404225 1.0
C      1  0.3702341144725  0.3473704494505  0.2272734713885 1.0
C      1  0.3606319335144  0.5242168441863  0.1983943256111 1.0
C      1  0.3828004781079  0.6949568866616  0.2424911946317 1.0
C      1  0.3846647063922  0.8029634435162  0.3833714812280 1.0
C      1  0.3592123387674  0.8250407744404  0.5525425369531 1.0
C      1  0.3723508310004  0.7446032229728  0.7134477909217 1.0
C      1  0.7525430000249  0.6744808996852  0.5120346822418 1.0
C      1  0.7524875944469  0.6298878177822  0.6057860419859 1.0
C      1  0.7527890763576  0.5499572572454  0.6564407860221 1.0
C      1  0.7533793829837  0.4417553546516  0.6597194524351 1.0
C      1  0.7497641895999  0.3601546649564  0.6111989498228 1.0
C      1  0.7479151938241  0.3127404095900  0.5169337553954 1.0
C      1  0.7553735863144  0.3276030290210  0.4221827139321 1.0
C      1  0.7639863868706  0.3954635211109  0.3450022965041 1.0
C      1  0.7744583334991  0.4914044513544  0.3318035163521 1.0
C      1  0.7978553834722  0.5461180577590  0.4107945582943 1.0
C      1  0.7711375680035  0.6404067561605  0.4234232467022 1.0
C      1  0.6765630191873  0.2412258299028  0.7233459986147 1.0
C      1  0.6657831244174  0.1514302454231  0.5468485843396 1.0
C      1  0.6806525950271  0.1822051187114  0.3541650110805 1.0
C      1  0.6895495548534  0.3158525174796  0.2033788234971 1.0
C      1  0.7004464455328  0.5076302411380  0.1795558503614 1.0
C      1  0.6992215693631  0.6871467533889  0.1904658519782 1.0
C      1  0.7082865029492  0.7703252255362  0.3405794814634 1.0
C      1  0.6652529926059  0.8378623530601  0.5389987798291 1.0
C      1  0.6938437961242  0.7517721912390  0.7200786633603 1.0
C      1  0.6850277324243  0.6011348615955  0.8119826764284 1.0
C      1  0.6893532908476  0.4027936958805  0.8218799767373 1.0
C      1  0.8567595158262  0.5027092381147  0.4845061549468 1.0
C      1  0.2601798989115  0.4901730457469  0.5151397635304 1.0
C      1  0.5151387767179  0.5033727742875  0.5061278968697 1.0
C      1  0.3463532154418  0.4774365993276  0.5149027748232 1.0
C      1  0.4290892729853  0.4738319201228  0.5047291777845 1.0
C      1  0.6826336745238  0.4785002720593  0.5034127421486 1.0
C      1  0.1816818172753  0.5185509037368  0.5000448768696 1.0
C      1  0.7706601301883  0.4891588471887  0.4943408830998 1.0
C      1  0.6000757360602  0.4716201593835  0.5014499662923 1.0
END
