TITL C-29086-3345-251 -4.307 3375.00 -774.04855478 0 0 99 (D3h) n - 1
REM
REM Run started: at 2020.12.21 15:09:57 in /gpfs/home/chem/mssmkc/CARBON/AIRSS/Generating-Clusters/Str-Search/Higher-Symm/C4-100
REM VASP from code version vasp.5.4.4.18Apr17-6-g9f103f2a35 (build Oct 11 2019 16:45:47) gamma-only
REM
REM
REM
REM
REM ./C.cell (6bd13a13d554368a30d355f37ece5b26)
REM AIRSS Version 0.9.1 bugfix July 2018 build 013d7b7c2542+ Fri, 06 Jul 2018 19:26:36 +0100
REM compiler GCC version 6.3.0
REM options -cpp -iprefix /gpfs/warwick/csc/orac/software/Core/GCCcore/6.3.0/bin/../lib/gcc/x86_64-pc-linux-gnu/6.3.0/ -mtune=generic -march=x86-64 -g -O0
REM seed 1154143400 -1265912954 573923970 2070138703 617630744 1303319669 773840814 -51379964 2058758606 1579239615 517822759 391858855
REM
REM C.POTCAR (d86ddea03c3ceb6dc662c8ad6801f873)
REM 
CELL 1.54180   15.00000   15.00000   15.00000   90.00000   90.00000   90.00000
LATT -1
SFAC C  
C      1  0.6583571118086  0.4508533444849  0.4179176447085 1.0
C      1  0.6583784994490  0.4535207267197  0.5835367248890 1.0
C      1  0.6584042896082  0.5955879710557  0.4984324966393 1.0
C      1  0.3394268043514  0.4508581578585  0.4179442556333 1.0
C      1  0.3393727859811  0.4535203835400  0.5834994173611 1.0
C      1  0.3393415000079  0.5956185939039  0.4984056732342 1.0
C      1  0.6583571097607  0.5491466519143  0.4179176896285 1.0
C      1  0.6583784844969  0.5464792596732  0.5835367417607 1.0
C      1  0.6584042978242  0.4044120290166  0.4984324502938 1.0
C      1  0.3394268043177  0.5491418527045  0.4179443015684 1.0
C      1  0.3393727983492  0.5464795976389  0.5834994497228 1.0
C      1  0.3393414859177  0.4043813974542  0.4984056144333 1.0
C      1  0.6018959611928  0.4520892168696  0.2802175998704 1.0
C      1  0.6019874541992  0.3335682716434  0.6513188656432 1.0
C      1  0.6020576335277  0.7142766651227  0.5683791970835 1.0
C      1  0.3958024377040  0.4520859732977  0.2802163232532 1.0
C      1  0.3955496949230  0.3334781820982  0.6513429138319 1.0
C      1  0.3954556259977  0.7143935252903  0.5683993900407 1.0
C      1  0.6018959631124  0.5479107850394  0.2802176367280 1.0
C      1  0.6019874420493  0.6664317353107  0.6513188847929 1.0
C      1  0.6020576327743  0.2857233422720  0.5683791836664 1.0
C      1  0.3958024268709  0.5479140386795  0.2802163483670 1.0
C      1  0.3955496958149  0.6665218343616  0.6513429510537 1.0
C      1  0.3954556180805  0.2856064673253  0.5683993720467 1.0
C      1  0.3568233490829  0.2465032902643  0.4157400938818 1.0
C      1  0.3569029813331  0.5536660485706  0.7617168475803 1.0
C      1  0.3569852323757  0.6999923489241  0.3227689932925 1.0
C      1  0.6410144988043  0.2464737039090  0.4157366436545 1.0
C      1  0.6408889952819  0.5536679254785  0.7617845947102 1.0
C      1  0.6408680258178  0.7000036340180  0.3227372086639 1.0
C      1  0.3568233658763  0.7534966798353  0.4157400683992 1.0
C      1  0.3569029750880  0.4463339723025  0.7617168475931 1.0
C      1  0.3569852336884  0.3000076597178  0.3227690406814 1.0
C      1  0.6410144898263  0.7535262727151  0.4157366128911 1.0
C      1  0.6408890051444  0.4463320974923  0.7617845985447 1.0
C      1  0.6408680266226  0.2999963704331  0.3227372560091 1.0
C      1  0.3203797536956  0.7408475736287  0.5031274021545 1.0
C      1  0.3207868247160  0.3821415175238  0.2897835849227 1.0
C      1  0.3205585194388  0.3768058844820  0.7069551397225 1.0
C      1  0.6772042259156  0.7407881474367  0.5031808262257 1.0
C      1  0.6769282288398  0.3821540328979  0.2897955253504 1.0
C      1  0.6770158669978  0.3768067264664  0.7069537650582 1.0
C      1  0.3203797349826  0.2591523977894  0.5031274273846 1.0
C      1  0.3207868159059  0.6178584866135  0.2897836056444 1.0
C      1  0.3205585166970  0.6231941272984  0.7069551380352 1.0
C      1  0.6772042348890  0.2592118328563  0.5031808554674 1.0
C      1  0.6769282305253  0.6178459642312  0.2897955494380 1.0
C      1  0.6770158603558  0.6231932831723  0.7069537539986 1.0
C      1  0.4320366776743  0.5818596182468  0.6060649007413 1.0
C      1  0.4321667261397  0.5508800538246  0.3761172345793 1.0
C      1  0.4319475900083  0.3671326932360  0.5177299571843 1.0
C      1  0.5656267988234  0.5817806955933  0.6060299330042 1.0
C      1  0.5656028289702  0.5509129891175  0.3760780769403 1.0
C      1  0.5656873995092  0.3673204756434  0.5176690901741 1.0
C      1  0.4320366685599  0.4181403813982  0.6060648359871 1.0
C      1  0.4321667403599  0.4491199905469  0.3761172142984 1.0
C      1  0.4319476163902  0.6328672830723  0.5177300210909 1.0
C      1  0.5656268179171  0.4182192980051  0.6060299381075 1.0
C      1  0.5656028226061  0.4490870022899  0.3760780260364 1.0
C      1  0.5656873835323  0.6326795561941  0.5176691184134 1.0
C      1  0.2621088008542  0.6580328379965  0.5265485370978 1.0
C      1  0.2623315589377  0.4439167993644  0.3496172613888 1.0
C      1  0.2621221392119  0.3979319716131  0.6235540831528 1.0
C      1  0.7356008394860  0.6580525587511  0.5266012081281 1.0
C      1  0.7354614569899  0.4439328652651  0.3496184693172 1.0
C      1  0.7355749944064  0.3978892129860  0.6236135755897 1.0
C      1  0.2621087933189  0.3419671527137  0.5265484735888 1.0
C      1  0.2623315634887  0.5560832434851  0.3496173117913 1.0
C      1  0.2621221476752  0.6020680117929  0.6235541200364 1.0
C      1  0.7356008437447  0.3419474335967  0.5266011514119 1.0
C      1  0.7354614502706  0.5560671708104  0.3496185157723 1.0
C      1  0.7355749823928  0.6021107742626  0.6236136094602 1.0
C      1  0.1846967168035  0.5479282420574  0.5828993287524 1.0
C      1  0.1848594539419  0.5479747014489  0.4167638825045 1.0
C      1  0.1847456863326  0.4041129067882  0.4998212235083 1.0
C      1  0.8130207507962  0.5479380791835  0.5829746483006 1.0
C      1  0.8129200858912  0.5479761546302  0.4167933816012 1.0
C      1  0.8129753805208  0.4041153724229  0.4998694421354 1.0
C      1  0.1846967195354  0.4520717377806  0.5828992737525 1.0
C      1  0.1848594456659  0.4520253207368  0.4167638270025 1.0
C      1  0.1847456940694  0.5958870889795  0.4998212952978 1.0
C      1  0.8130207498012  0.4520619019953  0.5829745944070 1.0
C      1  0.8129200951521  0.4520238656470  0.4167933279711 1.0
C      1  0.8129753736012  0.5958846231977  0.4998695122159 1.0
C      1  0.4473489987262  0.4528131142084  0.8027748744042 1.0
C      1  0.4473758922549  0.7857452455866  0.3898604142804 1.0
C      1  0.4474312968344  0.2612331760611  0.3080672067694 1.0
C      1  0.5504278676802  0.4528160849883  0.8028251580183 1.0
C      1  0.5504757516298  0.7857289729459  0.3898472060101 1.0
C      1  0.5504162414219  0.2612355806337  0.3080561040853 1.0
C      1  0.4473489959571  0.5471869138271  0.8027749187077 1.0
C      1  0.4473758849773  0.2142547344625  0.3898604680395 1.0
C      1  0.4474312906452  0.7387668290822  0.3080671357690 1.0
C      1  0.5504278689527  0.5471839455468  0.8028252041302 1.0
C      1  0.5504757535271  0.2142710092657  0.3898472622419 1.0
C      1  0.5504162476029  0.7387644240928  0.3080560324630 1.0
C      1  0.4988501625109  0.4999999693566  0.6211130367138 1.0
C      1  0.4988837021105  0.6050678716294  0.4397564208901 1.0
C      1  0.4988837017693  0.3949320823071  0.4397564511808 1.0
END
