TITL C-29737-7294-13 -7.28 3375.00 -1286.36965182 0 0 155 (C1) n - 1
REM
REM Run started: at 2021.01.04 15:57:01 in /gpfs/home/chem/mssmkc/CARBON/AIRSS/Generating-Clusters/Str-Search/Higher-Symm/C100-200
REM VASP from code version vasp.5.4.4.18Apr17-6-g9f103f2a35 (build Oct 11 2019 16:45:47) gamma-only
REM
REM
REM
REM
REM ./C.cell (533062f00bc710175b3da973d35f2034)
REM AIRSS Version 0.9.1 bugfix July 2018 build 013d7b7c2542+ Fri, 06 Jul 2018 19:26:36 +0100
REM compiler GCC version 6.3.0
REM options -cpp -iprefix /gpfs/warwick/csc/orac/software/Core/GCCcore/6.3.0/bin/../lib/gcc/x86_64-pc-linux-gnu/6.3.0/ -mtune=generic -march=x86-64 -g -O0
REM seed -349024735 -1095814947 -2058485225 1379462 -1114370492 -738295818 414371770 205857332 -94797755 1260279692 -54619657 236602553
REM
REM C.POTCAR (d86ddea03c3ceb6dc662c8ad6801f873)
REM 
CELL 1.54180   15.00000   15.00000   15.00000   90.00000   90.00000   90.00000
LATT -1
SFAC C  
C      1  0.4307772299177  0.5479687180280  0.3544064517987 1.0
C      1  0.5920583462533  0.5285626135927  0.6550579717691 1.0
C      1  0.5987365182239  0.4601637148740  0.3383945533491 1.0
C      1  0.4306449636959  0.4457566384348  0.6355657230275 1.0
C      1  0.3622957901548  0.5438482363041  0.4215037262425 1.0
C      1  0.6745603961266  0.5383671982518  0.5950158398665 1.0
C      1  0.3546103946315  0.4492862509303  0.5742544870396 1.0
C      1  0.6864502332646  0.4596674699761  0.4020279559957 1.0
C      1  0.4458316857507  0.2469106090509  0.3256711858705 1.0
C      1  0.5647822745718  0.2260682703570  0.7117358751179 1.0
C      1  0.5495711985805  0.7902175111308  0.2758624828130 1.0
C      1  0.4484788312167  0.7437054952790  0.6883126815796 1.0
C      1  0.3006833420547  0.2359176626661  0.4444407230585 1.0
C      1  0.6977479090903  0.2469961393975  0.5536793354207 1.0
C      1  0.2996881893796  0.7521196941224  0.5515357659791 1.0
C      1  0.7260409646688  0.7989244643240  0.4417280645860 1.0
C      1  0.4908173655636  0.8624673418636  0.4170079225186 1.0
C      1  0.4972992269481  0.8466059833529  0.5591750252038 1.0
C      1  0.5014717250276  0.1286854965747  0.4338976712515 1.0
C      1  0.5035239515493  0.1409920758757  0.5707905312559 1.0
C      1  0.4256288998303  0.8566565876354  0.4905224283862 1.0
C      1  0.5626636907043  0.8298120542534  0.4827807072213 1.0
C      1  0.4303564276113  0.1344695217400  0.5060310236356 1.0
C      1  0.5730733659573  0.1346546154313  0.5029349109069 1.0
C      1  0.3640207464202  0.5453358199856  0.5773660325529 1.0
C      1  0.6622451951993  0.5545690437922  0.4310544155527 1.0
C      1  0.6350787171652  0.4548779238742  0.5490997432876 1.0
C      1  0.3615321739029  0.4499541492314  0.4190334587729 1.0
C      1  0.5778799839772  0.5460639935102  0.3864054360228 1.0
C      1  0.4342693965560  0.5407636746140  0.6427622067954 1.0
C      1  0.5810687266033  0.4392987308981  0.6281300683512 1.0
C      1  0.4375909745037  0.4514510896948  0.3561295099506 1.0
C      1  0.5151965856358  0.5869092217293  0.6561910279399 1.0
C      1  0.5038711235587  0.6034772598988  0.3669371699657 1.0
C      1  0.5036917754011  0.3908220712761  0.6266891975060 1.0
C      1  0.5153084944775  0.4034357742081  0.3583761684056 1.0
C      1  0.6436279243803  0.5960729207999  0.5184326272954 1.0
C      1  0.3553866167322  0.5975027924855  0.4995514581626 1.0
C      1  0.6705402948305  0.3998686160963  0.4800895271273 1.0
C      1  0.3488369264008  0.3980649873358  0.4948823147321 1.0
C      1  0.5323564720685  0.3143701140396  0.2024266657119 1.0
C      1  0.4622420495404  0.3234739646084  0.8032252686045 1.0
C      1  0.4576183868015  0.6748936508747  0.1933469695076 1.0
C      1  0.5329462719224  0.6902703795523  0.8192896158743 1.0
C      1  0.1845984806867  0.3156828396214  0.5358714801592 1.0
C      1  0.8245368006334  0.3108988881908  0.4649570959389 1.0
C      1  0.1780843309359  0.6812659603474  0.4627679564460 1.0
C      1  0.8078742010422  0.6827093638319  0.5353196039111 1.0
C      1  0.7984529213053  0.5726720976613  0.3435949907546 1.0
C      1  0.1918888026688  0.5651318356635  0.6548866681949 1.0
C      1  0.1900138996733  0.4298208956466  0.3454282601360 1.0
C      1  0.7958996276372  0.4342762981574  0.6537120787491 1.0
C      1  0.3403733181293  0.5669694820886  0.7993926289178 1.0
C      1  0.6470191213815  0.5696758689023  0.2134452716503 1.0
C      1  0.3379122832535  0.4289343643216  0.2016049016592 1.0
C      1  0.6562288895799  0.4384676638374  0.8026861188733 1.0
C      1  0.4163330550773  0.4677685678908  0.8542894735814 1.0
C      1  0.5734862951701  0.4627732626250  0.1663846038007 1.0
C      1  0.5779395658928  0.5396089006110  0.8559374835072 1.0
C      1  0.4133031663410  0.5303151878019  0.1461933061591 1.0
C      1  0.8498944547573  0.4643017650797  0.4193241622138 1.0
C      1  0.1358191263775  0.4627201952841  0.5812449298449 1.0
C      1  0.8430153296730  0.5359645617775  0.5769131670259 1.0
C      1  0.1345550215747  0.5324211903506  0.4188445776753 1.0
C      1  0.3613378185854  0.3010155769596  0.4945407534007 1.0
C      1  0.6635320391834  0.3108890767084  0.4855228819194 1.0
C      1  0.6113440851467  0.6862280892191  0.5213417423899 1.0
C      1  0.3436542823548  0.6872305829304  0.4926876955755 1.0
C      1  0.5057908711049  0.3102362337661  0.3913580535321 1.0
C      1  0.4866241103099  0.3047231993280  0.5856215232527 1.0
C      1  0.5168511524052  0.6792613857107  0.6535709989906 1.0
C      1  0.4916584868672  0.6894801358606  0.3977749102870 1.0
C      1  0.7498289879852  0.6968099800833  0.6117756638750 1.0
C      1  0.2378310702112  0.6876699308608  0.3870248915969 1.0
C      1  0.2454501932216  0.3090124829854  0.6081426254595 1.0
C      1  0.7678140942645  0.2931448196959  0.3853203421699 1.0
C      1  0.6099318723675  0.7002798327432  0.7606945729900 1.0
C      1  0.3869601203176  0.6804207077136  0.2564694449664 1.0
C      1  0.6083962290722  0.3004509146772  0.2587639476014 1.0
C      1  0.3920210265151  0.3189177662152  0.7384114913330 1.0
C      1  0.5714184823752  0.4445141930061  0.8522537759893 1.0
C      1  0.4219282809495  0.4342618873634  0.1514533765468 1.0
C      1  0.4229245401220  0.5631138707920  0.8547951740426 1.0
C      1  0.5693782798246  0.5556616114855  0.1579332872031 1.0
C      1  0.8511330524434  0.4425232819195  0.5740430261327 1.0
C      1  0.1373065792432  0.4367170902064  0.4274986364880 1.0
C      1  0.8512074749251  0.5587856408512  0.4231484555312 1.0
C      1  0.1376828474513  0.5584798427789  0.5727921172179 1.0
C      1  0.3429220516086  0.8162341440865  0.4848581871942 1.0
C      1  0.6613243779347  0.8221948671514  0.5034720940220 1.0
C      1  0.6546330226745  0.1768651534171  0.4930509040819 1.0
C      1  0.3436081152075  0.1703037105117  0.5128776171204 1.0
C      1  0.4790764247233  0.8193936025478  0.3357548378919 1.0
C      1  0.5079702185020  0.8122435611991  0.6423233761156 1.0
C      1  0.5017364987170  0.2147362242019  0.6359905113020 1.0
C      1  0.5101032337637  0.1760855677196  0.3570136891242 1.0
C      1  0.3730591177545  0.2811659238847  0.2609106489515 1.0
C      1  0.6251163117491  0.2863784902612  0.7564673761909 1.0
C      1  0.6171918604367  0.7251311628835  0.2438103317092 1.0
C      1  0.3741457732237  0.7157428541016  0.7508812087782 1.0
C      1  0.2346305367592  0.2746661356854  0.3760737959434 1.0
C      1  0.7602388097053  0.2811299057479  0.6253931129083 1.0
C      1  0.2357809506197  0.7185739704675  0.6228083160102 1.0
C      1  0.7637193654139  0.7307035705377  0.3754866186254 1.0
C      1  0.7936541801482  0.7381376218674  0.4615035685699 1.0
C      1  0.2031615874465  0.7306729341154  0.5395823378675 1.0
C      1  0.2078339724299  0.2635097564695  0.4611164578165 1.0
C      1  0.7960737096430  0.2654491631161  0.5441832186744 1.0
C      1  0.4543637837518  0.7330810670491  0.7868946434796 1.0
C      1  0.5314077714126  0.7300912271075  0.2091318277528 1.0
C      1  0.4570335926673  0.2710740217388  0.2327643365713 1.0
C      1  0.5376392671620  0.2718022109573  0.7860759579012 1.0
C      1  0.2539975929248  0.3876136372176  0.6700076888943 1.0
C      1  0.7552210909185  0.3616889466791  0.3172615966176 1.0
C      1  0.7432506637446  0.6303205763000  0.6825928802663 1.0
C      1  0.2465695088029  0.6109281436946  0.3252787366853 1.0
C      1  0.6809090683166  0.3647685128455  0.2584462761493 1.0
C      1  0.3226491076517  0.3886883203788  0.7402716442878 1.0
C      1  0.6778815824565  0.6281189170051  0.7537547965751 1.0
C      1  0.3178365072398  0.6094622157671  0.2572683039619 1.0
C      1  0.4845694189880  0.4045881274817  0.8511056594457 1.0
C      1  0.5093511438470  0.3962685035352  0.1556042112561 1.0
C      1  0.5098322753152  0.6042981733610  0.8581119851031 1.0
C      1  0.4799746642087  0.5936399387633  0.1477950893433 1.0
C      1  0.8584204906454  0.3991884140800  0.4860731391892 1.0
C      1  0.1373660241824  0.3977034827364  0.5141906349794 1.0
C      1  0.8504378302406  0.6000782648954  0.5115915712473 1.0
C      1  0.1348725209934  0.5978123979229  0.4859241789059 1.0
C      1  0.1913345001585  0.5331783234497  0.3419537350665 1.0
C      1  0.7688553033998  0.5384193671000  0.6437237986814 1.0
C      1  0.7781890674815  0.4563128887301  0.3513048356098 1.0
C      1  0.1936382910551  0.4626963145219  0.6576246734973 1.0
C      1  0.3337595100753  0.5320863377881  0.2005429912594 1.0
C      1  0.6568908924320  0.5432598886180  0.8000245853592 1.0
C      1  0.3381633641359  0.4649333397598  0.7979070546624 1.0
C      1  0.6403208569789  0.4606368413039  0.2400058651969 1.0
C      1  0.2386966453655  0.3529776205976  0.3176389764746 1.0
C      1  0.7529239068565  0.3579457778284  0.6854748296570 1.0
C      1  0.7500458355706  0.6526885034870  0.3191398134831 1.0
C      1  0.2423817667800  0.6407124996226  0.6821673832788 1.0
C      1  0.3093778122747  0.3537437082394  0.2540730145307 1.0
C      1  0.6850138780893  0.3607438729084  0.7533034885930 1.0
C      1  0.3107530918593  0.6413068484030  0.7493056597920 1.0
C      1  0.6777387519967  0.6512472991421  0.2548458809780 1.0
C      1  0.3336482116745  0.2522694089993  0.5837546558136 1.0
C      1  0.6712385137572  0.2431154718572  0.4117279796172 1.0
C      1  0.6617716468772  0.7483531620755  0.5856563373066 1.0
C      1  0.3296381629676  0.7421681837257  0.4087626616596 1.0
C      1  0.5885215835663  0.2486993268404  0.3498372616221 1.0
C      1  0.4099484999885  0.2644902912784  0.6506042824327 1.0
C      1  0.5907135715262  0.7491642297883  0.6635938322015 1.0
C      1  0.4103793889148  0.7375023536784  0.3430984461795 1.0
C      1  0.4607424393380  0.3016202343933  0.4875047779733 1.0
C      1  0.5500682898885  0.7270258264353  0.4642718198492 1.0
C      1  0.5791817671724  0.5249932944354  0.4891128180116 1.0
END
