TITL C-29123-7884-155 -1.415 3375.00 -224.95334697 0 0 28 (C3v) n - 1
REM
REM Run started: at 2020.12.21 01:00:53 in /gpfs/home/chem/mssmkc/CARBON/AIRSS/Generating-Clusters/Str-Search/Higher-Symm/C4-100
REM VASP from code version vasp.5.4.4.18Apr17-6-g9f103f2a35 (build Oct 11 2019 16:45:47) gamma-only
REM
REM
REM
REM
REM ./C.cell (6bd13a13d554368a30d355f37ece5b26)
REM AIRSS Version 0.9.1 bugfix July 2018 build 013d7b7c2542+ Fri, 06 Jul 2018 19:26:36 +0100
REM compiler GCC version 6.3.0
REM options -cpp -iprefix /gpfs/warwick/csc/orac/software/Core/GCCcore/6.3.0/bin/../lib/gcc/x86_64-pc-linux-gnu/6.3.0/ -mtune=generic -march=x86-64 -g -O0
REM seed -1159461 72925539 848863400 -2084993463 1165415863 -1078261714 318831913 -509060798 2048079336 87447151 -778923168 -1943085378
REM
REM C.POTCAR (d86ddea03c3ceb6dc662c8ad6801f873)
REM 
CELL 1.54180   15.00000   15.00000   15.00000   90.00000   90.00000   90.00000
LATT -1
SFAC C  
C      1  0.6349076869453  0.4312984544887  0.4552036643629 1.0
C      1  0.3900445158838  0.4317891396005  0.4002750888607 1.0
C      1  0.4642277469106  0.4316368922700  0.6398561567674 1.0
C      1  0.6037349390737  0.3555222116679  0.4080566882363 1.0
C      1  0.3645808164062  0.3559664389841  0.4506951069504 1.0
C      1  0.5202102974649  0.3555269876684  0.6365279667406 1.0
C      1  0.3606834291299  0.3560069222544  0.5349386247100 1.0
C      1  0.5947862254884  0.3554990713816  0.5970486643742 1.0
C      1  0.5324398680812  0.3555960549567  0.3628969489285 1.0
C      1  0.5296164773338  0.5131673692161  0.3544049293579 1.0
C      1  0.3550672897863  0.5135082902338  0.5420246213342 1.0
C      1  0.6047477964623  0.5128937518000  0.5989876174748 1.0
C      1  0.5170348427021  0.5130530618312  0.6449360397373 1.0
C      1  0.6132809350096  0.5129955482475  0.4071308804263 1.0
C      1  0.3592478834280  0.5134181660479  0.4431545365854 1.0
C      1  0.3911302053385  0.5905853765773  0.3985007969002 1.0
C      1  0.4626239117163  0.5903315324408  0.6401048443553 1.0
C      1  0.6363185912299  0.5901318402021  0.4569706058150 1.0
C      1  0.4748899965301  0.5904146438846  0.3549106160356 1.0
C      1  0.3829187384484  0.5906435007640  0.5893970343372 1.0
C      1  0.6319827807519  0.5899686338125  0.5512455266856 1.0
C      1  0.5881952707822  0.6589244283882  0.5022141049808 1.0
C      1  0.4546112708940  0.6588654190224  0.4180700259611 1.0
C      1  0.4480726205606  0.6588641252320  0.5755838381925 1.0
C      1  0.3817382267841  0.4318428707786  0.5873896542334 1.0
C      1  0.6300715030437  0.4312433439600  0.5527931334064 1.0
C      1  0.4767480566074  0.4316474805032  0.3551882485923 1.0
C      1  0.4969926772067  0.6846720437855  0.4987046356576 1.0
END
