TITL C-29086-3345-107 -0.336 3375.00 -42.73423528 0 0 6 (D6h) n - 1
REM
REM Run started: at 2020.12.20 12:11:13 in /gpfs/home/chem/mssmkc/CARBON/AIRSS/Generating-Clusters/Str-Search/Higher-Symm/C4-100
REM VASP from code version vasp.5.4.4.18Apr17-6-g9f103f2a35 (build Oct 11 2019 16:45:47) gamma-only
REM
REM
REM
REM
REM ./C.cell (6bd13a13d554368a30d355f37ece5b26)
REM AIRSS Version 0.9.1 bugfix July 2018 build 013d7b7c2542+ Fri, 06 Jul 2018 19:26:36 +0100
REM compiler GCC version 6.3.0
REM options -cpp -iprefix /gpfs/warwick/csc/orac/software/Core/GCCcore/6.3.0/bin/../lib/gcc/x86_64-pc-linux-gnu/6.3.0/ -mtune=generic -march=x86-64 -g -O0
REM seed 1413920300 959653484 1236742448 -105815289 -1821240337 1741562633 383657019 -1507264012 -1810582550 -1560293424 1628840405 -1079479183
REM
REM C.POTCAR (d86ddea03c3ceb6dc662c8ad6801f873)
REM 
CELL 1.54180   15.00000   15.00000   15.00000   90.00000   90.00000   90.00000
LATT -1
SFAC C  
C      1  0.4846574769179  0.4137649844120  0.5000000006824 1.0
C      1  0.4176192396459  0.4701989297098  0.4999999941774 1.0
C      1  0.4329746847894  0.5564382206305  0.4999999914526 1.0
C      1  0.5153425248361  0.5862350144644  0.4999999994780 1.0
C      1  0.5823807585608  0.5298010756168  0.5000000069431 1.0
C      1  0.5670253152499  0.4435617751666  0.5000000072665 1.0
END
