TITL C-29086-3345-230 -4.187 3375.00 -682.15179840 0 0 84 (C1) n - 1
REM
REM Run started: at 2020.12.21 11:20:09 in /gpfs/home/chem/mssmkc/CARBON/AIRSS/Generating-Clusters/Str-Search/Higher-Symm/C4-100
REM VASP from code version vasp.5.4.4.18Apr17-6-g9f103f2a35 (build Oct 11 2019 16:45:47) gamma-only
REM
REM
REM
REM
REM ./C.cell (6bd13a13d554368a30d355f37ece5b26)
REM AIRSS Version 0.9.1 bugfix July 2018 build 013d7b7c2542+ Fri, 06 Jul 2018 19:26:36 +0100
REM compiler GCC version 6.3.0
REM options -cpp -iprefix /gpfs/warwick/csc/orac/software/Core/GCCcore/6.3.0/bin/../lib/gcc/x86_64-pc-linux-gnu/6.3.0/ -mtune=generic -march=x86-64 -g -O0
REM seed 561502597 -1782000412 108014286 -268891384 -741434573 -137180955 -153969200 -1122840966 -118688505 1016418331 -1773824619 439982914
REM
REM C.POTCAR (d86ddea03c3ceb6dc662c8ad6801f873)
REM 
CELL 1.54180   15.00000   15.00000   15.00000   90.00000   90.00000   90.00000
LATT -1
SFAC C  
C      1  0.7625529048246  0.4064550267219  0.4045298730330 1.0
C      1  0.5034960174416  0.4086920793856  0.2254102129854 1.0
C      1  0.2368616594235  0.3828469816586  0.4146666233442 1.0
C      1  0.3536154023104  0.3952861909768  0.7096578076836 1.0
C      1  0.6810102366294  0.3899086222239  0.7166948532241 1.0
C      1  0.7171143155310  0.7224427312382  0.4996048941930 1.0
C      1  0.5664074637070  0.7298478585445  0.2799892237607 1.0
C      1  0.3091935161483  0.7113889302903  0.3609189751008 1.0
C      1  0.2937283650806  0.7139124291621  0.6243112696202 1.0
C      1  0.5689186207101  0.7117366483318  0.7142372001355 1.0
C      1  0.6518386198070  0.2856057580828  0.4230705470747 1.0
C      1  0.4876259551977  0.2845871217315  0.3408102660087 1.0
C      1  0.3598185158047  0.2844230239424  0.4619187058389 1.0
C      1  0.4495982004759  0.3065309471554  0.6086864602649 1.0
C      1  0.6278237576295  0.2815072436181  0.6056580552998 1.0
C      1  0.3678833349625  0.2566586025941  0.5666086905562 1.0
C      1  0.5441016285884  0.2847570060432  0.6440395821140 1.0
C      1  0.6690761864685  0.2865119595215  0.5146301597575 1.0
C      1  0.5806996895184  0.2819407564448  0.3517914801876 1.0
C      1  0.3915314566869  0.2659849779273  0.3687024517091 1.0
C      1  0.5249748694860  0.3405735541915  0.7228086853070 1.0
C      1  0.7383506737576  0.3461180031813  0.5540435368850 1.0
C      1  0.6357240522434  0.3464598148303  0.2986622784834 1.0
C      1  0.3558750831842  0.3307033151672  0.3059054001501 1.0
C      1  0.2858254574952  0.3251562633626  0.5753523993394 1.0
C      1  0.7041219816026  0.3475885227964  0.3653707174215 1.0
C      1  0.4485787822498  0.3680703239389  0.2947743414837 1.0
C      1  0.2695769772813  0.3276622305035  0.4828089748049 1.0
C      1  0.4348284547805  0.3516272659082  0.6992290958261 1.0
C      1  0.6995996541475  0.3380987489388  0.6419640959914 1.0
C      1  0.4681001777495  0.3768568408523  0.5398624416619 1.0
C      1  0.5225973299945  0.4519454444723  0.5252605733391 1.0
C      1  0.5207699845978  0.4743576961300  0.4283642386553 1.0
C      1  0.4579124156212  0.4173501589263  0.3871084384183 1.0
C      1  0.4260833563795  0.3616768440600  0.4601121701072 1.0
C      1  0.6450790240916  0.4715649479902  0.7504254481746 1.0
C      1  0.7848618676224  0.4869356629646  0.4478629156791 1.0
C      1  0.5513322367801  0.4869242312316  0.2153869141113 1.0
C      1  0.2446147846617  0.4648655703745  0.3655450013933 1.0
C      1  0.3033459854934  0.4711490000250  0.6853914658934 1.0
C      1  0.4679958057110  0.6285275213707  0.4512086104579 1.0
C      1  0.4056328322625  0.6089979883589  0.5162567343665 1.0
C      1  0.4617542064229  0.5894540386500  0.5972448436456 1.0
C      1  0.5778833510379  0.5978489585859  0.5149279342691 1.0
C      1  0.5389137626640  0.5688094393031  0.4311088525134 1.0
C      1  0.5494114533171  0.7660656177523  0.6558733089443 1.0
C      1  0.6570592071607  0.7777756858280  0.4853764608408 1.0
C      1  0.5359501117418  0.7877533654242  0.3300134421513 1.0
C      1  0.3488829463740  0.7762294317235  0.3938011654078 1.0
C      1  0.3467876975059  0.7686263019545  0.5908156742947 1.0
C      1  0.7334632944716  0.6064105759341  0.3567029544752 1.0
C      1  0.4396976417383  0.5962705416766  0.2348314741153 1.0
C      1  0.2166928120409  0.5828081462682  0.4680911462833 1.0
C      1  0.4165809743777  0.5864935535222  0.6893136826681 1.0
C      1  0.7136312352655  0.5937887419337  0.6762468682214 1.0
C      1  0.2671291751901  0.6245800418638  0.6254744746937 1.0
C      1  0.5671258872500  0.6221681467910  0.7478311736797 1.0
C      1  0.7578883769949  0.6395255431172  0.5154873905806 1.0
C      1  0.5964144553769  0.6442268442981  0.2564684409118 1.0
C      1  0.2964519353510  0.6235397988794  0.3297699194494 1.0
C      1  0.5963810945009  0.3910554957099  0.7585557439381 1.0
C      1  0.7787620530473  0.4080182693456  0.4989193619480 1.0
C      1  0.5964980771334  0.4046468249698  0.2381468868040 1.0
C      1  0.2835802797452  0.3854073238328  0.3332305444325 1.0
C      1  0.2832534706588  0.3846484794146  0.6470207258260 1.0
C      1  0.2164900605630  0.5984326637542  0.5489879957174 1.0
C      1  0.4795256981818  0.5952154872373  0.7519259430789 1.0
C      1  0.7530783785816  0.6124512509822  0.6059470577776 1.0
C      1  0.6792150329599  0.6215702680608  0.2963359403416 1.0
C      1  0.3634540311542  0.6020604080303  0.2660115527016 1.0
C      1  0.5126963210558  0.7706638947937  0.5648740140929 1.0
C      1  0.5691392872383  0.8052986061196  0.4873967268222 1.0
C      1  0.5087343110638  0.8167641881420  0.4146195206198 1.0
C      1  0.4169726232774  0.8121902652037  0.4469994904471 1.0
C      1  0.4174257253442  0.8004622267247  0.5424264209396 1.0
C      1  0.7711492776206  0.5800218506576  0.4393975227568 1.0
C      1  0.5325520787283  0.5788121476882  0.2245149377156 1.0
C      1  0.2451854044956  0.5583833982636  0.3806980536707 1.0
C      1  0.3192701455507  0.5626121806455  0.6785125784634 1.0
C      1  0.6466914112626  0.5639283469926  0.7360233844649 1.0
C      1  0.3587328668839  0.0811472732062  0.5984330314388 1.0
C      1  0.5089442426406  0.6681658859471  0.5401260347009 1.0
C      1  0.3555947734999  0.1643827717283  0.5881929628985 1.0
C      1  0.5429850963912  0.5302678738741  0.5759627514150 1.0
END
