TITL C-29736-5025-6 -7.681 3375.00 -1355.38497507 0 0 167 (C1) n - 1
REM
REM Run started: at 2020.12.27 18:56:59 in /rds/project/t2_vol4/rds-t2-cs072/BORA/CARBON/AIRSS/Generating-Clusters/Str-Search/Higher-Symm/C100-200
REM VASP from code version vasp.5.4.4.18Apr17-6-g9f103f2a35 (build Oct 11 2019 16:45:47) gamma-only
REM
REM
REM
REM
REM ./C.cell (533062f00bc710175b3da973d35f2034)
REM AIRSS Version 0.9.1 bugfix July 2018 build 013d7b7c2542+ Fri, 06 Jul 2018 19:26:36 +0100
REM compiler GCC version 4.8.5 20150623 (Red Hat 4.8.5-39)
REM options -cpp -mtune=generic -march=x86-64 -g -O0
REM seed -1205211462 -613294381 -1987474719 -801735417 202809389 566565114 -1396704540 1286841531 119542198 -1835194480 -223197632 -799219555
REM
REM C.POTCAR (d86ddea03c3ceb6dc662c8ad6801f873)
REM 
CELL 1.54180   15.00000   15.00000   15.00000   90.00000   90.00000   90.00000
LATT -1
SFAC C  
C      1  0.7246156348525  0.7311654563026  0.6790127211378 1.0
C      1  0.4737986810536  0.7922510891561  0.6667316066148 1.0
C      1  0.2287472324589  0.6495314057602  0.6879732772798 1.0
C      1  0.2088539516413  0.3933418384779  0.6618787741366 1.0
C      1  0.4052973505489  0.2270351531575  0.6742778952999 1.0
C      1  0.6580928904799  0.2627438119820  0.6767536593294 1.0
C      1  0.8092598657480  0.4835438963966  0.6774350120768 1.0
C      1  0.7881339661553  0.4637769801288  0.4554555095056 1.0
C      1  0.7077110178556  0.7096372535373  0.4592599738633 1.0
C      1  0.4700538161996  0.7868047194585  0.4631631821258 1.0
C      1  0.2625977169002  0.6532474627452  0.4624226029345 1.0
C      1  0.2333460380950  0.4033985594686  0.4553611488299 1.0
C      1  0.4148732321842  0.2252977881048  0.4665323639297 1.0
C      1  0.6606864843006  0.2576168965651  0.4630207613112 1.0
C      1  0.4514155431028  0.7904797767693  0.2931028060485 1.0
C      1  0.2513377404395  0.6552945104668  0.2897715500539 1.0
C      1  0.2267614854922  0.4009198798195  0.2806058727711 1.0
C      1  0.4185507842750  0.2074084742763  0.2953286298264 1.0
C      1  0.6810394695227  0.2641639029610  0.2974852263473 1.0
C      1  0.7780453580876  0.4743154697370  0.2840440891533 1.0
C      1  0.6897402172140  0.7033911673669  0.2902693940390 1.0
C      1  0.5615543057022  0.2376797775315  0.6598814115969 1.0
C      1  0.7496779903494  0.3962139257143  0.6581063518186 1.0
C      1  0.7666225100881  0.6364415673877  0.6609199045587 1.0
C      1  0.5784423465883  0.7908522924640  0.6650431743660 1.0
C      1  0.3277037523840  0.7205690377694  0.6648039848457 1.0
C      1  0.1975241664093  0.4951481542371  0.6619806058497 1.0
C      1  0.3124609568604  0.2750449650929  0.6610900826778 1.0
C      1  0.3382867921269  0.6231194277626  0.5071006966577 1.0
C      1  0.3010006981137  0.4409621029322  0.5098409260402 1.0
C      1  0.4204922398725  0.3083165721115  0.5114943130234 1.0
C      1  0.5956535159501  0.3162726870529  0.4959916421059 1.0
C      1  0.7033595798997  0.4596536124352  0.4995834357788 1.0
C      1  0.6658940253444  0.6384495912072  0.5068398193218 1.0
C      1  0.5027250434091  0.7125521300555  0.5078332761573 1.0
C      1  0.2436947546670  0.2566998689714  0.5899916453293 1.0
C      1  0.5308354025535  0.1598312328593  0.6044712280399 1.0
C      1  0.7875433607120  0.3182564693948  0.6065968146492 1.0
C      1  0.8382573380244  0.6143450089261  0.5920200490610 1.0
C      1  0.6340182297609  0.8331234179496  0.5947557516528 1.0
C      1  0.3288432336670  0.7996935054783  0.6000754423113 1.0
C      1  0.1521144340720  0.5459094780435  0.5918854030188 1.0
C      1  0.5045051177168  0.1151389549378  0.4026620596468 1.0
C      1  0.8075755665204  0.2532865756986  0.4045924725804 1.0
C      1  0.8549061589211  0.5807937934553  0.3855333523506 1.0
C      1  0.6649530603895  0.8380242678393  0.3862764915023 1.0
C      1  0.3407891625457  0.8484858344738  0.3998005032487 1.0
C      1  0.1398515105625  0.5935257320252  0.3905528199531 1.0
C      1  0.2218851136422  0.2694923790280  0.3822703966040 1.0
C      1  0.4806176922038  0.8627093370050  0.5265028026113 1.0
C      1  0.2110173296771  0.7028209288620  0.5332334344184 1.0
C      1  0.1536162527787  0.3925116337746  0.5154298792212 1.0
C      1  0.3714095376845  0.1631554602419  0.5305598506237 1.0
C      1  0.6815425602889  0.1944138697094  0.5370986165245 1.0
C      1  0.8556146223780  0.4492462573577  0.5276186622493 1.0
C      1  0.7712953831199  0.7493138201356  0.5247412884452 1.0
C      1  0.4306702834229  0.2833634589803  0.8791930581413 1.0
C      1  0.7158661191164  0.3775640998334  0.8126378855124 1.0
C      1  0.7197997500992  0.5450042144508  0.8017208371412 1.0
C      1  0.6096970349313  0.7043472410936  0.8039931171353 1.0
C      1  0.4209360854582  0.7231081246244  0.8109985176892 1.0
C      1  0.2948746498857  0.6030298298912  0.8701569749591 1.0
C      1  0.2853863657847  0.3428731390811  0.8098921413441 1.0
C      1  0.5983130101659  0.1382377738869  0.5416600995864 1.0
C      1  0.8471078766173  0.3500792936371  0.5397755346867 1.0
C      1  0.8422216985095  0.6787003835501  0.5233359677928 1.0
C      1  0.5816882658088  0.8752155466593  0.5280188494904 1.0
C      1  0.2605183085811  0.7895286207148  0.5353600638732 1.0
C      1  0.1222543864521  0.4893368905454  0.5216270751806 1.0
C      1  0.2769184082227  0.1962883415857  0.5249922950210 1.0
C      1  0.5505125095328  0.3762868817381  0.0955991063621 1.0
C      1  0.5915220730254  0.4744390535799  0.0993213968725 1.0
C      1  0.5753751069441  0.5761718385949  0.0918879826569 1.0
C      1  0.4917486607415  0.6203088944753  0.0987797169086 1.0
C      1  0.4100555682767  0.5721977291551  0.0969127116412 1.0
C      1  0.4085468536779  0.4721044437281  0.1100128081161 1.0
C      1  0.4468242678355  0.3767805019340  0.1009211933109 1.0
C      1  0.3637097197203  0.4862807130933  0.7663258128929 1.0
C      1  0.4256895274654  0.4042873926873  0.7695126140802 1.0
C      1  0.5262555817634  0.3938335650122  0.7964301981087 1.0
C      1  0.5893007251422  0.4026678434179  0.7165164019848 1.0
C      1  0.6373940104569  0.5526182046707  0.7474858362100 1.0
C      1  0.5005320908471  0.6055156219191  0.7611859682735 1.0
C      1  0.4063689975087  0.5791001687350  0.7571777199814 1.0
C      1  0.5316292544745  0.3959106216372  0.6333600730576 1.0
C      1  0.6024664050196  0.4671445747489  0.6346027720597 1.0
C      1  0.6119751817039  0.5675489216300  0.6511702005813 1.0
C      1  0.5267641021934  0.6229975533193  0.6528059626347 1.0
C      1  0.3812296608599  0.5651766302765  0.6594186707866 1.0
C      1  0.3580652304737  0.4713353085811  0.6635408139831 1.0
C      1  0.4309081474722  0.3963901101547  0.6620815448954 1.0
C      1  0.1841532416171  0.6416985907059  0.6028082615711 1.0
C      1  0.1808614350096  0.3347317893977  0.5864650006835 1.0
C      1  0.4316614634560  0.1601926796351  0.6054544190534 1.0
C      1  0.7234844715963  0.2430848149847  0.6094959576000 1.0
C      1  0.8515641108378  0.5156461844872  0.5959541623787 1.0
C      1  0.7219341997610  0.7854164305969  0.5986557047180 1.0
C      1  0.4204649693914  0.8405772663737  0.5982788693421 1.0
C      1  0.6884430515525  0.4399295040442  0.5905682648593 1.0
C      1  0.6840574600596  0.6125746950063  0.5975968761771 1.0
C      1  0.5267231417004  0.7164662703473  0.6112942576313 1.0
C      1  0.3593089837687  0.6442093416917  0.6026306307298 1.0
C      1  0.2804916692866  0.4508982730251  0.6094365588379 1.0
C      1  0.3951699188278  0.3156995158405  0.6125792941639 1.0
C      1  0.5645091032463  0.3141746054502  0.5885733217971 1.0
C      1  0.4706600493193  0.7562150309089  0.2180182335810 1.0
C      1  0.2867825493332  0.6498394812747  0.2148273120800 1.0
C      1  0.2473776478168  0.4366870668658  0.2077489147320 1.0
C      1  0.4070735870386  0.2453380117239  0.2202636445825 1.0
C      1  0.6412524742114  0.2848118690180  0.2260828012978 1.0
C      1  0.7359846288924  0.4582760854725  0.2128725688284 1.0
C      1  0.6844351296462  0.6567511304548  0.2218585587518 1.0
C      1  0.5786876643589  0.5599731754291  0.2538053068870 1.0
C      1  0.5003232117155  0.6069825884070  0.2500222439006 1.0
C      1  0.4168105271712  0.5640551905523  0.2561415009350 1.0
C      1  0.3893595045305  0.4740997233171  0.2634258823315 1.0
C      1  0.4324693428487  0.3920890241082  0.2599079223486 1.0
C      1  0.5284808878443  0.4055164445739  0.2402468207740 1.0
C      1  0.5749043219679  0.4710854314768  0.2958257578476 1.0
C      1  0.6916768105087  0.7488455084392  0.3708994547763 1.0
C      1  0.4239294363679  0.8099441642917  0.3760310102965 1.0
C      1  0.2185307503540  0.6411970592900  0.3738226758310 1.0
C      1  0.2255297059628  0.3613464621717  0.3635057821859 1.0
C      1  0.4434316176271  0.1838005179098  0.3782284284285 1.0
C      1  0.7157255853321  0.2544188282396  0.3800478879506 1.0
C      1  0.8094699934495  0.4997331265382  0.3665826295243 1.0
C      1  0.5010658259408  0.2916206548149  0.8107127024397 1.0
C      1  0.7245560009765  0.4547561370946  0.8409475787960 1.0
C      1  0.6456555130569  0.6126639201781  0.8271224924188 1.0
C      1  0.5137688916871  0.6928892031381  0.8082016168561 1.0
C      1  0.3655663348577  0.6395283194252  0.8271680154705 1.0
C      1  0.2800521768067  0.5339464080770  0.8057910331226 1.0
C      1  0.3751902141674  0.3411134271269  0.8342220092405 1.0
C      1  0.8680679000584  0.6422385447615  0.4395405356950 1.0
C      1  0.6253673726793  0.8811377175924  0.4452593245057 1.0
C      1  0.2812380305143  0.8347135324275  0.4553997476680 1.0
C      1  0.1091599905021  0.5363123738526  0.4420352444367 1.0
C      1  0.2396285180018  0.2127797758539  0.4400768320721 1.0
C      1  0.5621206924050  0.1057313994414  0.4612045721453 1.0
C      1  0.8480983600712  0.2951916549249  0.4634532088820 1.0
C      1  0.5517070600597  0.3950290195948  0.4518853131511 1.0
C      1  0.6173425904664  0.4879169991651  0.4585246272133 1.0
C      1  0.5915451936166  0.5825514915387  0.4712595144911 1.0
C      1  0.5083283459735  0.6187785685537  0.4711856968127 1.0
C      1  0.4238999702603  0.5656282145335  0.4976644783901 1.0
C      1  0.3971003042873  0.4670188323281  0.4841771148337 1.0
C      1  0.4534653983276  0.3954723954466  0.4738364165229 1.0
C      1  0.2263226697521  0.5621144955108  0.7309221604296 1.0
C      1  0.2628634350100  0.3374363309866  0.7246991813895 1.0
C      1  0.4902954502664  0.2477732806812  0.7294315360405 1.0
C      1  0.6781404932864  0.3516806939898  0.7231848546504 1.0
C      1  0.7801664025353  0.5593133838814  0.7258642407778 1.0
C      1  0.6438718626305  0.7498330949693  0.7303281102400 1.0
C      1  0.4043468580185  0.7525930934942  0.7268744711442 1.0
C      1  0.4935647746806  0.6788079414503  0.1797109043604 1.0
C      1  0.3495044608513  0.5854299473104  0.1795926529244 1.0
C      1  0.3300833164131  0.4817990370942  0.1829966581827 1.0
C      1  0.4103077821140  0.3277909986049  0.1847457491115 1.0
C      1  0.5804286484580  0.3360843852844  0.1858488961492 1.0
C      1  0.6751643773566  0.4915386611861  0.1538338622705 1.0
C      1  0.6412875993684  0.5844951021489  0.1734556160516 1.0
C      1  0.5912510559926  0.4453825443062  0.3784304106864 1.0
C      1  0.5045539983401  0.4498902653374  0.1531837333548 1.0
C      1  0.5048872764805  0.4781414572250  0.9425380251314 1.0
C      1  0.5406543430128  0.4673887992515  0.8636350488133 1.0
C      1  0.4485815127315  0.5908984267559  0.5997314947495 1.0
C      1  0.5668480117949  0.5496336944303  0.8127541325581 1.0
END
