TITL C-29086-3345-111 -4.107 3375.00 -697.35940845 0 0 85 (C1) n - 1
REM
REM Run started: at 2020.12.20 12:49:38 in /gpfs/home/chem/mssmkc/CARBON/AIRSS/Generating-Clusters/Str-Search/Higher-Symm/C4-100
REM VASP from code version vasp.5.4.4.18Apr17-6-g9f103f2a35 (build Oct 11 2019 16:45:47) gamma-only
REM
REM
REM
REM
REM ./C.cell (6bd13a13d554368a30d355f37ece5b26)
REM AIRSS Version 0.9.1 bugfix July 2018 build 013d7b7c2542+ Fri, 06 Jul 2018 19:26:36 +0100
REM compiler GCC version 6.3.0
REM options -cpp -iprefix /gpfs/warwick/csc/orac/software/Core/GCCcore/6.3.0/bin/../lib/gcc/x86_64-pc-linux-gnu/6.3.0/ -mtune=generic -march=x86-64 -g -O0
REM seed 1077722289 10188762 -1138679975 873164257 1549891514 364695914 -356899942 -1841216933 1629571747 -995169946 -1210698 1521072351
REM
REM C.POTCAR (d86ddea03c3ceb6dc662c8ad6801f873)
REM 
CELL 1.54180   15.00000   15.00000   15.00000   90.00000   90.00000   90.00000
LATT -1
SFAC C  
C      1  0.7898388167441  0.6040043656460  0.4575493528386 1.0
C      1  0.7088386266784  0.7559095486103  0.5676739445013 1.0
C      1  0.3411544759261  0.7086669365902  0.4986924137756 1.0
C      1  0.7250084299682  0.4542073990290  0.6449626514205 1.0
C      1  0.6555157355812  0.3014725593489  0.6212878933855 1.0
C      1  0.7959913828193  0.5335761566088  0.5205287649272 1.0
C      1  0.6300071051643  0.6617525577973  0.2567176794791 1.0
C      1  0.5107116270276  0.4280186457446  0.6193237366216 1.0
C      1  0.3259985069573  0.4886711954727  0.5010983240367 1.0
C      1  0.6147241853183  0.5796508039018  0.2015175289762 1.0
C      1  0.3006119679052  0.2854149755667  0.4427677769084 1.0
C      1  0.2887969449076  0.2783097522611  0.5385787865100 1.0
C      1  0.2771417357225  0.3505574334977  0.3742537900573 1.0
C      1  0.7104444718807  0.6252899827613  0.4038765745383 1.0
C      1  0.4302094326277  0.4225423662482  0.7431496422822 1.0
C      1  0.4584133149921  0.6653110322801  0.7124271370308 1.0
C      1  0.4722795355779  0.4633467625677  0.4891096260715 1.0
C      1  0.4397654064968  0.2406309792187  0.5083058410254 1.0
C      1  0.8059094908473  0.6265541747794  0.5463058695477 1.0
C      1  0.5669408497427  0.2656721116380  0.6094824633937 1.0
C      1  0.5618141014890  0.7279864884297  0.2634706066064 1.0
C      1  0.3637505955100  0.3623137370364  0.7109041953006 1.0
C      1  0.7029749854755  0.6393424090579  0.6712346469227 1.0
C      1  0.5574512193716  0.7370714240518  0.6211577462482 1.0
C      1  0.3765320053602  0.2514570708193  0.5796869463201 1.0
C      1  0.3933037568606  0.7430363127037  0.4323520936596 1.0
C      1  0.3726416695696  0.4496304115263  0.2884444757001 1.0
C      1  0.2024103778611  0.5806455962252  0.4465518650796 1.0
C      1  0.5162846964059  0.5327677888375  0.3235614854463 1.0
C      1  0.6317911722328  0.5891535512222  0.6230716519929 1.0
C      1  0.5945947423312  0.5288866604446  0.3728503206212 1.0
C      1  0.3911242354639  0.5971124989410  0.7132859935281 1.0
C      1  0.1906256962740  0.5183546574474  0.3786784510884 1.0
C      1  0.4354582472086  0.4178018637314  0.5671274478560 1.0
C      1  0.6276526114027  0.7775470407249  0.5763172492057 1.0
C      1  0.5852149408142  0.3625608880814  0.2960485942197 1.0
C      1  0.6057200388100  0.6683894215203  0.6820856041992 1.0
C      1  0.3460225152246  0.4378432974291  0.5771519770725 1.0
C      1  0.7612591651445  0.6869067426150  0.6027367158559 1.0
C      1  0.4914137024779  0.7561370655724  0.2957459937943 1.0
C      1  0.5011640173398  0.2897149325999  0.6756529767961 1.0
C      1  0.6506142305094  0.4957110085742  0.2309624902969 1.0
C      1  0.5791816123779  0.4269923746401  0.2208869160461 1.0
C      1  0.4634012403656  0.7203587487367  0.6330293361308 1.0
C      1  0.6306364863847  0.5771379688702  0.4475491201946 1.0
C      1  0.5350043077178  0.2542431125407  0.5169636920460 1.0
C      1  0.3327437162266  0.6298589833850  0.6400932107761 1.0
C      1  0.2553724413912  0.6086403168519  0.5886840089442 1.0
C      1  0.5329098019205  0.5494615112562  0.7722524181428 1.0
C      1  0.5398310626019  0.6401095272778  0.7489656737942 1.0
C      1  0.2495505923669  0.5434192438371  0.5197216719834 1.0
C      1  0.2122654893124  0.4214181578129  0.3616536834371 1.0
C      1  0.5789303565062  0.2945907409756  0.4402417221709 1.0
C      1  0.3788594277512  0.6996572974467  0.5888646346695 1.0
C      1  0.2490854973942  0.3410488645302  0.5927400548044 1.0
C      1  0.3610109417716  0.3612948886789  0.3194425556629 1.0
C      1  0.4073166545609  0.2841173036297  0.6639856859984 1.0
C      1  0.4381717050925  0.5187600778583  0.7524625963205 1.0
C      1  0.6138319075842  0.5009269467609  0.7578262818167 1.0
C      1  0.3923292675251  0.2599556186326  0.4279201117338 1.0
C      1  0.2527172544422  0.6536251327305  0.4984049844605 1.0
C      1  0.4315705945568  0.3063186317276  0.3558190596685 1.0
C      1  0.2953214527491  0.3941219170954  0.6494064401535 1.0
C      1  0.7243791990440  0.3711614678286  0.5073361589975 1.0
C      1  0.6727604802882  0.3811745919605  0.6758271462032 1.0
C      1  0.6080324743938  0.4102546855665  0.7391296555148 1.0
C      1  0.4026305769566  0.5029816120007  0.4410328628653 1.0
C      1  0.3570337580036  0.6766036647781  0.2974696767099 1.0
C      1  0.6594284473068  0.3535875614872  0.4372440862138 1.0
C      1  0.2197001063696  0.4881016725682  0.2946647014973 1.0
C      1  0.3059544713720  0.5110782480963  0.2632084382386 1.0
C      1  0.3536032737337  0.5893804975938  0.2950948227425 1.0
C      1  0.5178911509037  0.3812256909195  0.7136686826328 1.0
C      1  0.5464726390775  0.4848648906988  0.5449398591446 1.0
C      1  0.5283527487106  0.3137313521407  0.3550450896117 1.0
C      1  0.7601221385244  0.4530814793171  0.5540858949650 1.0
C      1  0.6917160394601  0.6604579080096  0.3238074032982 1.0
C      1  0.4205764013548  0.5259117883314  0.3446710114919 1.0
C      1  0.6849644769266  0.5372516365809  0.6910070126633 1.0
C      1  0.6057931937565  0.5581746895474  0.5352879308853 1.0
C      1  0.6728724008948  0.4835693706827  0.3265481344735 1.0
C      1  0.7210650818769  0.2901697819068  0.5551082423519 1.0
C      1  0.6575476554605  0.3931980147605  0.3517036358255 1.0
C      1  0.4080912091247  0.7407053194485  0.3403825106651 1.0
C      1  0.5428496998391  0.5173459033412  0.2291339589146 1.0
END
