TITL C-29416-108-11 -8.906 3375.00 -1438.27342785 0 0 180 (C2v) n - 1
REM
REM Run started: at 2020.12.25 22:43:00 in /gpfs/home/chem/mssmkc/CARBON/AIRSS/Generating-Clusters/Str-Search/Higher-Symm/Only-C180
REM VASP from code version vasp.5.4.4.18Apr17-6-g9f103f2a35 (build Oct 11 2019 16:45:47) gamma-only
REM
REM
REM
REM
REM ./C.cell (73b75853f6e4503fb4b57bac71549d7d)
REM AIRSS Version 0.9.1 bugfix July 2018 build 013d7b7c2542+ Fri, 06 Jul 2018 19:26:36 +0100
REM compiler GCC version 6.3.0
REM options -cpp -iprefix /gpfs/warwick/csc/orac/software/Core/GCCcore/6.3.0/bin/../lib/gcc/x86_64-pc-linux-gnu/6.3.0/ -mtune=generic -march=x86-64 -g -O0
REM seed -1959237299 -2073441017 -729570164 1384466545 -1375076349 1139069494 809285831 1546739985 -80930883 -491927123 647658219 -843651667
REM
REM C.POTCAR (d86ddea03c3ceb6dc662c8ad6801f873)
REM 
CELL 1.54180   15.00000   15.00000   15.00000   90.00000   90.00000   90.00000
LATT -1
SFAC C  
C      1  0.6640248040897  0.5224327854082  0.4568712653802 1.0
C      1  0.6192304363894  0.5219989852728  0.6173186899363 1.0
C      1  0.4566144159338  0.5212729705665  0.6583422664574 1.0
C      1  0.3359790157863  0.5224334789377  0.5431322313697 1.0
C      1  0.3807745653627  0.5220012416099  0.3826755017702 1.0
C      1  0.5433832878121  0.5212742277165  0.3416578904011 1.0
C      1  0.6640194602337  0.5224323261967  0.5431329923896 1.0
C      1  0.6192254019208  0.5220019096488  0.3826738563971 1.0
C      1  0.4566172796695  0.5212732965012  0.3416601663197 1.0
C      1  0.3359759745039  0.5224335561732  0.4568723578729 1.0
C      1  0.3807680174300  0.5219994757825  0.6173196760145 1.0
C      1  0.5433858331409  0.5212732180907  0.6583384727878 1.0
C      1  0.4528077042494  0.1890504905492  0.3154452891534 1.0
C      1  0.6361762144667  0.1888986950873  0.3669021262224 1.0
C      1  0.6833692713637  0.1886333127691  0.5514155160497 1.0
C      1  0.5471923774537  0.1890505750605  0.6845543361187 1.0
C      1  0.3638239762272  0.1888984807478  0.6330976945280 1.0
C      1  0.3166306389651  0.1886338545111  0.4485844957972 1.0
C      1  0.4528088640021  0.1890501391716  0.6845538579850 1.0
C      1  0.6361770141613  0.1888981735268  0.6330981601433 1.0
C      1  0.6833692354832  0.1886334474829  0.4485843997804 1.0
C      1  0.5471912841409  0.1890503519266  0.3154456830129 1.0
C      1  0.3638230694193  0.1888987621995  0.3669021397462 1.0
C      1  0.3166313729845  0.1886333032166  0.5514150676589 1.0
C      1  0.6796015939196  0.2316942050903  0.7103698365399 1.0
C      1  0.4074478236491  0.2319706910231  0.7605675999436 1.0
C      1  0.2280473009149  0.2311438908331  0.5502624415842 1.0
C      1  0.3203982556037  0.2316948140106  0.2896305820191 1.0
C      1  0.5925528028835  0.2319706223230  0.2394325641422 1.0
C      1  0.7719525929423  0.2311445680908  0.4497378862739 1.0
C      1  0.6796015790107  0.2316947705688  0.2896304164588 1.0
C      1  0.4074469412795  0.2319713515547  0.2394327351230 1.0
C      1  0.2280470721673  0.2311440949928  0.4497380280004 1.0
C      1  0.3203992155145  0.2316941707693  0.7103698017680 1.0
C      1  0.5925528669599  0.2319711230754  0.7605676518216 1.0
C      1  0.7719530022853  0.2311436519339  0.5502620068361 1.0
C      1  0.6169172532238  0.7609981215038  0.7941744612373 1.0
C      1  0.2987444903891  0.7603314779199  0.7484005088630 1.0
C      1  0.1755065153554  0.7571225507980  0.4532811654503 1.0
C      1  0.3830841929684  0.7609974129343  0.2058262403162 1.0
C      1  0.7012542653240  0.7603326692863  0.2516002780884 1.0
C      1  0.8244938362279  0.7571216199144  0.5467192961047 1.0
C      1  0.6169153837504  0.7609973679586  0.2058264341376 1.0
C      1  0.2987453986933  0.7603331809566  0.2516001566495 1.0
C      1  0.1755063372297  0.7571226130865  0.5467200069364 1.0
C      1  0.3830828653472  0.7609979625640  0.7941751071804 1.0
C      1  0.7012553623865  0.7603311359471  0.7483998505721 1.0
C      1  0.8244936564187  0.7571219417992  0.4532803929186 1.0
C      1  0.7518274672261  0.6625735851007  0.8562244691255 1.0
C      1  0.3212846367988  0.6639371865723  0.8999775632758 1.0
C      1  0.0425549361873  0.6734161467967  0.6061325083157 1.0
C      1  0.2481707910774  0.6625781383249  0.1437754259297 1.0
C      1  0.6787164896867  0.6639383452569  0.1000233770162 1.0
C      1  0.9574449655800  0.6734167232191  0.3938667422718 1.0
C      1  0.7518285424014  0.6625781547995  0.1437751617951 1.0
C      1  0.3212829640721  0.6639382554845  0.1000236514788 1.0
C      1  0.0425548752876  0.6734175853876  0.3938671149486 1.0
C      1  0.2481724705023  0.6625743039843  0.8562249112360 1.0
C      1  0.6787154012018  0.6639372583180  0.8999770776243 1.0
C      1  0.9574447262293  0.6734152720227  0.6061325980112 1.0
C      1  0.2889444094721  0.6579110351222  0.5534025728803 1.0
C      1  0.3467304802243  0.6592138879819  0.3530083524833 1.0
C      1  0.5567650752838  0.6597753951927  0.3010182105423 1.0
C      1  0.7110556734933  0.6579103352823  0.4465976243426 1.0
C      1  0.6532692946364  0.6592127738481  0.6469913721264 1.0
C      1  0.4432344916680  0.6597760053577  0.6989821406546 1.0
C      1  0.2889441338910  0.6579109339575  0.4465979275884 1.0
C      1  0.3467301839689  0.6592125403633  0.6469920623808 1.0
C      1  0.5567652102235  0.6597762864274  0.6989815440286 1.0
C      1  0.7110557856823  0.6579100936909  0.5534020704400 1.0
C      1  0.6532694633619  0.6592130859770  0.3530078593381 1.0
C      1  0.4432345691882  0.6597758635231  0.3010183216121 1.0
C      1  0.7235922032252  0.7619121474609  0.5589638058787 1.0
C      1  0.5578793433079  0.7629432433763  0.7114535558605 1.0
C      1  0.3362028364353  0.7626660451582  0.6542792999937 1.0
C      1  0.2764082591608  0.7619131304163  0.4410368866289 1.0
C      1  0.4421240504363  0.7629429849329  0.2885459894857 1.0
C      1  0.6637960318387  0.7626663472126  0.3457219017833 1.0
C      1  0.7235924541638  0.7619120705857  0.4410363739500 1.0
C      1  0.5578754380134  0.7629425761904  0.2885461257078 1.0
C      1  0.3362039532140  0.7626669694349  0.3457215309889 1.0
C      1  0.2764079483037  0.7619122324158  0.5589644607562 1.0
C      1  0.4421203258350  0.7629429651749  0.7114538844978 1.0
C      1  0.6637972059299  0.7626662606183  0.6542787718196 1.0
C      1  0.8198536033986  0.5078005735674  0.4433539940183 1.0
C      1  0.7086137238540  0.5091864763136  0.7457099312979 1.0
C      1  0.3905598523716  0.5098098605684  0.8005845130379 1.0
C      1  0.1801471184081  0.5077999990509  0.5566450702099 1.0
C      1  0.2913865742060  0.5091865409919  0.2542891592773 1.0
C      1  0.6094400032078  0.5098106177804  0.1994146778280 1.0
C      1  0.8198527797513  0.5077997292405  0.5566440798475 1.0
C      1  0.7086135341327  0.5091857269473  0.2542866571594 1.0
C      1  0.3905594125974  0.5098113505340  0.1994166714855 1.0
C      1  0.1801470813938  0.5078011088117  0.4433547934262 1.0
C      1  0.2913870625385  0.5091856045732  0.7457123197693 1.0
C      1  0.6094402726150  0.5098110895425  0.8005827348082 1.0
C      1  0.1311226650959  0.6803356472201  0.5944593933882 1.0
C      1  0.2401800413265  0.6830983673558  0.2328152081041 1.0
C      1  0.6016451053792  0.6840723761025  0.1469841875439 1.0
C      1  0.8688765876975  0.6803349995068  0.4055408478750 1.0
C      1  0.7598197289179  0.6830956552850  0.7671853495943 1.0
C      1  0.3983552867131  0.6840722795521  0.8530161807465 1.0
C      1  0.1311232636885  0.6803366132098  0.4055408480761 1.0
C      1  0.2401802210959  0.6830955987512  0.7671858040698 1.0
C      1  0.6016446728015  0.6840728180882  0.8530157507095 1.0
C      1  0.8688771902501  0.6803353306563  0.5944588678230 1.0
C      1  0.7598198670286  0.6830977379211  0.2328150597997 1.0
C      1  0.3983543222654  0.6840723246499  0.1469844541064 1.0
C      1  0.7383546002790  0.6097212028506  0.3013029330304 1.0
C      1  0.7957321948043  0.6081039015381  0.6022014449472 1.0
C      1  0.5547474806306  0.6106987476557  0.7990199199021 1.0
C      1  0.2616452156249  0.6097199003979  0.6986966353441 1.0
C      1  0.2042677517893  0.6081042628250  0.3977979887463 1.0
C      1  0.4452522639860  0.6106988732970  0.2009798572508 1.0
C      1  0.7383541271531  0.6097194195828  0.6986953734415 1.0
C      1  0.7957320291929  0.6081030631441  0.3977973037830 1.0
C      1  0.5547465835491  0.6106984656880  0.2009785289961 1.0
C      1  0.2616452518025  0.6097216027991  0.3013040190506 1.0
C      1  0.2042680294537  0.6081039801428  0.6022019817856 1.0
C      1  0.4452533088751  0.6106983834260  0.7990209696942 1.0
C      1  0.3678236900861  0.3765746754780  0.3680134496597 1.0
C      1  0.5492834527104  0.3766990897971  0.3215419794551 1.0
C      1  0.6819850592637  0.3767083357754  0.4526057333237 1.0
C      1  0.6321779541847  0.3765723182000  0.6319851440585 1.0
C      1  0.4507142103668  0.3766988712622  0.6784614086996 1.0
C      1  0.3180127458537  0.3767098475498  0.5473943346839 1.0
C      1  0.3678210955383  0.3765731809163  0.6319858136782 1.0
C      1  0.5492850933732  0.3766990939320  0.6784619442114 1.0
C      1  0.6819872608362  0.3767096487870  0.5473934671297 1.0
C      1  0.6321768529705  0.3765750044166  0.3680132398660 1.0
C      1  0.4507168396370  0.3766990331411  0.3215417059281 1.0
C      1  0.3180142617989  0.3767091147807  0.4526063394875 1.0
C      1  0.6062766962536  0.4382595004250  0.8704561313018 1.0
C      1  0.2307939157743  0.4365853943858  0.7785617504616 1.0
C      1  0.1223846473527  0.4352343219915  0.4060594775939 1.0
C      1  0.3937233130983  0.4382599180023  0.1295437081875 1.0
C      1  0.7692065598440  0.4365854767341  0.2214385700802 1.0
C      1  0.8776146504941  0.4352330990838  0.5939413687937 1.0
C      1  0.6062755775201  0.4382582769923  0.1295402095785 1.0
C      1  0.2307934056995  0.4365865480576  0.2214395861844 1.0
C      1  0.1223854673406  0.4352331122549  0.5939415467628 1.0
C      1  0.3937254162351  0.4382587809835  0.8704584308199 1.0
C      1  0.7692072735343  0.4365863553332  0.7785600173505 1.0
C      1  0.8776155769115  0.4352343048648  0.4060579015698 1.0
C      1  0.2384963296712  0.2797537573161  0.7083897933275 1.0
C      1  0.1885582447612  0.2792348525942  0.3778937196822 1.0
C      1  0.4501269203098  0.2811804566665  0.1703400360874 1.0
C      1  0.7615048328966  0.2797542839900  0.2916100510333 1.0
C      1  0.8114413812162  0.2792346293521  0.6221061208677 1.0
C      1  0.5498734632771  0.2811799026693  0.8296609067331 1.0
C      1  0.2384951853909  0.2797548430484  0.2916105495899 1.0
C      1  0.1885590053986  0.2792342213202  0.6221070111641 1.0
C      1  0.4501278638336  0.2811788925964  0.8296613435222 1.0
C      1  0.7615046585034  0.2797539063899  0.7083891281154 1.0
C      1  0.8114417890382  0.2792346265493  0.3778935275218 1.0
C      1  0.5498717061997  0.2811793636584  0.1703396152421 1.0
C      1  0.7333099320707  0.4605417635022  0.4235676018535 1.0
C      1  0.6828162571685  0.4606021080865  0.6619229141943 1.0
C      1  0.4503811620590  0.4608202472418  0.7364400208099 1.0
C      1  0.2666917039385  0.4605428033506  0.5764326926851 1.0
C      1  0.3171820554488  0.4606005508927  0.3380764939834 1.0
C      1  0.5496180185622  0.4608215814859  0.2635598142088 1.0
C      1  0.7333070433805  0.4605432477023  0.5764316219592 1.0
C      1  0.6828183364333  0.4605982358599  0.3380747163674 1.0
C      1  0.4503819363802  0.4608214533787  0.2635611603371 1.0
C      1  0.2666914658910  0.4605433493043  0.4235686561722 1.0
C      1  0.3171831885837  0.4605999931217  0.6619247871449 1.0
C      1  0.5496185857668  0.4608212968198  0.7364379303432 1.0
C      1  0.1303107469294  0.3536353967949  0.6062700728607 1.0
C      1  0.2233523943324  0.3549241076824  0.2338719984060 1.0
C      1  0.5924750396178  0.3565198336243  0.1289214659819 1.0
C      1  0.8696889892668  0.3536366033559  0.3937301276594 1.0
C      1  0.7766476795608  0.3549238930729  0.7661279820694 1.0
C      1  0.4075255047063  0.3565182308029  0.8710786744592 1.0
C      1  0.1303110343023  0.3536365017933  0.3937309934945 1.0
C      1  0.2233539466725  0.3549218158928  0.7661287069680 1.0
C      1  0.5924759390173  0.3565210314183  0.8710766282762 1.0
C      1  0.8696892129759  0.3536361317128  0.6062688909243 1.0
C      1  0.7766470484051  0.3549230411706  0.2338712039052 1.0
C      1  0.4075243666381  0.3565214810128  0.1289234441543 1.0
END
