TITL C-29469-8165-12 -2.069 3375.00 -362.83674837 0 0 42 (C1) n - 1
REM
REM Run started: at 2021.01.04 08:09:38 in /gpfs/home/chem/mssmkc/CARBON/AIRSS/Generating-Clusters/Str-Search/Higher-Symm/C4-100
REM VASP from code version vasp.5.4.4.18Apr17-6-g9f103f2a35 (build Oct 11 2019 16:45:47) gamma-only
REM
REM
REM
REM
REM ./C.cell (6bd13a13d554368a30d355f37ece5b26)
REM AIRSS Version 0.9.1 bugfix July 2018 build 013d7b7c2542+ Fri, 06 Jul 2018 19:26:36 +0100
REM compiler GCC version 6.3.0
REM options -cpp -iprefix /gpfs/warwick/csc/orac/software/Core/GCCcore/6.3.0/bin/../lib/gcc/x86_64-pc-linux-gnu/6.3.0/ -mtune=generic -march=x86-64 -g -O0
REM seed -2119734179 -2143339085 -1664319307 -1566588592 -661747615 -798673273 630344972 -1313213497 -427623229 357028815 1632373622 -622268995
REM
REM C.POTCAR (d86ddea03c3ceb6dc662c8ad6801f873)
REM 
CELL 1.54180   15.00000   15.00000   15.00000   90.00000   90.00000   90.00000
LATT -1
SFAC C  
C      1  0.3232456220158  0.5946758235850  0.5071969601468 1.0
C      1  0.3839348691306  0.5946830777055  0.3659686433995 1.0
C      1  0.5322272945910  0.5946953273206  0.3257901651179 1.0
C      1  0.6561541370212  0.5945888300480  0.4166614770695 1.0
C      1  0.6627539523656  0.5946892582914  0.5701863383763 1.0
C      1  0.5466568784894  0.5947811731139  0.6710009862002 1.0
C      1  0.3954999486267  0.5947066185485  0.6428031447109 1.0
C      1  0.3903374598463  0.3328529217282  0.5044219071159 1.0
C      1  0.4280090669524  0.3327788040683  0.4169474656576 1.0
C      1  0.5199617354111  0.3326863519215  0.3921227963266 1.0
C      1  0.5965647252160  0.3328418207072  0.4487633019991 1.0
C      1  0.6006625212536  0.3327133829042  0.5438863154363 1.0
C      1  0.5286811801369  0.3326999283904  0.6063762378022 1.0
C      1  0.4350821793244  0.3328549217205  0.5885890624752 1.0
C      1  0.4648474438112  0.4516038383380  0.6889959375407 1.0
C      1  0.3301847236220  0.4516143355173  0.5903295887322 1.0
C      1  0.3235768731478  0.4515842998092  0.4235089415205 1.0
C      1  0.4497275038433  0.4514885464166  0.3142829267610 1.0
C      1  0.6136074893428  0.4514497821666  0.3449738625207 1.0
C      1  0.6920164536265  0.4515112298071  0.4922703511521 1.0
C      1  0.6258132589623  0.4515339204737  0.6453198944656 1.0
C      1  0.4650582634565  0.5485124107510  0.6889454651393 1.0
C      1  0.3303207724447  0.5485455960789  0.5904077689548 1.0
C      1  0.3235706778086  0.5484978002149  0.4235848981468 1.0
C      1  0.4496410736800  0.5484565115894  0.3142631920665 1.0
C      1  0.6135560938771  0.5484253287053  0.3448398948230 1.0
C      1  0.6921043023462  0.5484042479436  0.4920543311750 1.0
C      1  0.6259961667085  0.5484809042492  0.6451578796664 1.0
C      1  0.6009419362291  0.6672720096832  0.5435643561161 1.0
C      1  0.5290719431366  0.6673118467718  0.6061089462560 1.0
C      1  0.4354340639608  0.6671997212102  0.5885099598362 1.0
C      1  0.3905190418981  0.6672011949185  0.5044571599690 1.0
C      1  0.4280174435685  0.6672256285713  0.4169531457162 1.0
C      1  0.5199044370230  0.6672462821603  0.3919834832203 1.0
C      1  0.5966633520894  0.6670957178011  0.4484546370044 1.0
C      1  0.5463501623547  0.4052423965594  0.6712167090178 1.0
C      1  0.3951842130640  0.4053924099458  0.6428253573252 1.0
C      1  0.3231161113276  0.4054025177550  0.5070652114058 1.0
C      1  0.3840289284636  0.4053027502487  0.3659108146941 1.0
C      1  0.5323521580225  0.4051824858983  0.3258734198275 1.0
C      1  0.6561261553969  0.4053037234191  0.4169579134665 1.0
C      1  0.6624974864067  0.4052650229432  0.5704691516464 1.0
END
