TITL C-29086-3345-23 -0.474 3375.00 -68.44767303 0 0 9 (D(inf)h) n - 1
REM
REM Run started: at 2020.12.19 20:28:36 in /gpfs/home/chem/mssmkc/CARBON/AIRSS/Generating-Clusters/Str-Search/Higher-Symm/C4-100
REM VASP from code version vasp.5.4.4.18Apr17-6-g9f103f2a35 (build Oct 11 2019 16:45:47) gamma-only
REM
REM
REM
REM
REM ./C.cell (6bd13a13d554368a30d355f37ece5b26)
REM AIRSS Version 0.9.1 bugfix July 2018 build 013d7b7c2542+ Fri, 06 Jul 2018 19:26:36 +0100
REM compiler GCC version 6.3.0
REM options -cpp -iprefix /gpfs/warwick/csc/orac/software/Core/GCCcore/6.3.0/bin/../lib/gcc/x86_64-pc-linux-gnu/6.3.0/ -mtune=generic -march=x86-64 -g -O0
REM seed -773662098 811319205 1594266392 1936980539 1393705936 1419422086 -1632283465 -104905314 634905800 -1852364789 -1116443189 426728055
REM
REM C.POTCAR (d86ddea03c3ceb6dc662c8ad6801f873)
REM 
CELL 1.54180   15.00000   15.00000   15.00000   90.00000   90.00000   90.00000
LATT -1
SFAC C  
C      1  0.5042873796689  0.4992783065459  0.2427870648491 1.0
C      1  0.5043037420982  0.4992927697768  0.7572390886575 1.0
C      1  0.5042855811926  0.4992755437157  0.4999767223384 1.0
C      1  0.5042932905733  0.4992809683875  0.3291993971116 1.0
C      1  0.5047393239822  0.4992024712174  0.1559860003336 1.0
C      1  0.5042215456191  0.4993038058476  0.5855560917897 1.0
C      1  0.5042229386971  0.4992961296606  0.4144132125788 1.0
C      1  0.5047374831112  0.4992057190937  0.8440450287566 1.0
C      1  0.5042990150574  0.4992897857548  0.6707972935846 1.0
END
