TITL C-29086-3345-228 -0.311 3375.00 -42.82957226 0 0 6 (D(inf)h) n - 1
REM
REM Run started: at 2020.12.21 10:51:02 in /gpfs/home/chem/mssmkc/CARBON/AIRSS/Generating-Clusters/Str-Search/Higher-Symm/C4-100
REM VASP from code version vasp.5.4.4.18Apr17-6-g9f103f2a35 (build Oct 11 2019 16:45:47) gamma-only
REM
REM
REM
REM
REM ./C.cell (6bd13a13d554368a30d355f37ece5b26)
REM AIRSS Version 0.9.1 bugfix July 2018 build 013d7b7c2542+ Fri, 06 Jul 2018 19:26:36 +0100
REM compiler GCC version 6.3.0
REM options -cpp -iprefix /gpfs/warwick/csc/orac/software/Core/GCCcore/6.3.0/bin/../lib/gcc/x86_64-pc-linux-gnu/6.3.0/ -mtune=generic -march=x86-64 -g -O0
REM seed 820738904 1362327549 -1802033434 1980462447 823071818 589463941 329248463 -1461794991 809007899 788313123 -1334439437 1578872492
REM
REM C.POTCAR (d86ddea03c3ceb6dc662c8ad6801f873)
REM 
CELL 1.54180   15.00000   15.00000   15.00000   90.00000   90.00000   90.00000
LATT -1
SFAC C  
C      1  0.4994735187992  0.2831379452198  0.4964493149258 1.0
C      1  0.4994791664831  0.6292570538199  0.4965388099435 1.0
C      1  0.4994735190626  0.7168620551487  0.4964491822573 1.0
C      1  0.4994791661085  0.3707429458250  0.4965388761225 1.0
C      1  0.4994813148559  0.5427209699023  0.4965469872799 1.0
C      1  0.4994813146907  0.4572790300843  0.4965470294710 1.0
END
