TITL C-29086-3345-204 -2.396 3375.00 -399.71174866 0 0 49 (C1) n - 1
REM
REM Run started: at 2020.12.21 05:33:14 in /gpfs/home/chem/mssmkc/CARBON/AIRSS/Generating-Clusters/Str-Search/Higher-Symm/C4-100
REM VASP from code version vasp.5.4.4.18Apr17-6-g9f103f2a35 (build Oct 11 2019 16:45:47) gamma-only
REM
REM
REM
REM
REM ./C.cell (6bd13a13d554368a30d355f37ece5b26)
REM AIRSS Version 0.9.1 bugfix July 2018 build 013d7b7c2542+ Fri, 06 Jul 2018 19:26:36 +0100
REM compiler GCC version 6.3.0
REM options -cpp -iprefix /gpfs/warwick/csc/orac/software/Core/GCCcore/6.3.0/bin/../lib/gcc/x86_64-pc-linux-gnu/6.3.0/ -mtune=generic -march=x86-64 -g -O0
REM seed 1220848270 -2000155760 -1279409756 143812956 -1791755085 112300183 2054990560 -581923835 -1330328378 -1550458893 -1783472369 1223306332
REM
REM C.POTCAR (d86ddea03c3ceb6dc662c8ad6801f873)
REM 
CELL 1.54180   15.00000   15.00000   15.00000   90.00000   90.00000   90.00000
LATT -1
SFAC C  
C      1  0.4409701556479  0.3142075804077  0.6206887249392 1.0
C      1  0.4681589827953  0.2806620442490  0.4479674878592 1.0
C      1  0.4663228571884  0.3086886629790  0.3575533521422 1.0
C      1  0.4648823859335  0.4593406934697  0.2588334559483 1.0
C      1  0.4656190479262  0.5526078843630  0.2645116984834 1.0
C      1  0.4668408300942  0.6981134698737  0.3683584310212 1.0
C      1  0.4672529860637  0.7332344355635  0.4543531648285 1.0
C      1  0.4625362156638  0.7066860639494  0.6307627090634 1.0
C      1  0.4592951125826  0.6397050749935  0.6974838018477 1.0
C      1  0.4570159263342  0.4531241729011  0.7130324578611 1.0
C      1  0.4801820541100  0.3649364069781  0.6938801013860 1.0
C      1  0.6188266077713  0.6545724731372  0.5882302377974 1.0
C      1  0.6174205649233  0.5924321692926  0.6570823732911 1.0
C      1  0.6155147943565  0.4926007187051  0.6748865737063 1.0
C      1  0.6280347209923  0.4097057002216  0.6300417720914 1.0
C      1  0.6373319686640  0.4120160610782  0.5327989224664 1.0
C      1  0.6214935355686  0.3409928882026  0.4662814961005 1.0
C      1  0.6202682120826  0.3646426348843  0.3757472382073 1.0
C      1  0.6210557615069  0.4533184509512  0.3240192014121 1.0
C      1  0.6209163657990  0.5466143889490  0.3334425380876 1.0
C      1  0.6216013956948  0.6321178096655  0.3974353725167 1.0
C      1  0.6210077357459  0.6695315483212  0.4837512001385 1.0
C      1  0.3375845925568  0.4408932851362  0.5934777899181 1.0
C      1  0.3766447359970  0.3544150357211  0.5642522258030 1.0
C      1  0.3898733517776  0.3313666882878  0.4719790388087 1.0
C      1  0.3899238685427  0.3703869363945  0.3747630768878 1.0
C      1  0.3906762708453  0.4502678186901  0.3257702034586 1.0
C      1  0.3915992732674  0.5566580854560  0.3310721138214 1.0
C      1  0.3920709902130  0.6344952330950  0.3867552529797 1.0
C      1  0.3918691286280  0.6763715602176  0.4861390693049 1.0
C      1  0.3885610100753  0.6631072330310  0.5802043067836 1.0
C      1  0.3859045125993  0.5908373651156  0.6563584872433 1.0
C      1  0.3823363350341  0.4959033896609  0.6635527294970 1.0
C      1  0.5366350223846  0.5047054119690  0.7297768275585 1.0
C      1  0.5683178122268  0.3410114119949  0.6585593067525 1.0
C      1  0.5280304688361  0.2821467282635  0.5911370028444 1.0
C      1  0.5487445590957  0.2806390651154  0.5005908210555 1.0
C      1  0.5465628239348  0.3352033840509  0.3181267268372 1.0
C      1  0.5466782901459  0.4150424014665  0.2677202512763 1.0
C      1  0.5496553434407  0.5928802885900  0.2816301307874 1.0
C      1  0.5502951029877  0.6675713157738  0.3365835663613 1.0
C      1  0.5492171571654  0.7381791970021  0.4994742014289 1.0
C      1  0.5459529335236  0.7232342396067  0.5916971167006 1.0
C      1  0.5391779571987  0.5980465341143  0.7215178836157 1.0
C      1  0.5038569401909  0.5062413662954  0.4934573489205 1.0
C      1  0.3367688501162  0.5026961427249  0.5064690105717 1.0
C      1  0.4205599064959  0.5186082383239  0.4776901369822 1.0
C      1  0.5834275134349  0.4816292369672  0.5077947960775 1.0
C      1  0.2583127318407  0.4744054737993  0.5354551665282 1.0
END
