TITL C-29086-3345-62 -1.528 3375.00 -257.53200893 0 0 32 (C3) n - 1
REM
REM Run started: at 2020.12.20 03:30:35 in /gpfs/home/chem/mssmkc/CARBON/AIRSS/Generating-Clusters/Str-Search/Higher-Symm/C4-100
REM VASP from code version vasp.5.4.4.18Apr17-6-g9f103f2a35 (build Oct 11 2019 16:45:47) gamma-only
REM
REM
REM
REM
REM ./C.cell (6bd13a13d554368a30d355f37ece5b26)
REM AIRSS Version 0.9.1 bugfix July 2018 build 013d7b7c2542+ Fri, 06 Jul 2018 19:26:36 +0100
REM compiler GCC version 6.3.0
REM options -cpp -iprefix /gpfs/warwick/csc/orac/software/Core/GCCcore/6.3.0/bin/../lib/gcc/x86_64-pc-linux-gnu/6.3.0/ -mtune=generic -march=x86-64 -g -O0
REM seed -876433361 823310915 -1630520727 808701097 186731401 699724755 -1857787646 1879794636 1577321461 -1968266976 1010938891 1453727481
REM
REM C.POTCAR (d86ddea03c3ceb6dc662c8ad6801f873)
REM 
CELL 1.54180   15.00000   15.00000   15.00000   90.00000   90.00000   90.00000
LATT -1
SFAC C  
C      1  0.5910872931390  0.6226568684684  0.4657672317282 1.0
C      1  0.4241759648569  0.6225960187209  0.4428409652866 1.0
C      1  0.4880753215941  0.6227461781825  0.5984632241111 1.0
C      1  0.6895004536118  0.5025582912261  0.4894612677577 1.0
C      1  0.3955470704595  0.5023835268423  0.3456858142708 1.0
C      1  0.4184800329899  0.5027152607454  0.6721226692167 1.0
C      1  0.6333691431020  0.5497606444159  0.6099504035858 1.0
C      1  0.5282424983283  0.5496763361653  0.3343536329248 1.0
C      1  0.3420406177124  0.5497058576061  0.5630340447361 1.0
C      1  0.4053572413960  0.3949521562788  0.5323998542708 1.0
C      1  0.5752136743820  0.3948251883784  0.5708460699272 1.0
C      1  0.5233421175215  0.3949217078715  0.4046864532339 1.0
C      1  0.5087090446300  0.4899831384052  0.6894145728545 1.0
C      1  0.6592433871737  0.4896594303855  0.4028053265863 1.0
C      1  0.3355879380844  0.4895267388152  0.4153255781458 1.0
C      1  0.3462524495957  0.5682022338951  0.4725405282761 1.0
C      1  0.5528330769308  0.5685139239486  0.6513088449414 1.0
C      1  0.6043196469280  0.5682784386009  0.3834545963961 1.0
C      1  0.4038119495910  0.5884924666291  0.6243061232991 1.0
C      1  0.6556447204250  0.5885762364409  0.5259627755363 1.0
C      1  0.4441060242114  0.5883079513192  0.3570051961043 1.0
C      1  0.5457218909387  0.4041965857745  0.6737806247280 1.0
C      1  0.6270049707761  0.4038902941537  0.3785612310379 1.0
C      1  0.3308141009747  0.4038394507632  0.4555198722542 1.0
C      1  0.3742999184886  0.4607500485742  0.5989837136578 1.0
C      1  0.6485043854932  0.4605380781448  0.5643638230681 1.0
C      1  0.4811796691460  0.4606726927462  0.3442818679916 1.0
C      1  0.3268255851675  0.3275974916133  0.4976523545995 1.0
C      1  0.5833859050535  0.3275417346449  0.6563727877740 1.0
C      1  0.5929924896059  0.3274670834797  0.3541420809483 1.0
C      1  0.5010754003735  0.6383689395924  0.5022594310457 1.0
C      1  0.5013157173189  0.3924480071720  0.5025904397056 1.0
END
