TITL C-29123-7884-95 -3.86 3375.00 -676.85009316 0 0 82 (Cs) n - 1
REM
REM Run started: at 2020.12.20 11:29:05 in /gpfs/home/chem/mssmkc/CARBON/AIRSS/Generating-Clusters/Str-Search/Higher-Symm/C4-100
REM VASP from code version vasp.5.4.4.18Apr17-6-g9f103f2a35 (build Oct 11 2019 16:45:47) gamma-only
REM
REM
REM
REM
REM ./C.cell (6bd13a13d554368a30d355f37ece5b26)
REM AIRSS Version 0.9.1 bugfix July 2018 build 013d7b7c2542+ Fri, 06 Jul 2018 19:26:36 +0100
REM compiler GCC version 6.3.0
REM options -cpp -iprefix /gpfs/warwick/csc/orac/software/Core/GCCcore/6.3.0/bin/../lib/gcc/x86_64-pc-linux-gnu/6.3.0/ -mtune=generic -march=x86-64 -g -O0
REM seed 1094842376 -846002526 1269418778 1362050928 -1265614579 -230984214 -22794960 -815447389 -1951369820 -1839835233 2049008980 -202101195
REM
REM C.POTCAR (d86ddea03c3ceb6dc662c8ad6801f873)
REM 
CELL 1.54180   15.00000   15.00000   15.00000   90.00000   90.00000   90.00000
LATT -1
SFAC C  
C      1  0.5503199264387  0.5469778122850  0.7895992832727 1.0
C      1  0.5551632738459  0.7580911071439  0.4538106443665 1.0
C      1  0.5509123479161  0.4610238029815  0.2411416493413 1.0
C      1  0.5492924596301  0.2180298858447  0.5454462544284 1.0
C      1  0.4496571003466  0.5470562215262  0.7893887761531 1.0
C      1  0.4463218238840  0.7582472771900  0.4535918831446 1.0
C      1  0.4518890642649  0.4610719015502  0.2409057104788 1.0
C      1  0.4518935938744  0.2180035996808  0.5451931182116 1.0
C      1  0.6047395267798  0.2671103318405  0.3964361234255 1.0
C      1  0.6009518035224  0.4104395999743  0.7106800257711 1.0
C      1  0.6074936972511  0.7255325849125  0.6095225252866 1.0
C      1  0.6838664040651  0.5876461076120  0.3061684418544 1.0
C      1  0.3974571271553  0.2671081950731  0.3959128147206 1.0
C      1  0.3992296331275  0.4105578643444  0.7102003083814 1.0
C      1  0.3933329127093  0.7258397233521  0.6091789902939 1.0
C      1  0.3183691924745  0.5876819966122  0.3054274032523 1.0
C      1  0.6700310973525  0.4594026691946  0.6679709659496 1.0
C      1  0.6866164800259  0.6824099152348  0.5740413746285 1.0
C      1  0.7503247607942  0.5531816156770  0.3719899900610 1.0
C      1  0.6869367070054  0.3157554279598  0.4380917477366 1.0
C      1  0.3304166465032  0.4597257425605  0.6671819847023 1.0
C      1  0.3142641052593  0.6828333031320  0.5733520984326 1.0
C      1  0.2517360022572  0.5532064010649  0.3710298770085 1.0
C      1  0.3149603945745  0.3156588777556  0.4370888601215 1.0
C      1  0.4511738107060  0.7690493634512  0.5488117534597 1.0
C      1  0.3684349060488  0.5085713778037  0.2715274640229 1.0
C      1  0.4512451023026  0.2141304128254  0.4485920349619 1.0
C      1  0.4501301614644  0.4511292686889  0.7775110040388 1.0
C      1  0.5499488731580  0.7688887446519  0.5489610832146 1.0
C      1  0.6342710756834  0.5084638104706  0.2720873948180 1.0
C      1  0.5505912909725  0.2141628726116  0.4488395154280 1.0
C      1  0.5497666461477  0.4510668337978  0.7777157785070 1.0
C      1  0.5460328363626  0.6124697649236  0.3581528256033 1.0
C      1  0.6459883715126  0.4294993735147  0.3343044116484 1.0
C      1  0.5475984785326  0.3797379634352  0.5571964078029 1.0
C      1  0.5440028428814  0.5967571029535  0.6007996394634 1.0
C      1  0.4557438865170  0.6126423561151  0.3580715438361 1.0
C      1  0.3565203142699  0.4295383956696  0.3336761833235 1.0
C      1  0.4531751208120  0.3797585298193  0.5570571566317 1.0
C      1  0.4566576767370  0.5968815724134  0.6006471536821 1.0
C      1  0.6051372369335  0.4648267093201  0.4193765204740 1.0
C      1  0.6019277566700  0.4505066698626  0.5196670774656 1.0
C      1  0.5530821159397  0.5384515516483  0.5221370616222 1.0
C      1  0.5755028038316  0.5485611481208  0.4257051438850 1.0
C      1  0.3967415811502  0.4648956132628  0.4189459710654 1.0
C      1  0.3991240487249  0.4505676652922  0.5192638952286 1.0
C      1  0.4478974153322  0.5385540190135  0.5219509597024 1.0
C      1  0.4259754853269  0.5487864366042  0.4254840615487 1.0
C      1  0.6053694899620  0.5990125421655  0.7366533109291 1.0
C      1  0.6346832685763  0.7149251121059  0.4158255970351 1.0
C      1  0.5840938498150  0.3774546569192  0.2799145114866 1.0
C      1  0.6016626254094  0.2929748651021  0.5803638374815 1.0
C      1  0.3948631680548  0.5991993391818  0.7363194533371 1.0
C      1  0.3669771424777  0.7152001173279  0.4152577099794 1.0
C      1  0.4186670853321  0.3775189026275  0.2795852634947 1.0
C      1  0.3991900138094  0.2928637223529  0.5798844177730 1.0
C      1  0.7757680696486  0.4616387431384  0.3727815580445 1.0
C      1  0.6862541371474  0.3330125705159  0.5323730772337 1.0
C      1  0.6764008262619  0.5529774956841  0.6867585029824 1.0
C      1  0.6987751978071  0.6771346885078  0.4793896851862 1.0
C      1  0.2266565606878  0.4615701040832  0.3717847147247 1.0
C      1  0.3148589016466  0.3327694600225  0.5314541653890 1.0
C      1  0.3239911316107  0.5532763778042  0.6860951983035 1.0
C      1  0.3025406778089  0.6775316742436  0.4786117974189 1.0
C      1  0.3739850562350  0.6605229379763  0.3329511028243 1.0
C      1  0.4519755533544  0.3021249978316  0.3207306952178 1.0
C      1  0.4448350481953  0.3452631945835  0.6529247874592 1.0
C      1  0.4421225829124  0.6652597074813  0.6746521775030 1.0
C      1  0.6279663262141  0.6602929204853  0.3334933602215 1.0
C      1  0.5505367362769  0.3020846275944  0.3209550612639 1.0
C      1  0.5555513287461  0.3452453734328  0.6531458456259 1.0
C      1  0.5583721956386  0.6651247490361  0.6748679185847 1.0
C      1  0.3064238178995  0.4420236291383  0.5673361269022 1.0
C      1  0.2854805365747  0.5964434199865  0.6100540577037 1.0
C      1  0.2618212250283  0.5882820186366  0.4597321046209 1.0
C      1  0.2746514184597  0.3876407606480  0.3819069970136 1.0
C      1  0.6944935554567  0.4416668818331  0.5682456067073 1.0
C      1  0.7152191250994  0.5960014362684  0.6108502488088 1.0
C      1  0.7396657862711  0.5878917759510  0.4607228823936 1.0
C      1  0.7276748430368  0.3877296157206  0.3830703899120 1.0
C      1  0.7411022558881  0.5349748806151  0.5425864854538 1.0
C      1  0.2599688435821  0.5354195802256  0.5415902585265 1.0
END
