TITL C-29469-8165-3 -2.286 3375.00 -365.89014897 0 0 46 (C1) n - 1
REM
REM Run started: at 2021.01.04 06:15:43 in /gpfs/home/chem/mssmkc/CARBON/AIRSS/Generating-Clusters/Str-Search/Higher-Symm/C4-100
REM VASP from code version vasp.5.4.4.18Apr17-6-g9f103f2a35 (build Oct 11 2019 16:45:47) gamma-only
REM
REM
REM
REM
REM ./C.cell (6bd13a13d554368a30d355f37ece5b26)
REM AIRSS Version 0.9.1 bugfix July 2018 build 013d7b7c2542+ Fri, 06 Jul 2018 19:26:36 +0100
REM compiler GCC version 6.3.0
REM options -cpp -iprefix /gpfs/warwick/csc/orac/software/Core/GCCcore/6.3.0/bin/../lib/gcc/x86_64-pc-linux-gnu/6.3.0/ -mtune=generic -march=x86-64 -g -O0
REM seed 1657334869 -1288828442 -888419387 675078730 -1462313143 833751749 -563275141 1432589505 -127885124 1746445069 -678363514 -1874188957
REM
REM C.POTCAR (d86ddea03c3ceb6dc662c8ad6801f873)
REM 
CELL 1.54180   15.00000   15.00000   15.00000   90.00000   90.00000   90.00000
LATT -1
SFAC C  
C      1  0.5971530221053  0.7019352833108  0.5769175838996 1.0
C      1  0.2986135911848  0.5981001069993  0.4238988833357 1.0
C      1  0.4060105269608  0.3003140151890  0.5779142496202 1.0
C      1  0.7068243473144  0.4077347132347  0.4234224197647 1.0
C      1  0.4971168374111  0.4430778169562  0.5316937749053 1.0
C      1  0.5561538228554  0.4941072789492  0.4697910581547 1.0
C      1  0.5040763167453  0.5585976429638  0.5254205213510 1.0
C      1  0.4440727457447  0.5009499602744  0.4702728030051 1.0
C      1  0.6283149947203  0.3418057744210  0.6040825357150 1.0
C      1  0.6627564722961  0.6271491421657  0.3973019694418 1.0
C      1  0.3744829423896  0.6650016588385  0.6032943710422 1.0
C      1  0.3358517496111  0.3763746762017  0.3991077362542 1.0
C      1  0.4349128010797  0.7158201748863  0.5776134891407 1.0
C      1  0.2843608580122  0.4375132286796  0.4226477414130 1.0
C      1  0.5670228887016  0.2911237925671  0.5780322053459 1.0
C      1  0.7149454724865  0.5681966661013  0.4243067585065 1.0
C      1  0.7163162713242  0.4867455367554  0.5655000498277 1.0
C      1  0.5162435782598  0.7160878711885  0.4366447982314 1.0
C      1  0.2876080829222  0.5171958831402  0.5643618488713 1.0
C      1  0.4866844226398  0.2953129156799  0.4342465379141 1.0
C      1  0.5597943246756  0.3315099267296  0.3816804080229 1.0
C      1  0.6848195777946  0.5605644657143  0.6242865607362 1.0
C      1  0.4429597848225  0.6812944450331  0.3794328486930 1.0
C      1  0.3199666752284  0.4437742893601  0.6214298859156 1.0
C      1  0.4584924709211  0.5078398861667  0.6993403681056 1.0
C      1  0.4990698015761  0.4628860192896  0.2558330438271 1.0
C      1  0.5464908630477  0.5020535207956  0.6961844141322 1.0
C      1  0.5027928816859  0.5404133822547  0.3048604665256 1.0
C      1  0.3579223751544  0.6504995760652  0.3980727861790 1.0
C      1  0.3526710898725  0.3598392845214  0.6025214087055 1.0
C      1  0.6467866197866  0.3549686321672  0.4001359000435 1.0
C      1  0.6506004003022  0.6445741784898  0.6043223857346 1.0
C      1  0.5174214189425  0.7268169689490  0.5307655638261 1.0
C      1  0.2734787230320  0.5189844522601  0.4697575131020 1.0
C      1  0.4857149552971  0.2800737379262  0.5312631467302 1.0
C      1  0.7289718807905  0.4866794716917  0.4708306794740 1.0
C      1  0.6413431342625  0.4946898337948  0.6819872869692 1.0
C      1  0.5098982307019  0.6336587449574  0.3251790746067 1.0
C      1  0.3661273147503  0.5135038678432  0.6767680842400 1.0
C      1  0.4935311588566  0.3966295111416  0.3369769340088 1.0
C      1  0.4191544533361  0.3414876532632  0.3815227932652 1.0
C      1  0.6737508542751  0.4196124874718  0.6228642652369 1.0
C      1  0.5832499300001  0.6704690196956  0.3787933117926 1.0
C      1  0.3294377245068  0.5861465023811  0.6225517334317 1.0
C      1  0.4990630548370  0.4850537352195  0.3877457113936 1.0
C      1  0.5015972567793  0.5029912683148  0.6084220895622 1.0
END
