TITL C-29086-4869-13 -7.124 3375.00 -1243.69526533 0 0 155 (C1) n - 1
REM
REM Run started: at 2020.12.27 13:01:53 in /gpfs/home/chem/mssmkc/CARBON/AIRSS/Generating-Clusters/Str-Search/Higher-Symm/C100-200
REM VASP from code version vasp.5.4.4.18Apr17-6-g9f103f2a35 (build Oct 11 2019 16:45:47) gamma-only
REM
REM
REM
REM
REM ./C.cell (533062f00bc710175b3da973d35f2034)
REM AIRSS Version 0.9.1 bugfix July 2018 build 013d7b7c2542+ Fri, 06 Jul 2018 19:26:36 +0100
REM compiler GCC version 6.3.0
REM options -cpp -iprefix /gpfs/warwick/csc/orac/software/Core/GCCcore/6.3.0/bin/../lib/gcc/x86_64-pc-linux-gnu/6.3.0/ -mtune=generic -march=x86-64 -g -O0
REM seed -295031782 825747158 -616140643 1538890086 1333051400 696332007 3791155 -859345027 1489042152 596880383 569670237 -1336580935
REM
REM C.POTCAR (d86ddea03c3ceb6dc662c8ad6801f873)
REM 
CELL 1.54180   15.00000   15.00000   15.00000   90.00000   90.00000   90.00000
LATT -1
SFAC C  
C      1  0.4231199062519  0.4310992805424  0.8319285688884 1.0
C      1  0.6201579395657  0.3587376460505  0.1423049225400 1.0
C      1  0.3909242323019  0.5869581759046  0.8717953714356 1.0
C      1  0.6426186108255  0.5804856393465  0.1437284554933 1.0
C      1  0.6393501695737  0.3577315164417  0.8486965138497 1.0
C      1  0.3784343863485  0.3928212302184  0.1560756690666 1.0
C      1  0.5463355943065  0.5606358517874  0.8607436679484 1.0
C      1  0.3855224986520  0.5592203420195  0.1378584494960 1.0
C      1  0.5490463663282  0.3545604126687  0.1976434596255 1.0
C      1  0.4770909852741  0.3676240189487  0.7891979099494 1.0
C      1  0.5610528801811  0.6047067378399  0.1745539133216 1.0
C      1  0.4352582727833  0.6741901930756  0.8708780639174 1.0
C      1  0.4520145628413  0.3555304832909  0.1998465438660 1.0
C      1  0.5693650103896  0.3513220883956  0.7899126742374 1.0
C      1  0.4630515829127  0.6048267295405  0.1667399249679 1.0
C      1  0.5258387361609  0.6584556133761  0.8671265628687 1.0
C      1  0.4646379935908  0.2283002602147  0.6730274804784 1.0
C      1  0.5455655215015  0.2291553149573  0.3284268276156 1.0
C      1  0.4498330412724  0.7848266233851  0.7515137978052 1.0
C      1  0.5484646275104  0.7623385333834  0.2642042455530 1.0
C      1  0.5565381660110  0.2250677977091  0.6640939127790 1.0
C      1  0.4552218939774  0.2267052021804  0.3236187256435 1.0
C      1  0.5435289711873  0.7753737943988  0.7551654765940 1.0
C      1  0.4550803795874  0.7602733342294  0.2578525707432 1.0
C      1  0.2795672237730  0.6505194701614  0.6999261303181 1.0
C      1  0.7805776614993  0.5772153763215  0.3093898067885 1.0
C      1  0.2873483150625  0.3686501586586  0.6983647046625 1.0
C      1  0.7349789338814  0.3386640085676  0.3051544549483 1.0
C      1  0.7047480996800  0.6198864366654  0.7172788628633 1.0
C      1  0.2584189722643  0.6314885672301  0.2981540696991 1.0
C      1  0.7398586236962  0.3558117606204  0.6829028168989 1.0
C      1  0.2579171647922  0.3565704701479  0.3141400387770 1.0
C      1  0.6329386194856  0.5598930051578  0.8214177881951 1.0
C      1  0.3048051100917  0.5894516711716  0.1890452167506 1.0
C      1  0.7187457889732  0.3607871166226  0.8057921658766 1.0
C      1  0.2944007209993  0.3789023506735  0.2042586894753 1.0
C      1  0.3139478999013  0.5989667283881  0.8218516421448 1.0
C      1  0.7205063971158  0.5751645257865  0.1847706030108 1.0
C      1  0.3313394266017  0.4119247414413  0.8021005053282 1.0
C      1  0.7015239251433  0.3519907127924  0.1795969826619 1.0
C      1  0.4169018522697  0.7943902024251  0.6577082174900 1.0
C      1  0.5946424891754  0.7987078065716  0.3396160974510 1.0
C      1  0.4049327682752  0.2054439400055  0.6027978764527 1.0
C      1  0.6123435956418  0.2058168105107  0.3936353142206 1.0
C      1  0.5849855138046  0.7856003010734  0.6655306083641 1.0
C      1  0.3944584217366  0.7907939983181  0.3257308152128 1.0
C      1  0.6175501518300  0.2008436004023  0.5935971390446 1.0
C      1  0.3801153881873  0.2083282724824  0.3817221006291 1.0
C      1  0.2029483866108  0.5544931159676  0.4243638556609 1.0
C      1  0.7917087123091  0.5536394342434  0.5810444325963 1.0
C      1  0.2007465376491  0.4657464642955  0.4248187955224 1.0
C      1  0.7977434734643  0.4664536617095  0.5757311013905 1.0
C      1  0.7883947217231  0.5738456439706  0.4097078858105 1.0
C      1  0.2165635196035  0.5579649477028  0.5763322461281 1.0
C      1  0.7960291597116  0.4740919190331  0.4209827229751 1.0
C      1  0.2144109921807  0.4691789729180  0.5821542621970 1.0
C      1  0.7908721906318  0.6323840355332  0.2336186746799 1.0
C      1  0.3128883653954  0.6878890481047  0.7806353175530 1.0
C      1  0.7472812867120  0.2797303316026  0.2320854104300 1.0
C      1  0.2952798299713  0.3228944306473  0.7817903096164 1.0
C      1  0.2628039174059  0.6733875518071  0.2093434102493 1.0
C      1  0.6548306002230  0.6510819097613  0.7920808641163 1.0
C      1  0.2473920574201  0.3006235903007  0.2366081077818 1.0
C      1  0.7759602078787  0.3014241141744  0.7544655625910 1.0
C      1  0.4506605529420  0.3254186376432  0.2956689272231 1.0
C      1  0.5659992729013  0.3217284163044  0.6916991681250 1.0
C      1  0.4547412472084  0.6576852942489  0.2510890029404 1.0
C      1  0.5835658551990  0.7115630136351  0.8131759486044 1.0
C      1  0.5517591998467  0.3260449029175  0.2971799528640 1.0
C      1  0.4645133387714  0.3274599557000  0.6977345532812 1.0
C      1  0.5544948383389  0.6594921908947  0.2594214385062 1.0
C      1  0.3934193017389  0.7346830191804  0.8088413656210 1.0
C      1  0.6870051713882  0.1267040889677  0.6127105110637 1.0
C      1  0.2928402459313  0.1698632695239  0.3498272278477 1.0
C      1  0.6084344342254  0.8582606677781  0.6172396497593 1.0
C      1  0.3751780105664  0.8685741697529  0.3702670583079 1.0
C      1  0.3826520000456  0.1270135253750  0.5646900191070 1.0
C      1  0.6853127016940  0.1384126975544  0.3675721025571 1.0
C      1  0.3881442672135  0.8647519445768  0.6081567818294 1.0
C      1  0.6074750672254  0.8780495639462  0.3815004076083 1.0
C      1  0.6428168009147  0.1188108866282  0.5357224167706 1.0
C      1  0.3365781739165  0.1174843580590  0.4076328024181 1.0
C      1  0.6203121288122  0.9029225700213  0.5467314650556 1.0
C      1  0.3625985433766  0.9027064060988  0.4460232317852 1.0
C      1  0.3546756624318  0.0945438542936  0.4924345409872 1.0
C      1  0.6408281200024  0.1224342934186  0.4439450141329 1.0
C      1  0.3702365233145  0.8989509167576  0.5334636784221 1.0
C      1  0.6186106105120  0.9082851354624  0.4595879228311 1.0
C      1  0.1652108938087  0.6357055579644  0.5450711850548 1.0
C      1  0.8308583446068  0.6455582035798  0.4666747941080 1.0
C      1  0.1562817200578  0.3958466439649  0.5534711378176 1.0
C      1  0.8558128481053  0.4053018764560  0.4453281892486 1.0
C      1  0.8442607153926  0.6326141365718  0.5581697444925 1.0
C      1  0.1427674332369  0.6302971742981  0.4517184172331 1.0
C      1  0.8637773987268  0.4002349793504  0.5439209724166 1.0
C      1  0.1396732679067  0.3960390975257  0.4597377870771 1.0
C      1  0.6156724545336  0.4621955610862  0.4036922436637 1.0
C      1  0.4004190095389  0.4567690414812  0.5725920633498 1.0
C      1  0.6107621016889  0.5548910672643  0.4025043564865 1.0
C      1  0.3984456031204  0.5541351613754  0.5729436926294 1.0
C      1  0.3878818013126  0.4553364273461  0.4145422779998 1.0
C      1  0.6153614267589  0.4528661820562  0.5809926326905 1.0
C      1  0.3920352875449  0.5530299739418  0.4083808649208 1.0
C      1  0.6076218178597  0.5438409861569  0.5884574026926 1.0
C      1  0.4409307293178  0.3690191786440  0.3918030079776 1.0
C      1  0.5647163668258  0.3662142903652  0.5946843256529 1.0
C      1  0.4410431064238  0.6321745585627  0.3572956228673 1.0
C      1  0.5496240472825  0.6234156772411  0.6107110845016 1.0
C      1  0.5606046877316  0.3731824889871  0.3916415995899 1.0
C      1  0.4531029821918  0.3683328084828  0.5983942622545 1.0
C      1  0.5567110949742  0.6343379774675  0.3624848873967 1.0
C      1  0.4531481133596  0.6304691504018  0.6068130959811 1.0
C      1  0.7352312584112  0.4154341971254  0.2469089187134 1.0
C      1  0.2853507605077  0.4650722423137  0.7355463813162 1.0
C      1  0.7449515234455  0.5073392225927  0.2515607477541 1.0
C      1  0.2766257200028  0.5566166622593  0.7427778651519 1.0
C      1  0.2634828273068  0.4456654785576  0.2687056624799 1.0
C      1  0.7202769942658  0.4349810137918  0.7363303630620 1.0
C      1  0.2694912122868  0.5366674865766  0.2633250900739 1.0
C      1  0.6960276555375  0.5239742575077  0.7505060850773 1.0
C      1  0.6954218635234  0.5844594389046  0.5602247701417 1.0
C      1  0.3007584774194  0.5904173153168  0.4443804598006 1.0
C      1  0.7072855241024  0.4260440169625  0.5473625334971 1.0
C      1  0.2941174064805  0.4270782171269  0.4490611265680 1.0
C      1  0.3078243914669  0.5937162335115  0.5501697989013 1.0
C      1  0.6885803517866  0.5986435224544  0.4541348481381 1.0
C      1  0.3027749926658  0.4268540150008  0.5525765472129 1.0
C      1  0.7063636981524  0.4299739183723  0.4377286571491 1.0
C      1  0.6993870556817  0.6672437830258  0.6223880373997 1.0
C      1  0.2872508791134  0.6756435574651  0.3927274266265 1.0
C      1  0.7215872810100  0.3328324329705  0.5845259488600 1.0
C      1  0.2828970514579  0.3338348688581  0.4136258899666 1.0
C      1  0.3017698037926  0.6813016963436  0.6028579234378 1.0
C      1  0.6837532591577  0.6981787559813  0.4408833414851 1.0
C      1  0.2957346626570  0.3358658957726  0.5971553679210 1.0
C      1  0.7189194726447  0.3341668775052  0.4036868206968 1.0
C      1  0.3773383951272  0.7104938505398  0.3756221980527 1.0
C      1  0.6050991697365  0.6980331271951  0.6257081455263 1.0
C      1  0.3750899062122  0.2941861177867  0.4408658573883 1.0
C      1  0.6313575087745  0.2932444439331  0.5473210771862 1.0
C      1  0.6111571752344  0.7172134352298  0.3920332963401 1.0
C      1  0.3990040795168  0.7069534195497  0.6159294926072 1.0
C      1  0.6292576875042  0.2965615991985  0.4406097713612 1.0
C      1  0.3831390814709  0.2941180860104  0.5567463478530 1.0
C      1  0.8093059373237  0.3152777339032  0.5389507721172 1.0
C      1  0.2016879386173  0.3126378113256  0.4674288370464 1.0
C      1  0.7752092790579  0.7085404523862  0.5705261351970 1.0
C      1  0.2132948715364  0.7045844759777  0.4564395620219 1.0
C      1  0.2053161582024  0.3069431189679  0.5609886442314 1.0
C      1  0.8073464489490  0.3159448094642  0.4461991797343 1.0
C      1  0.2190752434893  0.7197169779599  0.5509255285612 1.0
C      1  0.7678095784635  0.7298500644744  0.4793215804593 1.0
C      1  0.4561963344713  0.5153208438028  0.8630408894976 1.0
C      1  0.4010956669368  0.4718440923101  0.1117169946419 1.0
C      1  0.4426037435691  0.5084314305061  0.4884738277481 1.0
END
