TITL C-29086-4869-25 -7.333 3375.00 -1330.74651426 0 0 158 (C1) n - 1
REM
REM Run started: at 2020.12.28 01:02:47 in /gpfs/home/chem/mssmkc/CARBON/AIRSS/Generating-Clusters/Str-Search/Higher-Symm/C100-200
REM VASP from code version vasp.5.4.4.18Apr17-6-g9f103f2a35 (build Oct 11 2019 16:45:47) gamma-only
REM
REM
REM
REM
REM ./C.cell (533062f00bc710175b3da973d35f2034)
REM AIRSS Version 0.9.1 bugfix July 2018 build 013d7b7c2542+ Fri, 06 Jul 2018 19:26:36 +0100
REM compiler GCC version 6.3.0
REM options -cpp -iprefix /gpfs/warwick/csc/orac/software/Core/GCCcore/6.3.0/bin/../lib/gcc/x86_64-pc-linux-gnu/6.3.0/ -mtune=generic -march=x86-64 -g -O0
REM seed 1626264027 636745843 -46487499 -1603424555 -145372143 -1835711647 -15247264 -1906567572 43705281 279508157 -25193902 -1308784858
REM
REM C.POTCAR (d86ddea03c3ceb6dc662c8ad6801f873)
REM 
CELL 1.54180   15.00000   15.00000   15.00000   90.00000   90.00000   90.00000
LATT -1
SFAC C  
C      1  0.7962530861379  0.5499126308187  0.6268567612034 1.0
C      1  0.8185871122099  0.5584376733822  0.4468386418028 1.0
C      1  0.7620801264135  0.5517422923537  0.2865153479059 1.0
C      1  0.6179261169728  0.5504041095979  0.1862737730531 1.0
C      1  0.4518172468356  0.5613544380605  0.1722373827103 1.0
C      1  0.2919911838380  0.5579718050601  0.2340659793230 1.0
C      1  0.1807239190459  0.5366892436683  0.4417352344935 1.0
C      1  0.1901386998467  0.5503463748278  0.6124485602530 1.0
C      1  0.3593127303975  0.5226412735485  0.7641863349966 1.0
C      1  0.5196431156606  0.5383378259293  0.8114233248722 1.0
C      1  0.6794617516693  0.5477887643808  0.7542703141238 1.0
C      1  0.2919677331572  0.4027153909396  0.2537075338788 1.0
C      1  0.1837746482724  0.3428199753580  0.4846139093279 1.0
C      1  0.2338930062501  0.3305185105604  0.6783572619469 1.0
C      1  0.3668479261092  0.3347092937123  0.7891343705875 1.0
C      1  0.5281880943337  0.3506446952065  0.8166748663477 1.0
C      1  0.6861034454353  0.3601442542581  0.7517934243902 1.0
C      1  0.7805228608376  0.3626235745610  0.6188548378461 1.0
C      1  0.7850875705416  0.3603738648526  0.4508049489194 1.0
C      1  0.7449222904392  0.3691731048228  0.2995637212315 1.0
C      1  0.6050645231947  0.3588886465564  0.2289239235027 1.0
C      1  0.4371941997592  0.3652096343206  0.2002590932605 1.0
C      1  0.5963479864052  0.6906096522070  0.7857588176314 1.0
C      1  0.7340504141151  0.6932010342455  0.6913183416845 1.0
C      1  0.7931770105849  0.6917094509802  0.5398342324660 1.0
C      1  0.7681244535399  0.6985797693560  0.3728777902974 1.0
C      1  0.6899753143408  0.6882972143956  0.2377954740688 1.0
C      1  0.5384762769982  0.7009130715915  0.2060812493777 1.0
C      1  0.3728134166192  0.6988516872255  0.2297765495238 1.0
C      1  0.2624287122152  0.6816282411009  0.3505080644046 1.0
C      1  0.2393281616866  0.6776501982070  0.5205218658307 1.0
C      1  0.3098070375576  0.6714631938720  0.6637973446278 1.0
C      1  0.4362548238096  0.6810636979619  0.7799532808676 1.0
C      1  0.3178216514597  0.3318187884224  0.3051689877482 1.0
C      1  0.2417937215235  0.2687388051247  0.5202847218951 1.0
C      1  0.2673467982804  0.2726879681192  0.6105994157315 1.0
C      1  0.4115671283280  0.2580514799807  0.7595152066430 1.0
C      1  0.5049672970602  0.2687150813992  0.7739581125602 1.0
C      1  0.6809033931254  0.2784654308434  0.7053421886483 1.0
C      1  0.7363898198127  0.2796002155377  0.6269087396930 1.0
C      1  0.7220041037503  0.2858845157676  0.4275647231778 1.0
C      1  0.6992924728925  0.2936530417898  0.3350098881636 1.0
C      1  0.6135536385239  0.2837670946893  0.2911820521216 1.0
C      1  0.4054431122084  0.2978132225898  0.2681511806399 1.0
C      1  0.1793465491149  0.4000010880602  0.6424770854577 1.0
C      1  0.2015657496130  0.4847639966855  0.6803614909996 1.0
C      1  0.3648312757684  0.4689235598535  0.6731431138132 1.0
C      1  0.5184806701656  0.5299435618817  0.7070674674645 1.0
C      1  0.6131716068860  0.5335550993733  0.6767812087456 1.0
C      1  0.6858857531097  0.5193947099718  0.5156161709700 1.0
C      1  0.6537057328101  0.4810989235861  0.4305797562161 1.0
C      1  0.6127286414787  0.5270751027946  0.3618317612877 1.0
C      1  0.5268234881175  0.4922571837436  0.3351694341386 1.0
C      1  0.3462789135079  0.5030434360917  0.3645601587216 1.0
C      1  0.2627791830322  0.4849043574485  0.2993164907653 1.0
C      1  0.3146252551936  0.7637884352691  0.6289505341897 1.0
C      1  0.4649862412368  0.7652831615811  0.7436339489713 1.0
C      1  0.5607657844497  0.7717513274352  0.7488680547325 1.0
C      1  0.7195787008831  0.7763969891408  0.6480632400332 1.0
C      1  0.7581017568712  0.7763606806027  0.5596082852689 1.0
C      1  0.7082902465410  0.7766721725764  0.3648057489167 1.0
C      1  0.6607522168791  0.7668910015548  0.2806970355345 1.0
C      1  0.5670122629074  0.7781173592700  0.2639599339661 1.0
C      1  0.3681060554027  0.7758354204506  0.2833705212848 1.0
C      1  0.3014538272515  0.7660341796209  0.3545188097506 1.0
C      1  0.2784474822692  0.7611232253441  0.5408576997412 1.0
C      1  0.4258073853888  0.8268857314631  0.3389388275748 1.0
C      1  0.3576157900072  0.8242177206052  0.4135202404467 1.0
C      1  0.3454580184343  0.8228029455677  0.5058159887632 1.0
C      1  0.3886874894109  0.8204303069383  0.6032367464258 1.0
C      1  0.4631870625702  0.8215967415822  0.6631754596561 1.0
C      1  0.5654178946107  0.8260550275158  0.6680053166905 1.0
C      1  0.6444459407441  0.8311623783115  0.6175573508548 1.0
C      1  0.6871884162887  0.8302450666274  0.5234599881344 1.0
C      1  0.6639974041278  0.8316069956753  0.4308679285692 1.0
C      1  0.5730053777454  0.8592775030078  0.4065427703464 1.0
C      1  0.5205981452916  0.8317217969533  0.3288709907035 1.0
C      1  0.2863081156932  0.3671344012462  0.7515086928564 1.0
C      1  0.4393200111825  0.3938032863693  0.8288411445459 1.0
C      1  0.6138032507950  0.4003785952286  0.8074568767018 1.0
C      1  0.7560072760240  0.4106447553739  0.7028397817614 1.0
C      1  0.8001837341672  0.4040834691852  0.5342984731648 1.0
C      1  0.7919708242357  0.4138187424206  0.3687166319416 1.0
C      1  0.6885135409377  0.4109375935374  0.2361829083372 1.0
C      1  0.5253455886086  0.4034122299076  0.1915198268095 1.0
C      1  0.3626520067412  0.4245826451560  0.1921381790596 1.0
C      1  0.1824001545274  0.3789424888465  0.3972477919978 1.0
C      1  0.1577950889162  0.4091972669090  0.5490996501642 1.0
C      1  0.4970964205763  0.6042650252933  0.6417851507937 1.0
C      1  0.5858837914574  0.6015782061828  0.6113561942254 1.0
C      1  0.6348700697985  0.6053936057081  0.5316544079891 1.0
C      1  0.5821229976698  0.6492186936059  0.4662765614132 1.0
C      1  0.5737481112932  0.6117812421495  0.3801335313771 1.0
C      1  0.4868545119780  0.5794462561574  0.3531134150336 1.0
C      1  0.3999043433565  0.5836985496548  0.3752682616385 1.0
C      1  0.3305985497620  0.5645791736350  0.4419246585761 1.0
C      1  0.3464254961752  0.5031806971315  0.5184745190671 1.0
C      1  0.3651468521584  0.5318053598012  0.6017099596805 1.0
C      1  0.3978710810847  0.6175580168211  0.6358647837524 1.0
C      1  0.5473643518102  0.1237884565571  0.3457926149182 1.0
C      1  0.4618695682527  0.0868560381881  0.3595603154608 1.0
C      1  0.3978966895741  0.0853479804726  0.4129184018758 1.0
C      1  0.3520403709768  0.1152366079143  0.4879236711195 1.0
C      1  0.3762141709693  0.0761553199192  0.5695701854378 1.0
C      1  0.4042976446910  0.1117694825026  0.6522148487243 1.0
C      1  0.4540676289239  0.0426551898964  0.6137899008227 1.0
C      1  0.5378049152653  0.0128115604517  0.5930129724972 1.0
C      1  0.5989223626934  0.0255714636907  0.5367596614396 1.0
C      1  0.6400351819246  0.0377278845419  0.4589468929480 1.0
C      1  0.6123681700299  0.0765939298472  0.3889575902825 1.0
C      1  0.7870629228530  0.6419311237711  0.6244233554960 1.0
C      1  0.8026334706810  0.6529299148051  0.4514126224118 1.0
C      1  0.7543096781583  0.6455227651030  0.2922081222362 1.0
C      1  0.6171734491294  0.6448925120731  0.1943736526786 1.0
C      1  0.4537167910392  0.6587230141811  0.1938579780330 1.0
C      1  0.2987352768638  0.6447210646571  0.2641051552719 1.0
C      1  0.2410751602660  0.6227617123397  0.4352235395767 1.0
C      1  0.2357154377958  0.6312338274825  0.6048215535003 1.0
C      1  0.3653543132047  0.6240248583082  0.7361268908795 1.0
C      1  0.5162106113393  0.6388763595516  0.8120832289849 1.0
C      1  0.6781840590781  0.6499421181831  0.7567899609384 1.0
C      1  0.4326922539801  0.4017717544261  0.6408828767916 1.0
C      1  0.5108472972512  0.4379256279668  0.6654970157425 1.0
C      1  0.6006529867245  0.4437679384989  0.6367603418735 1.0
C      1  0.6380099970858  0.4388179115454  0.5559002875020 1.0
C      1  0.6102461695648  0.4105962102833  0.4727586020905 1.0
C      1  0.5384130305459  0.3600578852668  0.4367196230902 1.0
C      1  0.4907147112210  0.4191631289488  0.3753803920171 1.0
C      1  0.3983376084688  0.4260647180574  0.3972671400798 1.0
C      1  0.3439702912958  0.3462382987854  0.4031407835879 1.0
C      1  0.3613860870414  0.4075685791552  0.4930593028500 1.0
C      1  0.4135443017772  0.3429976769295  0.5612487845482 1.0
C      1  0.7591134613652  0.5032076555984  0.7047287612458 1.0
C      1  0.7948853561263  0.5065706176519  0.5333073877358 1.0
C      1  0.8038829737978  0.5083450670206  0.3642097684372 1.0
C      1  0.6956844237354  0.5047319031189  0.2267504088475 1.0
C      1  0.5323108741042  0.5031932189212  0.1744111619497 1.0
C      1  0.3665062046306  0.5189656710684  0.1827552466083 1.0
C      1  0.1918182238651  0.4687576750614  0.3727810272816 1.0
C      1  0.1606858657414  0.5044206637076  0.5284607203603 1.0
C      1  0.2802055820125  0.4653465994109  0.7379722805252 1.0
C      1  0.4332312363741  0.4862893937006  0.8243505587424 1.0
C      1  0.6144424792047  0.4936077075428  0.8185970467376 1.0
C      1  0.5627068259778  0.2585261367231  0.4431590400989 1.0
C      1  0.5446626008994  0.2268798599817  0.3441930782502 1.0
C      1  0.4474753656437  0.2516100343189  0.3350254304722 1.0
C      1  0.4004781933589  0.2678210660220  0.4262648316585 1.0
C      1  0.3361957289951  0.2161348876314  0.4949455611610 1.0
C      1  0.3643289010621  0.2555727875358  0.5914295238669 1.0
C      1  0.4224116310859  0.2082488745728  0.6693292906867 1.0
C      1  0.5252408044559  0.2260321483348  0.6893395715058 1.0
C      1  0.6099205272912  0.2301085927833  0.6561146893875 1.0
C      1  0.6662754849338  0.2364993801704  0.5747791135451 1.0
C      1  0.6531956461342  0.2481089496452  0.4843598793666 1.0
C      1  0.5110189366510  0.7003152259545  0.4937372184789 1.0
C      1  0.4882695912688  0.7804670840227  0.5123662662789 1.0
C      1  0.5248171809764  0.8573185479316  0.4846609381079 1.0
C      1  0.4775711723886  0.3006065181802  0.4874551991556 1.0
END
