TITL C-29086-3345-67 -3.6 3375.00 -635.66530621 0 0 76 (C1) n - 1
REM
REM Run started: at 2020.12.20 04:48:32 in /gpfs/home/chem/mssmkc/CARBON/AIRSS/Generating-Clusters/Str-Search/Higher-Symm/C4-100
REM VASP from code version vasp.5.4.4.18Apr17-6-g9f103f2a35 (build Oct 11 2019 16:45:47) gamma-only
REM
REM
REM
REM
REM ./C.cell (6bd13a13d554368a30d355f37ece5b26)
REM AIRSS Version 0.9.1 bugfix July 2018 build 013d7b7c2542+ Fri, 06 Jul 2018 19:26:36 +0100
REM compiler GCC version 6.3.0
REM options -cpp -iprefix /gpfs/warwick/csc/orac/software/Core/GCCcore/6.3.0/bin/../lib/gcc/x86_64-pc-linux-gnu/6.3.0/ -mtune=generic -march=x86-64 -g -O0
REM seed -527769522 2060637433 1647140045 566264437 -1996121273 -1167727319 30003875 938463682 24197776 -913640027 272692075 1374942443
REM
REM C.POTCAR (d86ddea03c3ceb6dc662c8ad6801f873)
REM 
CELL 1.54180   15.00000   15.00000   15.00000   90.00000   90.00000   90.00000
LATT -1
SFAC C  
C      1  0.3836511756407  0.5466342045953  0.3182660335951 1.0
C      1  0.3163520766749  0.3963512848623  0.5477413525419 1.0
C      1  0.5514706247244  0.3166828057817  0.3836998391363 1.0
C      1  0.6129132877622  0.5437253201835  0.6869586263387 1.0
C      1  0.3847736316588  0.4564616862530  0.6868001969030 1.0
C      1  0.6151077973910  0.4539094281934  0.3183190447336 1.0
C      1  0.6861155442477  0.3848208531712  0.4534334396301 1.0
C      1  0.3124170608030  0.6156020141329  0.4532929474601 1.0
C      1  0.6815858522568  0.6040100220487  0.5480707849994 1.0
C      1  0.4587620467051  0.3268626256138  0.6147478039097 1.0
C      1  0.5391485674456  0.6736765708050  0.6151644847825 1.0
C      1  0.4471074340772  0.6839353709864  0.3838538950542 1.0
C      1  0.3129810844888  0.5492630257095  0.3857609279619 1.0
C      1  0.5479313517969  0.3872798504962  0.3176859424399 1.0
C      1  0.4078768173842  0.3518024506373  0.5321356310574 1.0
C      1  0.6842521742779  0.5434072174446  0.6177043940926 1.0
C      1  0.6856971304278  0.4512270945245  0.3859534217605 1.0
C      1  0.3134906472903  0.4567771596718  0.6174386366335 1.0
C      1  0.4530949956559  0.3900823809862  0.6869685175774 1.0
C      1  0.4508294225892  0.6133026863088  0.3178557890863 1.0
C      1  0.5446088855531  0.6101670283128  0.6871275964302 1.0
C      1  0.6174335233823  0.3154938873581  0.4522319211929 1.0
C      1  0.5902876522539  0.6490409468768  0.5325292467217 1.0
C      1  0.3809765231995  0.6850207705427  0.4522589271081 1.0
C      1  0.5341009375754  0.3966569198006  0.7410843808330 1.0
C      1  0.7368700633911  0.5333169909793  0.3969527331198 1.0
C      1  0.3947661221707  0.7348421856468  0.5345953717838 1.0
C      1  0.4649494097615  0.3971446190719  0.2667571075684 1.0
C      1  0.5338369529140  0.6034977948990  0.2670049421600 1.0
C      1  0.4634368712589  0.6035518051329  0.7410886465064 1.0
C      1  0.2613853072610  0.5382791053592  0.6068366289685 1.0
C      1  0.7364937677345  0.4619881119841  0.6072247463418 1.0
C      1  0.2617000849952  0.4672340733278  0.3965269470853 1.0
C      1  0.5924298611817  0.7227111531868  0.4628777398040 1.0
C      1  0.4060311625367  0.2782114560626  0.4624362338400 1.0
C      1  0.6033128936920  0.2656710444324  0.5345005719536 1.0
C      1  0.7362477291725  0.3953414692238  0.5372857688084 1.0
C      1  0.3931787769940  0.5364553388848  0.7384440957204 1.0
C      1  0.5283718403746  0.7350139823201  0.3947318135818 1.0
C      1  0.2636816838085  0.4020611972146  0.4669478119640 1.0
C      1  0.2620005172707  0.6049880090366  0.5369493432122 1.0
C      1  0.7344789177331  0.5984361287011  0.4674543135663 1.0
C      1  0.6035054735112  0.5355928577457  0.2671458854286 1.0
C      1  0.6043644263601  0.4637303895865  0.7385861847084 1.0
C      1  0.3953073236384  0.4650560770482  0.2669524000038 1.0
C      1  0.4643989488847  0.7313803376901  0.6046661181900 1.0
C      1  0.4701407060968  0.2657013379106  0.3944610148594 1.0
C      1  0.5334738732285  0.2691161847366  0.6043158954247 1.0
C      1  0.3974298533033  0.3265586452038  0.2631674718001 1.0
C      1  0.2610681846132  0.3972082408063  0.3281102903488 1.0
C      1  0.3303591363838  0.2665224349011  0.4009957465570 1.0
C      1  0.6013693344352  0.3259086479952  0.7396620800440 1.0
C      1  0.3961246139925  0.6742441067049  0.7396048201266 1.0
C      1  0.6012849523252  0.6741152244717  0.2635296293258 1.0
C      1  0.7387016866041  0.3923748428793  0.6763228788783 1.0
C      1  0.2589360987863  0.6078589498005  0.6759476945168 1.0
C      1  0.7375994381645  0.6034658821879  0.3286401066552 1.0
C      1  0.6707100649768  0.2613239250230  0.6041816033494 1.0
C      1  0.3271687435652  0.7390230691622  0.6040762125621 1.0
C      1  0.6681456982235  0.7341326983831  0.4014703953055 1.0
C      1  0.2639960750475  0.3294464951522  0.4004391181172 1.0
C      1  0.3265305831898  0.3966599678631  0.2637744633391 1.0
C      1  0.3981258744960  0.2614338785167  0.3277463125028 1.0
C      1  0.7382782604519  0.3240447152291  0.6049749224284 1.0
C      1  0.7344560655305  0.6711596802551  0.4010113273524 1.0
C      1  0.2596382981511  0.6762506189081  0.6046466705662 1.0
C      1  0.6734101834483  0.3935587937079  0.7402779995728 1.0
C      1  0.6722393334141  0.6040314824702  0.2641517199348 1.0
C      1  0.3241138716710  0.6065922755428  0.7400624849141 1.0
C      1  0.6008844560427  0.2608860760618  0.6745468083617 1.0
C      1  0.6004319486028  0.7392304700662  0.3281155169331 1.0
C      1  0.3967088394428  0.7394593495005  0.6746706443200 1.0
C      1  0.5401714102106  0.5675032307956  0.4971047396128 1.0
C      1  0.4530293937608  0.5237265147553  0.5082455983392 1.0
C      1  0.5448875075257  0.4775392783872  0.5049217462591 1.0
C      1  0.4573893344079  0.4339570497901  0.4969883013969 1.0
END
