TITL C-29416-108-1 -8.244 3375.00 -1487.77789390 0 0 180 (C1) n - 1
REM
REM Run started: at 2020.12.25 13:06:03 in /gpfs/home/chem/mssmkc/CARBON/AIRSS/Generating-Clusters/Str-Search/Higher-Symm/Only-C180
REM VASP from code version vasp.5.4.4.18Apr17-6-g9f103f2a35 (build Oct 11 2019 16:45:47) gamma-only
REM
REM
REM
REM
REM ./C.cell (73b75853f6e4503fb4b57bac71549d7d)
REM AIRSS Version 0.9.1 bugfix July 2018 build 013d7b7c2542+ Fri, 06 Jul 2018 19:26:36 +0100
REM compiler GCC version 6.3.0
REM options -cpp -iprefix /gpfs/warwick/csc/orac/software/Core/GCCcore/6.3.0/bin/../lib/gcc/x86_64-pc-linux-gnu/6.3.0/ -mtune=generic -march=x86-64 -g -O0
REM seed -1842229906 -1393069546 727906590 -124705190 -2047588872 1901939010 800799637 -1790246848 2024734783 -1740762839 -737077627 -194612821
REM
REM C.POTCAR (d86ddea03c3ceb6dc662c8ad6801f873)
REM 
CELL 1.54180   15.00000   15.00000   15.00000   90.00000   90.00000   90.00000
LATT -1
SFAC C  
C      1  0.3241137121489  0.8203830575854  0.3287424204308 1.0
C      1  0.2092338913416  0.6686583338028  0.3242765029913 1.0
C      1  0.1335243263974  0.5247474226393  0.2876008684447 1.0
C      1  0.2421628675678  0.2464810981676  0.3566660423215 1.0
C      1  0.3729863409921  0.1882057915231  0.2911070886886 1.0
C      1  0.5392453562080  0.1626460148227  0.3150217601151 1.0
C      1  0.6869215210927  0.2125361767976  0.3319781498022 1.0
C      1  0.8688521339695  0.3900745302595  0.3343398924099 1.0
C      1  0.7984177842176  0.6623062949340  0.3340615385613 1.0
C      1  0.7037740015343  0.7862025550577  0.2729122343204 1.0
C      1  0.5794175456286  0.8469535808713  0.3304127279829 1.0
C      1  0.5909979492062  0.3592018898165  0.1853089242239 1.0
C      1  0.6552972857144  0.4326442086849  0.1982046278976 1.0
C      1  0.6129889677130  0.5230143569209  0.1843743056232 1.0
C      1  0.6402562809451  0.6179244715530  0.1755492794568 1.0
C      1  0.5590426439952  0.6795172989228  0.1709149840842 1.0
C      1  0.4847569537872  0.6193206963335  0.1751622334667 1.0
C      1  0.3890832867171  0.6248710291407  0.1716061166195 1.0
C      1  0.3300518804150  0.5436152290542  0.1636546322258 1.0
C      1  0.3250169796784  0.4518986007417  0.1684839915424 1.0
C      1  0.3814765823662  0.3685817488565  0.1735180534493 1.0
C      1  0.4714472618333  0.3396159233247  0.1705665656986 1.0
C      1  0.6657948158062  0.5759784068957  0.4674783887654 1.0
C      1  0.5978298725138  0.6536644323241  0.4692047916210 1.0
C      1  0.5043278378532  0.6559074435437  0.5069664785503 1.0
C      1  0.4136606400006  0.6417843963406  0.4695846920281 1.0
C      1  0.3415802254000  0.5663256437587  0.4683387172938 1.0
C      1  0.3455016214703  0.4634430258276  0.4810507930255 1.0
C      1  0.3929389932821  0.3909213857144  0.5248106812017 1.0
C      1  0.4525539947884  0.3219846203590  0.4881254979724 1.0
C      1  0.5556076936594  0.3281448824517  0.4912521178902 1.0
C      1  0.6160786702428  0.4009328464739  0.5265475924245 1.0
C      1  0.6662706174571  0.4735702061717  0.4854050819566 1.0
C      1  0.2544313993153  0.7020456304986  0.6581311918368 1.0
C      1  0.1847245033712  0.5372878896160  0.6593968552595 1.0
C      1  0.2091025286299  0.3564824688881  0.6645849634362 1.0
C      1  0.3377610610479  0.2339998079708  0.6947629317992 1.0
C      1  0.5109045779080  0.1820525197581  0.6883396477408 1.0
C      1  0.6818657146137  0.2443815460287  0.6920836393219 1.0
C      1  0.8015145397969  0.3764902252734  0.6733014384000 1.0
C      1  0.8165982485188  0.5559618477723  0.6727918838670 1.0
C      1  0.7392033465537  0.7156748738613  0.6691009984842 1.0
C      1  0.5858715250823  0.8048713141011  0.6756656850322 1.0
C      1  0.4016291583124  0.7991660603887  0.6702670721261 1.0
C      1  0.7510992480033  0.4229181539301  0.2344419189572 1.0
C      1  0.8012662945674  0.5018682354120  0.2618215775581 1.0
C      1  0.7174636510964  0.6389957484547  0.2205363946047 1.0
C      1  0.5534719419102  0.7710075572346  0.2018514557380 1.0
C      1  0.4991909308282  0.7968255786101  0.2894324853893 1.0
C      1  0.3170596216977  0.6801099872416  0.2038403362982 1.0
C      1  0.2612964887294  0.5978574835867  0.2098549748575 1.0
C      1  0.2484722249970  0.4039011108099  0.2116347356883 1.0
C      1  0.3022664401870  0.3232903828000  0.2177008929293 1.0
C      1  0.4965387464611  0.2509781796483  0.1958916644290 1.0
C      1  0.5902529812698  0.2644171529956  0.2047029901716 1.0
C      1  0.7155126493898  0.2186312703001  0.4933778243411 1.0
C      1  0.8253466000911  0.3468123702430  0.4898551044124 1.0
C      1  0.8463620075946  0.5800749603759  0.4707283518836 1.0
C      1  0.7619623092002  0.7420291442079  0.4793995720678 1.0
C      1  0.6118758838089  0.8443475836903  0.4885907955538 1.0
C      1  0.3824861127947  0.8356875958031  0.4805381519011 1.0
C      1  0.2336060420493  0.7279703451470  0.4707014432455 1.0
C      1  0.1570149765332  0.5679700226932  0.4545010373395 1.0
C      1  0.2118057622989  0.3016712887800  0.4834540839447 1.0
C      1  0.3208630887098  0.1768590906471  0.5125692842556 1.0
C      1  0.4919964503184  0.1461036685085  0.4879573528683 1.0
C      1  0.5905349086021  0.6412497520976  0.8392438650667 1.0
C      1  0.4950800118156  0.6652371963866  0.8323910464477 1.0
C      1  0.4010873634492  0.6364770230169  0.8336423762143 1.0
C      1  0.3308593366264  0.5607292115342  0.8369432808102 1.0
C      1  0.3085629861136  0.4717458602430  0.8467657394028 1.0
C      1  0.3432574912782  0.3770775884202  0.8565696417478 1.0
C      1  0.4278637363780  0.3398340531466  0.8644776243922 1.0
C      1  0.5801298061784  0.3449718470879  0.8654445875842 1.0
C      1  0.6628177591486  0.3862530809343  0.8606602000573 1.0
C      1  0.6935527537173  0.4821259550252  0.8546435486102 1.0
C      1  0.6655876973715  0.5694945231820  0.8444758127468 1.0
C      1  0.5776268611848  0.2644576430693  0.5727508074685 1.0
C      1  0.6888737453712  0.3468544415353  0.5766320462329 1.0
C      1  0.7460156511141  0.4719130944689  0.5593916756542 1.0
C      1  0.7226201065340  0.6069774320871  0.5543670601042 1.0
C      1  0.6310129612171  0.7069505889736  0.5578480185247 1.0
C      1  0.4981925840463  0.7457302086135  0.5580935394469 1.0
C      1  0.3685635946211  0.6976571134877  0.5509873931696 1.0
C      1  0.2806331464063  0.5931952058928  0.5471715124371 1.0
C      1  0.2594014323480  0.4541219644506  0.5451503495479 1.0
C      1  0.3252660768477  0.3319936472173  0.5748513360546 1.0
C      1  0.4407388569318  0.2619225535892  0.5767859531002 1.0
C      1  0.6101590640154  0.3029039414337  0.4155240846152 1.0
C      1  0.6703492959545  0.3561373533934  0.3740838511844 1.0
C      1  0.6811778346751  0.4519634397033  0.3911424091717 1.0
C      1  0.6955266282774  0.5412785901444  0.3703643186413 1.0
C      1  0.5930698657327  0.7011179109665  0.3807532279321 1.0
C      1  0.5065450648884  0.7145584541086  0.3481092667517 1.0
C      1  0.4263187338585  0.6826255481573  0.3813363104083 1.0
C      1  0.3098038813923  0.5405478627930  0.3746673317003 1.0
C      1  0.3563654817457  0.4527477773170  0.3789452143778 1.0
C      1  0.3292847390722  0.3589878113406  0.3766116778673 1.0
C      1  0.3963575414315  0.2973611197461  0.4059514230919 1.0
C      1  0.5924585977653  0.6400842959139  0.6238990436556 1.0
C      1  0.4996659579233  0.6556357411784  0.6102942385283 1.0
C      1  0.4067573971801  0.6326102178927  0.6199328759221 1.0
C      1  0.3473425433209  0.5638313407106  0.6182241499388 1.0
C      1  0.3309241464555  0.4737891151776  0.6256604784015 1.0
C      1  0.3840233299531  0.3938831641459  0.6272147910141 1.0
C      1  0.4622572546619  0.3384565191440  0.6427501632068 1.0
C      1  0.5515883663029  0.3402562761074  0.6427805797481 1.0
C      1  0.6250625653521  0.4019500468570  0.6297095752452 1.0
C      1  0.6718909692091  0.4854352870261  0.6317727981629 1.0
C      1  0.6540228345416  0.5741971977615  0.6226576384349 1.0
C      1  0.4271298942623  0.2158155865167  0.7362029625970 1.0
C      1  0.5922119685236  0.2219816321450  0.7341194405122 1.0
C      1  0.7470791590822  0.3108934228031  0.7269562730025 1.0
C      1  0.8088451903980  0.4661927425320  0.7165702884929 1.0
C      1  0.7751765046090  0.6349391485813  0.7157873996260 1.0
C      1  0.6591553594452  0.7545609214257  0.7160631843392 1.0
C      1  0.4925558575864  0.7999073738766  0.7168616063830 1.0
C      1  0.3298646684025  0.7454039347839  0.7078926703042 1.0
C      1  0.2212748211030  0.6187991555267  0.7032907904540 1.0
C      1  0.1991156087412  0.4477298020738  0.7043450767664 1.0
C      1  0.2659197851099  0.2957522384665  0.7235341668809 1.0
C      1  0.5538060449737  0.1559103212180  0.4123514429323 1.0
C      1  0.7795685126794  0.2722461601211  0.4490372002628 1.0
C      1  0.8684108034514  0.4053495531174  0.4310837582691 1.0
C      1  0.8112906233240  0.6696935561527  0.4282194848578 1.0
C      1  0.6942058811300  0.8033272127360  0.4462501285274 1.0
C      1  0.5485646914990  0.8747338944100  0.4230669101436 1.0
C      1  0.3050745727672  0.7937261685990  0.4284872087819 1.0
C      1  0.1849407538889  0.6636509778617  0.4219444087772 1.0
C      1  0.1352381394799  0.5047265687793  0.3858938081399 1.0
C      1  0.2494646873658  0.2184800354459  0.4569226626908 1.0
C      1  0.3987962009700  0.1480868703814  0.4646460686966 1.0
C      1  0.7288303338561  0.7050331588174  0.5683653078552 1.0
C      1  0.5832913551017  0.7927539327498  0.5721898909381 1.0
C      1  0.4092848721112  0.7863555599824  0.5657344001622 1.0
C      1  0.2704380391290  0.6911076395205  0.5576794802364 1.0
C      1  0.2008375196662  0.5360898392403  0.5499332669727 1.0
C      1  0.2322554703260  0.3589683468243  0.5650227907738 1.0
C      1  0.3466601845428  0.2367027683415  0.5923490938144 1.0
C      1  0.5105183893838  0.1928971761501  0.5831400269378 1.0
C      1  0.6747517401191  0.2504892498810  0.5852158796245 1.0
C      1  0.7807259747886  0.3808304404295  0.5741859162629 1.0
C      1  0.8034005782704  0.5535647188420  0.5645869481479 1.0
C      1  0.8740517987690  0.5066950593678  0.4170373024604 1.0
C      1  0.7527930086653  0.5797563740641  0.2946692341960 1.0
C      1  0.6546719180916  0.7818446176017  0.3591779538245 1.0
C      1  0.4480061522807  0.8684593588345  0.4191434785892 1.0
C      1  0.3483693433395  0.7279617163551  0.3612305733464 1.0
C      1  0.2708067984009  0.5893937905870  0.3105758854691 1.0
C      1  0.1686386673318  0.4131507985366  0.3577921672270 1.0
C      1  0.2243452536716  0.3400782785529  0.3927925099020 1.0
C      1  0.3853323301229  0.2038275299784  0.3857089550562 1.0
C      1  0.6444070420803  0.2027466069761  0.4218688868079 1.0
C      1  0.7473263230674  0.2899336340227  0.3479209959394 1.0
C      1  0.1758805369868  0.4367664211791  0.2669227770975 1.0
C      1  0.2967700637003  0.2425667844834  0.2745601031599 1.0
C      1  0.4621874019916  0.1861204709939  0.2583706144570 1.0
C      1  0.6204313162791  0.2010878412166  0.2706797157885 1.0
C      1  0.7983004500905  0.3497305122151  0.2861967689552 1.0
C      1  0.8742234017391  0.4852803229743  0.3188552407776 1.0
C      1  0.7605719927916  0.7139917948812  0.2617315418339 1.0
C      1  0.6259470719540  0.8254086785491  0.2349746161685 1.0
C      1  0.4179405550584  0.8505459766503  0.3271845697294 1.0
C      1  0.2873579213819  0.7332934987031  0.2841398956484 1.0
C      1  0.1727019400411  0.6028707582382  0.2562499172348 1.0
C      1  0.7218179906327  0.6327343579354  0.7958578554842 1.0
C      1  0.6542531911183  0.7010628369127  0.7971619248563 1.0
C      1  0.4948548291244  0.7482935778630  0.7899149421251 1.0
C      1  0.3352336115980  0.6919503676340  0.7888665823961 1.0
C      1  0.2721093147496  0.6197498448919  0.7852714496918 1.0
C      1  0.2347695868552  0.4346994094544  0.7936469705442 1.0
C      1  0.2698519349809  0.3456963997113  0.8043648137336 1.0
C      1  0.4603133081237  0.2598670892878  0.8161391702878 1.0
C      1  0.5555229356237  0.2637862043616  0.8153522613552 1.0
C      1  0.7380934495818  0.3582249315338  0.8097942067579 1.0
C      1  0.7705310536664  0.4490677138594  0.8032750103673 1.0
C      1  0.4441543342360  0.4687439981582  0.3405438488339 1.0
C      1  0.4806427964089  0.4857193353984  0.2688588332344 1.0
C      1  0.5022156422241  0.3921973368814  0.8930476195686 1.0
C      1  0.5202838945129  0.5316944723955  0.1984799922852 1.0
END
