TITL C-29123-7884-185 -3.83 3375.00 -664.91214255 0 0 82 (S8) n - 1
REM
REM Run started: at 2020.12.21 06:23:52 in /gpfs/home/chem/mssmkc/CARBON/AIRSS/Generating-Clusters/Str-Search/Higher-Symm/C4-100
REM VASP from code version vasp.5.4.4.18Apr17-6-g9f103f2a35 (build Oct 11 2019 16:45:47) gamma-only
REM
REM
REM
REM
REM ./C.cell (6bd13a13d554368a30d355f37ece5b26)
REM AIRSS Version 0.9.1 bugfix July 2018 build 013d7b7c2542+ Fri, 06 Jul 2018 19:26:36 +0100
REM compiler GCC version 6.3.0
REM options -cpp -iprefix /gpfs/warwick/csc/orac/software/Core/GCCcore/6.3.0/bin/../lib/gcc/x86_64-pc-linux-gnu/6.3.0/ -mtune=generic -march=x86-64 -g -O0
REM seed 2104888365 67319490 -1428915926 150805781 -640998235 -562920937 -855738037 -1744033444 -852267888 -1386121708 1151535639 128903501
REM
REM C.POTCAR (d86ddea03c3ceb6dc662c8ad6801f873)
REM 
CELL 1.54180   15.00000   15.00000   15.00000   90.00000   90.00000   90.00000
LATT -1
SFAC C  
C      1  0.5146657977922  0.7649673157058  0.4218529475301 1.0
C      1  0.4852320494680  0.6323041791096  0.2574609659194 1.0
C      1  0.5146729648615  0.4221573207068  0.2349638542911 1.0
C      1  0.4854295471740  0.2576654670494  0.3676112656097 1.0
C      1  0.5144805158569  0.2351124112230  0.5779029171576 1.0
C      1  0.4854672175694  0.3680691103775  0.7424528661895 1.0
C      1  0.5146007180255  0.5782168672039  0.7647312167661 1.0
C      1  0.4853329206703  0.7426126251868  0.6318137414603 1.0
C      1  0.3311684082391  0.5637656806284  0.2819877091378 1.0
C      1  0.6688743352028  0.3912487718847  0.3007573752715 1.0
C      1  0.3312879227497  0.2822338374151  0.4360791926438 1.0
C      1  0.6687243359908  0.3008436437653  0.6086177501977 1.0
C      1  0.3312614199685  0.4362530077777  0.7176684863887 1.0
C      1  0.6688839635787  0.6087672906638  0.6989433391665 1.0
C      1  0.3311491345950  0.7178763861492  0.5636154736850 1.0
C      1  0.6688378471696  0.6992459979397  0.3909921950397 1.0
C      1  0.2686627586898  0.4124813327380  0.6449879822946 1.0
C      1  0.7314383545823  0.5407789144623  0.6643155621107 1.0
C      1  0.2687296334384  0.6452920487302  0.5874605263044 1.0
C      1  0.7312519353382  0.6648287132339  0.4590497236354 1.0
C      1  0.2688117764184  0.5877398921407  0.3545943271348 1.0
C      1  0.7313021956722  0.4594208353843  0.3352771625576 1.0
C      1  0.2687273621384  0.3549253905298  0.4122097228105 1.0
C      1  0.7313978212383  0.3354884258300  0.5405588650079 1.0
C      1  0.5968578624360  0.2431523474112  0.5886453469743 1.0
C      1  0.4030890709701  0.3812925197174  0.7446425682026 1.0
C      1  0.5969750747737  0.5888437203809  0.7566974865160 1.0
C      1  0.4029912452777  0.7449600241973  0.6186118086866 1.0
C      1  0.5969544684913  0.7571255428117  0.4107814739899 1.0
C      1  0.4029639815131  0.6187847860402  0.2548467338852 1.0
C      1  0.5969681426264  0.4109932125626  0.2429270173483 1.0
C      1  0.4031098692010  0.2552514336075  0.3811074722162 1.0
C      1  0.6172611852801  0.4748109900120  0.5674392767353 1.0
C      1  0.3827361158234  0.5301135749833  0.5655261694519 1.0
C      1  0.6172533859492  0.5677902529591  0.5251406412512 1.0
C      1  0.3826981321327  0.5658555875508  0.4697887811432 1.0
C      1  0.6172866508961  0.5254260594335  0.4321367184518 1.0
C      1  0.3826853094601  0.4700743319590  0.4341486478898 1.0
C      1  0.6172722220270  0.4325118974112  0.4745768287546 1.0
C      1  0.3827233123399  0.4344735109715  0.5298258285152 1.0
C      1  0.5290056608800  0.4523854095189  0.6122202300762 1.0
C      1  0.4709630592200  0.5458517884708  0.6130465023686 1.0
C      1  0.5289793140781  0.6124752982694  0.5475719316876 1.0
C      1  0.4709719069813  0.6132958798996  0.4541138180279 1.0
C      1  0.5289516704125  0.5478301228698  0.3875022775482 1.0
C      1  0.4709737437510  0.4543586859232  0.3866801613391 1.0
C      1  0.5289842886115  0.3877477792531  0.4521527385971 1.0
C      1  0.4709582590315  0.3869246308749  0.5456067680292 1.0
C      1  0.7003631912001  0.3636748329632  0.4500615184023 1.0
C      1  0.2996716439138  0.3684411644418  0.5610012084907 1.0
C      1  0.7003269511051  0.4501894297699  0.6361654139854 1.0
C      1  0.2997724308687  0.5612863878540  0.6315571575553 1.0
C      1  0.7002140595715  0.6366615582694  0.5496437645437 1.0
C      1  0.2998141970931  0.6319597515686  0.4384752330968 1.0
C      1  0.7002046184695  0.5499840019118  0.3631685240910 1.0
C      1  0.2997267298873  0.4387673688488  0.3680399012059 1.0
C      1  0.3507672339008  0.4705864426556  0.2874310129380 1.0
C      1  0.6492370653982  0.3293608466991  0.3705256325690 1.0
C      1  0.3508669574985  0.2878777762269  0.5291208653509 1.0
C      1  0.6490433457108  0.3706246754272  0.6703810692647 1.0
C      1  0.3509248159151  0.5293257281164  0.7120967709079 1.0
C      1  0.6491290056131  0.6708193206328  0.6292509602272 1.0
C      1  0.3507893789818  0.7125326492995  0.4703933601120 1.0
C      1  0.6491621577213  0.6295168382995  0.3288762692666 1.0
C      1  0.5577104750269  0.6923830090761  0.6038705685755 1.0
C      1  0.4422433403193  0.7096160344542  0.4373181607777 1.0
C      1  0.5576653278399  0.6042060787672  0.3075849205694 1.0
C      1  0.4422682066235  0.4374974420308  0.2903773129400 1.0
C      1  0.5577284760540  0.3078402499224  0.3958689593908 1.0
C      1  0.4422709424954  0.2906692805245  0.5625116551238 1.0
C      1  0.5576935919952  0.3961363307898  0.6921439495039 1.0
C      1  0.4422887063244  0.5627117555101  0.7093076264241 1.0
C      1  0.7648718384881  0.5812591563580  0.4308016551948 1.0
C      1  0.2351181421398  0.5087146429078  0.3936337029319 1.0
C      1  0.7649982306344  0.4311124400638  0.4187021523484 1.0
C      1  0.2347303906362  0.3932906068088  0.4912011850360 1.0
C      1  0.7654950156735  0.4182476305737  0.5695320376068 1.0
C      1  0.2347101893213  0.4914937026413  0.6067363640226 1.0
C      1  0.7650589773609  0.5692574526518  0.5809911827497 1.0
C      1  0.2350821612257  0.6063360787008  0.5084014542088 1.0
C      1  0.2155134702033  0.5009822230652  0.4990262333809 1.0
C      1  0.7845338661979  0.5010854592446  0.4989212212110 1.0
END
