TITL C-29123-7884-70 -0.339 3375.00 -42.74423713 0 0 6 (D6h) n - 1
REM
REM Run started: at 2020.12.20 05:46:30 in /gpfs/home/chem/mssmkc/CARBON/AIRSS/Generating-Clusters/Str-Search/Higher-Symm/C4-100
REM VASP from code version vasp.5.4.4.18Apr17-6-g9f103f2a35 (build Oct 11 2019 16:45:47) gamma-only
REM
REM
REM
REM
REM ./C.cell (6bd13a13d554368a30d355f37ece5b26)
REM AIRSS Version 0.9.1 bugfix July 2018 build 013d7b7c2542+ Fri, 06 Jul 2018 19:26:36 +0100
REM compiler GCC version 6.3.0
REM options -cpp -iprefix /gpfs/warwick/csc/orac/software/Core/GCCcore/6.3.0/bin/../lib/gcc/x86_64-pc-linux-gnu/6.3.0/ -mtune=generic -march=x86-64 -g -O0
REM seed 1925158448 794606194 -1383005660 1708160019 -554507716 -354305239 164678131 -802438611 -2143602889 2020450255 -416969729 1447316295
REM
REM C.POTCAR (d86ddea03c3ceb6dc662c8ad6801f873)
REM 
CELL 1.54180   15.00000   15.00000   15.00000   90.00000   90.00000   90.00000
LATT -1
SFAC C  
C      1  0.4999998330043  0.5759332007290  0.5438215696646 1.0
C      1  0.5000001024740  0.4240719094444  0.5438332715191 1.0
C      1  0.5000000347175  0.4999925901320  0.4124385344618 1.0
C      1  0.4999998338951  0.5759380077950  0.4561774895696 1.0
C      1  0.5000001361073  0.4240679090823  0.4561629984583 1.0
C      1  0.5000000598018  0.4999961828172  0.5875661363265 1.0
END
