TITL C-29086-3345-51 -1.135 3375.00 -165.80210862 0 0 21 (C1) n - 1
REM
REM Run started: at 2020.12.20 02:04:26 in /gpfs/home/chem/mssmkc/CARBON/AIRSS/Generating-Clusters/Str-Search/Higher-Symm/C4-100
REM VASP from code version vasp.5.4.4.18Apr17-6-g9f103f2a35 (build Oct 11 2019 16:45:47) gamma-only
REM
REM
REM
REM
REM ./C.cell (6bd13a13d554368a30d355f37ece5b26)
REM AIRSS Version 0.9.1 bugfix July 2018 build 013d7b7c2542+ Fri, 06 Jul 2018 19:26:36 +0100
REM compiler GCC version 6.3.0
REM options -cpp -iprefix /gpfs/warwick/csc/orac/software/Core/GCCcore/6.3.0/bin/../lib/gcc/x86_64-pc-linux-gnu/6.3.0/ -mtune=generic -march=x86-64 -g -O0
REM seed 2045444087 -2035132937 -232961843 2091398479 -534414397 1018345913 1005459623 -1213102920 -2055541765 465061985 74538138 1480784270
REM
REM C.POTCAR (d86ddea03c3ceb6dc662c8ad6801f873)
REM 
CELL 1.54180   15.00000   15.00000   15.00000   90.00000   90.00000   90.00000
LATT -1
SFAC C  
C      1  0.4598431219179  0.6567361543080  0.4238715896444 1.0
C      1  0.4287593710723  0.3729727507296  0.3942220420841 1.0
C      1  0.4239576535987  0.4670277942186  0.6867701195471 1.0
C      1  0.5046288864932  0.4861402440022  0.6815447197760 1.0
C      1  0.5424306736033  0.6675598916555  0.4221660038950 1.0
C      1  0.5119388889365  0.3781786425392  0.3745980834739 1.0
C      1  0.6246943436950  0.6289518795918  0.4443219241353 1.0
C      1  0.5945907979336  0.4042959091082  0.4044651977188 1.0
C      1  0.5868717287234  0.4932455154713  0.6362142497356 1.0
C      1  0.3448144271862  0.4534207362588  0.6470312228741 1.0
C      1  0.3872201873100  0.6080350981431  0.4410617175631 1.0
C      1  0.3575158834174  0.3989551064985  0.4345562699657 1.0
C      1  0.6562475564938  0.5587208892353  0.3877167669655 1.0
C      1  0.6097671327956  0.3953346835116  0.4973587121033 1.0
C      1  0.6238464557538  0.5719587973820  0.6027195253891 1.0
C      1  0.3167567902577  0.4567818210981  0.4921445077824 1.0
C      1  0.2924156501551  0.4371516690719  0.5836681225957 1.0
C      1  0.3408670235468  0.5442736311757  0.4670794097693 1.0
C      1  0.6435977962247  0.4788592097397  0.3689363424733 1.0
C      1  0.6064530469745  0.4241002766320  0.5747149589161 1.0
C      1  0.6427825839107  0.6172993996288  0.5348382135923 1.0
END
