TITL C-29469-8165-17 -1.379 3375.00 -210.88066891 0 0 27 (C1) n - 1
REM
REM Run started: at 2021.01.04 09:24:09 in /gpfs/home/chem/mssmkc/CARBON/AIRSS/Generating-Clusters/Str-Search/Higher-Symm/C4-100
REM VASP from code version vasp.5.4.4.18Apr17-6-g9f103f2a35 (build Oct 11 2019 16:45:47) gamma-only
REM
REM
REM
REM
REM ./C.cell (6bd13a13d554368a30d355f37ece5b26)
REM AIRSS Version 0.9.1 bugfix July 2018 build 013d7b7c2542+ Fri, 06 Jul 2018 19:26:36 +0100
REM compiler GCC version 6.3.0
REM options -cpp -iprefix /gpfs/warwick/csc/orac/software/Core/GCCcore/6.3.0/bin/../lib/gcc/x86_64-pc-linux-gnu/6.3.0/ -mtune=generic -march=x86-64 -g -O0
REM seed -198459667 -2059344276 2145979368 1104147737 1475462531 -1460179808 -1056524564 27807179 1430239991 1725591897 -331343255 -152557632
REM
REM C.POTCAR (d86ddea03c3ceb6dc662c8ad6801f873)
REM 
CELL 1.54180   15.00000   15.00000   15.00000   90.00000   90.00000   90.00000
LATT -1
SFAC C  
C      1  0.4349505915344  0.5136313027243  0.6494760623388 1.0
C      1  0.5592164725492  0.3159808145193  0.5044223758479 1.0
C      1  0.4628175760723  0.6685436897273  0.4913832760157 1.0
C      1  0.5226389829991  0.4764972289379  0.4117149611145 1.0
C      1  0.4470202843757  0.3298637625011  0.4558743478127 1.0
C      1  0.3665923236795  0.4715497563650  0.4534160356621 1.0
C      1  0.5217717639508  0.2656027841206  0.4449771010593 1.0
C      1  0.4572530280804  0.5880536338411  0.3068186163030 1.0
C      1  0.4413441652001  0.4218862136387  0.4230457852179 1.0
C      1  0.4125927892996  0.6057222821220  0.2353633856943 1.0
C      1  0.5867725318229  0.3956926107725  0.5435560883198 1.0
C      1  0.6239090053919  0.6498222386545  0.4830948712287 1.0
C      1  0.4127710483785  0.6403351475464  0.5517446511502 1.0
C      1  0.6698900243976  0.5153662586727  0.4501297251457 1.0
C      1  0.5361895384072  0.5264641544851  0.6493343875661 1.0
C      1  0.4472182949451  0.4182122914157  0.6426417948429 1.0
C      1  0.5439444464642  0.4334030995216  0.6214661031581 1.0
C      1  0.3942003486497  0.3482109510757  0.6120969903229 1.0
C      1  0.6913047813839  0.5960648890222  0.4404572584703 1.0
C      1  0.5368753606406  0.6456282558925  0.4409405351913 1.0
C      1  0.3783994858356  0.5619226039370  0.5899056229901 1.0
C      1  0.5877309646162  0.5977388991979  0.6283521681373 1.0
C      1  0.3919199505976  0.3204251818321  0.5333912417323 1.0
C      1  0.3362347305191  0.5131680274848  0.5179505842416 1.0
C      1  0.5116629384753  0.5702200047021  0.3768248405596 1.0
C      1  0.6241529692708  0.6531111261521  0.5766819297162 1.0
C      1  0.6006258024626  0.4568825911377  0.4649391601607 1.0
END
