TITL C-29086-3345-223 -1.868 3375.00 -307.53511613 0 0 39 (C1) n - 1
REM
REM Run started: at 2020.12.21 10:18:52 in /gpfs/home/chem/mssmkc/CARBON/AIRSS/Generating-Clusters/Str-Search/Higher-Symm/C4-100
REM VASP from code version vasp.5.4.4.18Apr17-6-g9f103f2a35 (build Oct 11 2019 16:45:47) gamma-only
REM
REM
REM
REM
REM ./C.cell (6bd13a13d554368a30d355f37ece5b26)
REM AIRSS Version 0.9.1 bugfix July 2018 build 013d7b7c2542+ Fri, 06 Jul 2018 19:26:36 +0100
REM compiler GCC version 6.3.0
REM options -cpp -iprefix /gpfs/warwick/csc/orac/software/Core/GCCcore/6.3.0/bin/../lib/gcc/x86_64-pc-linux-gnu/6.3.0/ -mtune=generic -march=x86-64 -g -O0
REM seed 2106229403 1333051400 630857834 710212012 -183989293 -1834302489 742904429 -300348338 1727331900 1204717326 -1400768303 1590391949
REM
REM C.POTCAR (d86ddea03c3ceb6dc662c8ad6801f873)
REM 
CELL 1.54180   15.00000   15.00000   15.00000   90.00000   90.00000   90.00000
LATT -1
SFAC C  
C      1  0.7564416537904  0.4353850593923  0.4359647179193 1.0
C      1  0.4551230884539  0.5892378958657  0.3356668876148 1.0
C      1  0.2898302591514  0.5830455446274  0.4810265040790 1.0
C      1  0.4269136886026  0.5637457898441  0.6404479561753 1.0
C      1  0.6382066394735  0.3244645647300  0.5000638106126 1.0
C      1  0.5073018189377  0.4048023533480  0.5607724053822 1.0
C      1  0.3184928298972  0.4514701285361  0.4545663983725 1.0
C      1  0.6459121681379  0.6564027336096  0.4987402755931 1.0
C      1  0.4300492669063  0.6580392125484  0.6226777722961 1.0
C      1  0.4941955433253  0.5618974440385  0.4734594267862 1.0
C      1  0.5010972470729  0.6620209595070  0.4515863878072 1.0
C      1  0.5650064066934  0.3312037346884  0.3398947871611 1.0
C      1  0.5636240505436  0.6871597047788  0.5255543923434 1.0
C      1  0.5313558016379  0.5576837701421  0.6333082069229 1.0
C      1  0.5037501632611  0.5145687535704  0.3883517480203 1.0
C      1  0.3904831884470  0.3991643181086  0.4354083232818 1.0
C      1  0.3711952566546  0.4934934172826  0.6104271337607 1.0
C      1  0.5001466407104  0.3763704104329  0.3156605330409 1.0
C      1  0.5836286597452  0.5193720165354  0.7073035846442 1.0
C      1  0.3083174464954  0.5052864727855  0.5364266138924 1.0
C      1  0.4170470292308  0.4039174330671  0.6078614415169 1.0
C      1  0.6409983128427  0.3682092160851  0.6585145447618 1.0
C      1  0.3546171725152  0.6995335251083  0.5807670968483 1.0
C      1  0.5335259696500  0.5018620428273  0.5421902686754 1.0
C      1  0.4376455493007  0.4394696112319  0.3571607202232 1.0
C      1  0.5938944632298  0.3512199465944  0.5805458440482 1.0
C      1  0.3797827520180  0.5263980962818  0.3311232223134 1.0
C      1  0.4737497706438  0.6738288380791  0.3656571995303 1.0
C      1  0.3116618043035  0.6651693626286  0.5182562884737 1.0
C      1  0.7358083419239  0.5156665903406  0.4427453954533 1.0
C      1  0.7069043748639  0.3568302437609  0.4435218753665 1.0
C      1  0.5837628414756  0.5191911427969  0.4545913401324 1.0
C      1  0.3770269978379  0.3194180388000  0.5825632780618 1.0
C      1  0.4321360826609  0.3572412351890  0.5113565510321 1.0
C      1  0.6296437555394  0.3204188956751  0.4053112026234 1.0
C      1  0.6663131347955  0.5780692660286  0.4596961151162 1.0
C      1  0.5236360550756  0.6587110272438  0.6102572922622 1.0
C      1  0.6080896837249  0.4385152881148  0.7024498549594 1.0
C      1  0.3126842904300  0.5315158157746  0.3981228028959 1.0
END
