TITL C-29086-3345-216 -4.828 3375.00 -808.72882659 0 0 98 (C1) n - 1
REM
REM Run started: at 2020.12.21 08:39:20 in /gpfs/home/chem/mssmkc/CARBON/AIRSS/Generating-Clusters/Str-Search/Higher-Symm/C4-100
REM VASP from code version vasp.5.4.4.18Apr17-6-g9f103f2a35 (build Oct 11 2019 16:45:47) gamma-only
REM
REM
REM
REM
REM ./C.cell (6bd13a13d554368a30d355f37ece5b26)
REM AIRSS Version 0.9.1 bugfix July 2018 build 013d7b7c2542+ Fri, 06 Jul 2018 19:26:36 +0100
REM compiler GCC version 6.3.0
REM options -cpp -iprefix /gpfs/warwick/csc/orac/software/Core/GCCcore/6.3.0/bin/../lib/gcc/x86_64-pc-linux-gnu/6.3.0/ -mtune=generic -march=x86-64 -g -O0
REM seed 1746690994 -1368091021 -2102288975 -677122327 -2138274402 -1935062013 -527067230 1233060889 -545868355 751229428 -1853943614 470554269
REM
REM C.POTCAR (d86ddea03c3ceb6dc662c8ad6801f873)
REM 
CELL 1.54180   15.00000   15.00000   15.00000   90.00000   90.00000   90.00000
LATT -1
SFAC C  
C      1  0.6823625044772  0.7088008407043  0.6284486216732 1.0
C      1  0.2158220758815  0.5236193734020  0.6368663498678 1.0
C      1  0.6030532062380  0.2077496333993  0.6376385807224 1.0
C      1  0.2991236021207  0.7101689305258  0.3378073256069 1.0
C      1  0.8167294620733  0.5630697608858  0.3632132817147 1.0
C      1  0.3993868997025  0.2737151455129  0.3904067561780 1.0
C      1  0.3362084264685  0.5930418177650  0.7118506281814 1.0
C      1  0.4942804257760  0.2911859593643  0.7137392368379 1.0
C      1  0.6715131936453  0.5743792942283  0.7064285592504 1.0
C      1  0.6498929941531  0.6195369097184  0.2504622583465 1.0
C      1  0.5122411634182  0.3295254407505  0.3063993629213 1.0
C      1  0.3193957048027  0.5911605994740  0.2326126647725 1.0
C      1  0.7662087619396  0.6396257983481  0.3762517251289 1.0
C      1  0.2790825267839  0.6229801717117  0.3080199059507 1.0
C      1  0.4924060448992  0.2749366627229  0.3823178220193 1.0
C      1  0.2766250372539  0.5979331319785  0.6366728962745 1.0
C      1  0.7176151939247  0.6209936362560  0.6336097518541 1.0
C      1  0.5121539265847  0.2350884590890  0.6396706159490 1.0
C      1  0.7920062473555  0.4723163227945  0.3524741689690 1.0
C      1  0.3854654949529  0.7489661416863  0.3452774641466 1.0
C      1  0.3262365978446  0.3269556137231  0.3954674504412 1.0
C      1  0.1996439731191  0.4324681332576  0.6557829529501 1.0
C      1  0.6001833074890  0.7523220231573  0.6309219759410 1.0
C      1  0.6810888595649  0.2608460472197  0.6441776161787 1.0
C      1  0.3119269840357  0.7227692815503  0.5131826994292 1.0
C      1  0.3730927994509  0.2333777366685  0.5463834414337 1.0
C      1  0.8095333287106  0.5197726335718  0.5228608754138 1.0
C      1  0.6736147096190  0.7219926922606  0.4677556364329 1.0
C      1  0.6242428900529  0.2403412845431  0.4808510646450 1.0
C      1  0.2010174242530  0.4929642442579  0.4802980239900 1.0
C      1  0.5146773806145  0.7196099630978  0.6592693678584 1.0
C      1  0.2489307484084  0.3690700319019  0.7006937958995 1.0
C      1  0.6917164708057  0.3482291674347  0.6666599693170 1.0
C      1  0.4668053939305  0.7197723856308  0.3138027632859 1.0
C      1  0.7175070955369  0.4245006820842  0.3285093929474 1.0
C      1  0.3107845274319  0.4164013703362  0.3605257996773 1.0
C      1  0.3545433618389  0.4203593194079  0.2657707802231 1.0
C      1  0.6565611212152  0.4389313457002  0.2561251209911 1.0
C      1  0.4767918635246  0.6707623729307  0.2279863541349 1.0
C      1  0.6438474372579  0.3894833176525  0.7382770432125 1.0
C      1  0.3330509494936  0.4121170958132  0.7342784433640 1.0
C      1  0.5103690355285  0.6613285968791  0.7381996664917 1.0
C      1  0.4845338092387  0.6526997411800  0.5798676382205 1.0
C      1  0.4071855367810  0.4213973890726  0.6671188273792 1.0
C      1  0.6270215412882  0.4489152325361  0.5475806186324 1.0
C      1  0.5330161392003  0.6862881390218  0.3800013052533 1.0
C      1  0.6154680285480  0.4485381959095  0.4569584088897 1.0
C      1  0.3627134344813  0.5033666598314  0.3945753884376 1.0
C      1  0.5276242692234  0.2378097080650  0.4687541820103 1.0
C      1  0.7516110329731  0.6632519997781  0.4695787113880 1.0
C      1  0.2396801578729  0.5811699798544  0.4765090021669 1.0
C      1  0.4698358556757  0.2268719133736  0.5485821719976 1.0
C      1  0.2704405550147  0.6395906424750  0.5438316612870 1.0
C      1  0.7696448703535  0.6062947571898  0.5467621444802 1.0
C      1  0.6701547503608  0.2967592501390  0.4275417112217 1.0
C      1  0.6281586176783  0.7101563463350  0.3855529206340 1.0
C      1  0.2283518647738  0.4703117831950  0.3900029497714 1.0
C      1  0.3176580427404  0.2400883955825  0.6209597669530 1.0
C      1  0.3645615388980  0.7693313354674  0.5718779889145 1.0
C      1  0.7867756027561  0.4487998149284  0.5737233605975 1.0
C      1  0.4626242037256  0.4769567553150  0.6222320453094 1.0
C      1  0.5492280887929  0.4885460989642  0.5890134750963 1.0
C      1  0.4922996878181  0.5619219106252  0.5877332054923 1.0
C      1  0.5441357290396  0.5087278836034  0.4213464272814 1.0
C      1  0.4522679942891  0.5240669795780  0.4017085761467 1.0
C      1  0.5157382922058  0.5980740875880  0.4064185950157 1.0
C      1  0.4386976359334  0.3741325397713  0.2520341663245 1.0
C      1  0.6472867265848  0.5257692118657  0.2141305155204 1.0
C      1  0.4035343777043  0.6210414220479  0.1891374338766 1.0
C      1  0.5613220721562  0.3447862872298  0.7679576093356 1.0
C      1  0.3435545607918  0.5070380671187  0.7646155618041 1.0
C      1  0.5900036323990  0.6109333851768  0.7579507760946 1.0
C      1  0.7098796364604  0.4126224099980  0.5952178112359 1.0
C      1  0.4352512995730  0.7283815645766  0.6052204788273 1.0
C      1  0.2635167380211  0.2849830183043  0.6641849748681 1.0
C      1  0.2760964460641  0.5603067989571  0.3844862259755 1.0
C      1  0.6873883661198  0.6628279742752  0.3248615677046 1.0
C      1  0.6716792079879  0.3809254381561  0.4034098231694 1.0
C      1  0.5054434539222  0.4092446425017  0.1921012038228 1.0
C      1  0.5717515085071  0.5475997809854  0.1600776758930 1.0
C      1  0.4157754427080  0.5317332853890  0.1541216790567 1.0
C      1  0.4937731850675  0.3965557506591  0.8067756003068 1.0
C      1  0.4227709314972  0.5394138706832  0.8086003542717 1.0
C      1  0.5805354030491  0.5271637125124  0.8022258604879 1.0
C      1  0.3428314488102  0.2617730650005  0.4626525283090 1.0
C      1  0.8384050776407  0.5046079009714  0.4316802669979 1.0
C      1  0.3200584642229  0.7454730556632  0.4196655018508 1.0
C      1  0.6590739738811  0.2089326909605  0.5646184620528 1.0
C      1  0.1798810571514  0.4703248917250  0.5700092444781 1.0
C      1  0.6516826889108  0.7523553077492  0.5522785030232 1.0
C      1  0.4253910434386  0.6208251173150  0.7588081667018 1.0
C      1  0.4244016003617  0.3613350342354  0.7445591597389 1.0
C      1  0.6509182662857  0.4838610470337  0.7535614043413 1.0
C      1  0.5623844165837  0.6338728471256  0.2052192243847 1.0
C      1  0.5783993823701  0.3823112779877  0.2478441741527 1.0
C      1  0.3447666971520  0.4980859567799  0.2104853052486 1.0
C      1  0.4993274619057  0.4900500174147  0.1444724233731 1.0
C      1  0.4995698008317  0.4880746608249  0.8295691235714 1.0
END
