TITL C-29086-3345-148 -2.143 3375.00 -359.19256637 0 0 45 (C3v) n - 1
REM
REM Run started: at 2020.12.20 19:10:19 in /gpfs/home/chem/mssmkc/CARBON/AIRSS/Generating-Clusters/Str-Search/Higher-Symm/C4-100
REM VASP from code version vasp.5.4.4.18Apr17-6-g9f103f2a35 (build Oct 11 2019 16:45:47) gamma-only
REM
REM
REM
REM
REM ./C.cell (6bd13a13d554368a30d355f37ece5b26)
REM AIRSS Version 0.9.1 bugfix July 2018 build 013d7b7c2542+ Fri, 06 Jul 2018 19:26:36 +0100
REM compiler GCC version 6.3.0
REM options -cpp -iprefix /gpfs/warwick/csc/orac/software/Core/GCCcore/6.3.0/bin/../lib/gcc/x86_64-pc-linux-gnu/6.3.0/ -mtune=generic -march=x86-64 -g -O0
REM seed -1165927039 -1690730378 -1366202673 377479681 606872067 -1657250903 1130835462 -219249708 1494535325 734244047 1305389701 -307781270
REM
REM C.POTCAR (d86ddea03c3ceb6dc662c8ad6801f873)
REM 
CELL 1.54180   15.00000   15.00000   15.00000   90.00000   90.00000   90.00000
LATT -1
SFAC C  
C      1  0.6365894265960  0.6650135891604  0.5314609380453 1.0
C      1  0.6247781655465  0.6648908344648  0.4360820301728 1.0
C      1  0.5546165330216  0.6651557671138  0.3707297367697 1.0
C      1  0.4586701920241  0.6647729570293  0.3660311975571 1.0
C      1  0.3818670648503  0.6651360086974  0.4236309635394 1.0
C      1  0.3604366175180  0.6648496892433  0.5172019707883 1.0
C      1  0.4040328103800  0.6651517340656  0.6029371393290 1.0
C      1  0.4923815946368  0.6649630428041  0.6401103126986 1.0
C      1  0.5842491442923  0.6650063787177  0.6117007194120 1.0
C      1  0.3706918131326  0.4302867194065  0.3285395814579 1.0
C      1  0.2904558647978  0.4301709114331  0.4516178942928 1.0
C      1  0.3089889817521  0.4299872975848  0.5975145788767 1.0
C      1  0.4161560493205  0.4301078234818  0.6978481053974 1.0
C      1  0.5631325516579  0.4303921457644  0.7056595482495 1.0
C      1  0.6807772673332  0.4304565849423  0.6173586865853 1.0
C      1  0.7129107348104  0.4302310573726  0.4737761087205 1.0
C      1  0.6467236624068  0.4301138202794  0.3424842062631 1.0
C      1  0.5115204029164  0.4301775597720  0.2853032101299 1.0
C      1  0.5975938697250  0.3584023357161  0.3951772865893 1.0
C      1  0.5077427216296  0.3585663617966  0.3570598016504 1.0
C      1  0.4137842107348  0.3585586341663  0.3857489982443 1.0
C      1  0.3605868003482  0.3584843397287  0.4675853208281 1.0
C      1  0.3729156619139  0.3585361712587  0.5649913664454 1.0
C      1  0.4443947642601  0.3584108265446  0.6317876825846 1.0
C      1  0.5423743144714  0.3586202974965  0.6371647788535 1.0
C      1  0.6205263118023  0.3584242582214  0.5783397482681 1.0
C      1  0.6420903119131  0.3586703629889  0.4827788959308 1.0
C      1  0.7184415471587  0.4825690268918  0.5503836441587 1.0
C      1  0.6997245404383  0.4824103874819  0.3979671878906 1.0
C      1  0.5879594314026  0.4823570145214  0.2929870348897 1.0
C      1  0.4346603929434  0.4824939009741  0.2859814883306 1.0
C      1  0.3114557220965  0.4823807292271  0.3776920913716 1.0
C      1  0.2775867538056  0.4822753393758  0.5274367789074 1.0
C      1  0.3468973130859  0.4821530034051  0.6643797087060 1.0
C      1  0.4883328332716  0.4825147579902  0.7237043374299 1.0
C      1  0.6353059857669  0.4826978135099  0.6792402724139 1.0
C      1  0.3906271394522  0.5638405192220  0.6176929898601 1.0
C      1  0.4911237438875  0.5638467302541  0.6599467729261 1.0
C      1  0.5967252223810  0.5639322000103  0.6275791473044 1.0
C      1  0.6560111174292  0.5638455220667  0.5362316591698 1.0
C      1  0.6425148008535  0.5638221528796  0.4265138125216 1.0
C      1  0.5628707035258  0.5638708117180  0.3522476648494 1.0
C      1  0.4529400490133  0.5638182089174  0.3468935162166 1.0
C      1  0.3651514165288  0.5638597446094  0.4129215116580 1.0
C      1  0.3406831431677  0.5637746276940  0.5195798737159 1.0
END
