TITL C-29123-7884-159 -2.559 3375.00 -437.56897702 0 0 54 (C1) n - 1
REM
REM Run started: at 2020.12.21 01:25:06 in /gpfs/home/chem/mssmkc/CARBON/AIRSS/Generating-Clusters/Str-Search/Higher-Symm/C4-100
REM VASP from code version vasp.5.4.4.18Apr17-6-g9f103f2a35 (build Oct 11 2019 16:45:47) gamma-only
REM
REM
REM
REM
REM ./C.cell (6bd13a13d554368a30d355f37ece5b26)
REM AIRSS Version 0.9.1 bugfix July 2018 build 013d7b7c2542+ Fri, 06 Jul 2018 19:26:36 +0100
REM compiler GCC version 6.3.0
REM options -cpp -iprefix /gpfs/warwick/csc/orac/software/Core/GCCcore/6.3.0/bin/../lib/gcc/x86_64-pc-linux-gnu/6.3.0/ -mtune=generic -march=x86-64 -g -O0
REM seed -147354436 1359715299 1883477188 1964849025 -2109241743 -224577292 -1722313638 724172316 -1375766461 -1416891829 -946038115 1348575746
REM
REM C.POTCAR (d86ddea03c3ceb6dc662c8ad6801f873)
REM 
CELL 1.54180   15.00000   15.00000   15.00000   90.00000   90.00000   90.00000
LATT -1
SFAC C  
C      1  0.4521247552815  0.3303288448123  0.3703349441037 1.0
C      1  0.3342527587987  0.3764307630292  0.5699630905220 1.0
C      1  0.6625071826579  0.3445407612336  0.3777530498333 1.0
C      1  0.6748374141159  0.5732962722334  0.3737082845076 1.0
C      1  0.4574932227090  0.5689791214205  0.3828063884723 1.0
C      1  0.6704375078588  0.4674184832386  0.4849322841383 1.0
C      1  0.7036300034540  0.4855085904540  0.3313802571150 1.0
C      1  0.5113857611918  0.6801113230663  0.6294317297603 1.0
C      1  0.6064552350777  0.3122340346139  0.4507758470478 1.0
C      1  0.4231397016537  0.7019158654493  0.4998777909281 1.0
C      1  0.5716792582667  0.6749069651649  0.5491923532352 1.0
C      1  0.4172070732387  0.3262908799668  0.5825664872801 1.0
C      1  0.2971843100904  0.4572804172079  0.6073397948627 1.0
C      1  0.5792195465472  0.3112450875179  0.6115499257721 1.0
C      1  0.2932284855516  0.5075466501483  0.6862066099711 1.0
C      1  0.6875309957564  0.4700623112046  0.6375384383929 1.0
C      1  0.6413117748447  0.3283237976934  0.5455908652931 1.0
C      1  0.5146952940888  0.6870717404186  0.4707661141472 1.0
C      1  0.4690435689080  0.4066383750820  0.3152608422288 1.0
C      1  0.5145608346714  0.2914502191443  0.4381220512722 1.0
C      1  0.2883127303297  0.4654608757533  0.4485254137464 1.0
C      1  0.6465669264147  0.6141097697251  0.5473714422036 1.0
C      1  0.5069809935135  0.5880360702597  0.8000199106460 1.0
C      1  0.2981484350951  0.5908750120967  0.6979571334996 1.0
C      1  0.4951597077158  0.6155580310124  0.7046497739321 1.0
C      1  0.4190960394486  0.4835942456386  0.3378111450771 1.0
C      1  0.3162101700304  0.3775497572921  0.4738351935977 1.0
C      1  0.4199459370548  0.7010355307063  0.5953993207372 1.0
C      1  0.3441853885814  0.6372484308850  0.6247187225615 1.0
C      1  0.5648972309217  0.4673222075761  0.4980186852195 1.0
C      1  0.5584762477286  0.5175483966823  0.2363258506531 1.0
C      1  0.5020782021513  0.3586547039622  0.6159035706572 1.0
C      1  0.4378528266549  0.2835846408186  0.4994338302641 1.0
C      1  0.4877000227982  0.5210436705853  0.4731461428741 1.0
C      1  0.5897009512631  0.5955621970575  0.2388139702927 1.0
C      1  0.5952756791421  0.4968456750296  0.6679200871656 1.0
C      1  0.2995261135149  0.6088168479368  0.5378428592450 1.0
C      1  0.2760123645988  0.5171687741204  0.5297712049070 1.0
C      1  0.3783602905472  0.3200456668159  0.4315890387077 1.0
C      1  0.6055016445927  0.6231862487309  0.3300613740319 1.0
C      1  0.5293885266176  0.6408481409662  0.3852215079050 1.0
C      1  0.3330855523223  0.5096586078435  0.3773398714515 1.0
C      1  0.4372079064928  0.5915093728781  0.6274424970353 1.0
C      1  0.5541792003768  0.5407547991128  0.7420159216299 1.0
C      1  0.4615543485825  0.5233836088525  0.5659618141976 1.0
C      1  0.5534496310883  0.4327143438938  0.2733443034395 1.0
C      1  0.6942168768596  0.4089762014224  0.5636456023500 1.0
C      1  0.7021667864718  0.4258338133795  0.4043553003640 1.0
C      1  0.3469799263325  0.6517264980544  0.4667146547221 1.0
C      1  0.6804699740803  0.5671024366593  0.4701119383044 1.0
C      1  0.3623888918246  0.5985959792916  0.3920710353331 1.0
C      1  0.5298398643396  0.4573738143696  0.5965183412020 1.0
C      1  0.6637120529663  0.5580571843262  0.6243550174144 1.0
C      1  0.6394481747848  0.4086379431654  0.3066903757483 1.0
END
