TITL C-29086-3345-139 -1.829 3375.00 -314.71611366 0 0 40 (Ci) n - 1
REM
REM Run started: at 2020.12.20 18:03:49 in /gpfs/home/chem/mssmkc/CARBON/AIRSS/Generating-Clusters/Str-Search/Higher-Symm/C4-100
REM VASP from code version vasp.5.4.4.18Apr17-6-g9f103f2a35 (build Oct 11 2019 16:45:47) gamma-only
REM
REM
REM
REM
REM ./C.cell (6bd13a13d554368a30d355f37ece5b26)
REM AIRSS Version 0.9.1 bugfix July 2018 build 013d7b7c2542+ Fri, 06 Jul 2018 19:26:36 +0100
REM compiler GCC version 6.3.0
REM options -cpp -iprefix /gpfs/warwick/csc/orac/software/Core/GCCcore/6.3.0/bin/../lib/gcc/x86_64-pc-linux-gnu/6.3.0/ -mtune=generic -march=x86-64 -g -O0
REM seed 1421667635 1761509843 -1952709167 1858996561 -1936427869 -850992537 117446640 -1918074930 1542812343 2038798572 -815018657 589728830
REM
REM C.POTCAR (d86ddea03c3ceb6dc662c8ad6801f873)
REM 
CELL 1.54180   15.00000   15.00000   15.00000   90.00000   90.00000   90.00000
LATT -1
SFAC C  
C      1  0.5441828064098  0.3078757132543  0.6349971198426 1.0
C      1  0.4558171975885  0.6921242870123  0.3650028828175 1.0
C      1  0.4013899224946  0.3873247443913  0.5995056407959 1.0
C      1  0.5986100766310  0.6126752558329  0.4004943591210 1.0
C      1  0.3883695880191  0.6412539777941  0.3750598996493 1.0
C      1  0.6116304059177  0.3587460183999  0.6249401001448 1.0
C      1  0.5178483616126  0.4975215396640  0.2892304430141 1.0
C      1  0.4821516388132  0.5024784605013  0.7107695564175 1.0
C      1  0.3996870496201  0.5440659788792  0.6505047532086 1.0
C      1  0.6003129505774  0.4559340223775  0.3494952466278 1.0
C      1  0.6392336519490  0.5848681632449  0.4827194450335 1.0
C      1  0.3607663497274  0.4151318359339  0.5172805546765 1.0
C      1  0.4054464810108  0.4513592574594  0.6745508464363 1.0
C      1  0.5945535185302  0.5486407418570  0.3254491529310 1.0
C      1  0.5330741565953  0.6839442234505  0.4150365404912 1.0
C      1  0.4669258435922  0.3160557777826  0.5849634601312 1.0
C      1  0.5882809303970  0.7246232499554  0.5728661294979 1.0
C      1  0.4117190704801  0.2753767506105  0.4271338707219 1.0
C      1  0.5423559262122  0.3336211346223  0.4361073252491 1.0
C      1  0.4576440736967  0.6663788660558  0.5638926753283 1.0
C      1  0.4817419807116  0.2885193825317  0.4911067230885 1.0
C      1  0.5182580204111  0.7114806179402  0.5088932773178 1.0
C      1  0.5840485508100  0.6007279460092  0.6327951811635 1.0
C      1  0.4159514486684  0.3992720533589  0.3672048186800 1.0
C      1  0.4490793351629  0.5980198521727  0.7138924297967 1.0
C      1  0.5509206632616  0.4019801473699  0.2861075710059 1.0
C      1  0.6066821811300  0.4910030525926  0.5166812507882 1.0
C      1  0.3933178191513  0.5089969474246  0.4833187483421 1.0
C      1  0.6388391280730  0.6431935042928  0.5630303782740 1.0
C      1  0.3611608718882  0.3568064952876  0.4369696214990 1.0
C      1  0.4339668990233  0.5662407338248  0.5569919463233 1.0
C      1  0.5660331017640  0.4337592668706  0.4430080538624 1.0
C      1  0.4944099400832  0.3421448467884  0.3452683451013 1.0
C      1  0.5055900597621  0.6578551530541  0.6547316544214 1.0
C      1  0.4682082236657  0.4659808118388  0.4287316391699 1.0
C      1  0.5317917761539  0.5340191881605  0.5712683605506 1.0
C      1  0.4308290195170  0.4933302177923  0.3390842848410 1.0
C      1  0.5691709800411  0.5066697810914  0.6609157141991 1.0
C      1  0.6304152055085  0.4448975431894  0.6087200445385 1.0
C      1  0.3695847953381  0.5551024593306  0.3912799549009 1.0
END
