TITL C-29086-3345-122 -2.369 3375.00 -405.63757925 0 0 50 (C1) n - 1
REM
REM Run started: at 2020.12.20 15:11:43 in /gpfs/home/chem/mssmkc/CARBON/AIRSS/Generating-Clusters/Str-Search/Higher-Symm/C4-100
REM VASP from code version vasp.5.4.4.18Apr17-6-g9f103f2a35 (build Oct 11 2019 16:45:47) gamma-only
REM
REM
REM
REM
REM ./C.cell (6bd13a13d554368a30d355f37ece5b26)
REM AIRSS Version 0.9.1 bugfix July 2018 build 013d7b7c2542+ Fri, 06 Jul 2018 19:26:36 +0100
REM compiler GCC version 6.3.0
REM options -cpp -iprefix /gpfs/warwick/csc/orac/software/Core/GCCcore/6.3.0/bin/../lib/gcc/x86_64-pc-linux-gnu/6.3.0/ -mtune=generic -march=x86-64 -g -O0
REM seed 1733650826 1513981259 1655692271 -1503719285 1287204938 1953044553 96070516 650991408 -144064573 1992908250 -929042798 -994667372
REM
REM C.POTCAR (d86ddea03c3ceb6dc662c8ad6801f873)
REM 
CELL 1.54180   15.00000   15.00000   15.00000   90.00000   90.00000   90.00000
LATT -1
SFAC C  
C      1  0.6069337212223  0.3817118696598  0.3552228547918 1.0
C      1  0.4217993780558  0.3597889890881  0.3570465080743 1.0
C      1  0.3435228799717  0.5311057082406  0.3534448201213 1.0
C      1  0.4815978507060  0.6571437350002  0.3543252459300 1.0
C      1  0.6451830122573  0.5656225332812  0.3535755860634 1.0
C      1  0.4486071557788  0.4376107627052  0.7096409260075 1.0
C      1  0.4213189767999  0.5312640782326  0.7122559840648 1.0
C      1  0.5020785558946  0.5845848295678  0.7092655821481 1.0
C      1  0.5801169583680  0.5230256668010  0.7110498132465 1.0
C      1  0.5476618747014  0.4329392810152  0.7126716431056 1.0
C      1  0.4556219595007  0.7000197488239  0.5773104726554 1.0
C      1  0.6839725603542  0.6067682617123  0.5755074151306 1.0
C      1  0.6605064817061  0.3596230623967  0.5761004690890 1.0
C      1  0.4183851730108  0.3134266302136  0.5808288481792 1.0
C      1  0.2846740929437  0.5220490487441  0.5746204506918 1.0
C      1  0.4737024237559  0.7113807520523  0.4835350424020 1.0
C      1  0.6977718082338  0.5930505558768  0.4811811869426 1.0
C      1  0.6489305896617  0.3402706734177  0.4823939010025 1.0
C      1  0.3977475246891  0.3114192835054  0.4868384487965 1.0
C      1  0.2831625363110  0.5420045136577  0.4801650431415 1.0
C      1  0.6393917556758  0.4537236271652  0.5829852658565 1.0
C      1  0.5061219185172  0.3536941900230  0.5818817229946 1.0
C      1  0.3572033090607  0.4589366253629  0.5859358244830 1.0
C      1  0.4075059198012  0.6162498299665  0.5787188010179 1.0
C      1  0.5885520195945  0.6177906295252  0.5849435014212 1.0
C      1  0.3337978678079  0.6056207273334  0.4152665479054 1.0
C      1  0.5494702728216  0.6870529832234  0.4182466996511 1.0
C      1  0.6954106426998  0.5108145796225  0.4167427948207 1.0
C      1  0.5722439276686  0.3162560990594  0.4184670936382 1.0
C      1  0.3497793075196  0.3771639566591  0.4206960307316 1.0
C      1  0.5778185247479  0.4806831570376  0.5132294803583 1.0
C      1  0.5047210359733  0.4218265763756  0.5164860664711 1.0
C      1  0.4244003637959  0.4698469740281  0.5151008475720 1.0
C      1  0.4487072486885  0.5600948086778  0.5146644722241 1.0
C      1  0.5426782202143  0.5667443337113  0.5162525521828 1.0
C      1  0.6358012893547  0.6394977291405  0.4163660054135 1.0
C      1  0.6734603602019  0.4168294604258  0.4176815075781 1.0
C      1  0.4738791600327  0.3059829081315  0.4192366933274 1.0
C      1  0.3096694780190  0.4660231386467  0.4181386630700 1.0
C      1  0.4071836321395  0.6694765731264  0.4158435744205 1.0
C      1  0.5746181921821  0.5326952747765  0.3008179115588 1.0
C      1  0.5547006004804  0.4378158450515  0.3012474197885 1.0
C      1  0.4589611219494  0.4270453629916  0.3024441677416 1.0
C      1  0.4192677995014  0.5152477482996  0.3005169915717 1.0
C      1  0.4908027044801  0.5803512265390  0.3007188470081 1.0
C      1  0.5168249557527  0.6549150613862  0.6418348197359 1.0
C      1  0.6493794542769  0.5359116665317  0.6382992536404 1.0
C      1  0.5828664960042  0.3727352822712  0.6391322014615 1.0
C      1  0.3947733286909  0.3874469234940  0.6436648994864 1.0
C      1  0.3567133784245  0.5567165174248  0.6374591012845 1.0
END
