TITL C-29086-4869-18 -6.424 3375.00 -1115.64682084 0 0 136 (C1) n - 1
REM
REM Run started: at 2020.12.27 18:48:54 in /gpfs/home/chem/mssmkc/CARBON/AIRSS/Generating-Clusters/Str-Search/Higher-Symm/C100-200
REM VASP from code version vasp.5.4.4.18Apr17-6-g9f103f2a35 (build Oct 11 2019 16:45:47) gamma-only
REM
REM
REM
REM
REM ./C.cell (533062f00bc710175b3da973d35f2034)
REM AIRSS Version 0.9.1 bugfix July 2018 build 013d7b7c2542+ Fri, 06 Jul 2018 19:26:36 +0100
REM compiler GCC version 6.3.0
REM options -cpp -iprefix /gpfs/warwick/csc/orac/software/Core/GCCcore/6.3.0/bin/../lib/gcc/x86_64-pc-linux-gnu/6.3.0/ -mtune=generic -march=x86-64 -g -O0
REM seed 1917647708 -1901590732 -530734755 181271853 1448692696 -77654312 230479852 1855277582 -1685708488 -14683032 -1872616463 -1996321682
REM
REM C.POTCAR (d86ddea03c3ceb6dc662c8ad6801f873)
REM 
CELL 1.54180   15.00000   15.00000   15.00000   90.00000   90.00000   90.00000
LATT -1
SFAC C  
C      1  0.8166022588894  0.5827692088700  0.4840448279752 1.0
C      1  0.5827733684284  0.1833930334138  0.5159601297917 1.0
C      1  0.1833835493103  0.4172196226529  0.4840305444656 1.0
C      1  0.4172229553397  0.8166157171802  0.5159646647190 1.0
C      1  0.3680889383242  0.6933617714710  0.6892995846423 1.0
C      1  0.6933722631145  0.6319084625866  0.3107013886307 1.0
C      1  0.6319004603282  0.3066285218514  0.6892973340107 1.0
C      1  0.3066427283967  0.3680953126216  0.3106982859874 1.0
C      1  0.1942602709751  0.4793347166065  0.4129568451569 1.0
C      1  0.4793383513431  0.8057323168408  0.5870354456880 1.0
C      1  0.8057318319786  0.5206593380095  0.4129680501625 1.0
C      1  0.5206644296803  0.1942635628783  0.5870407998709 1.0
C      1  0.7622901290696  0.4615038939109  0.7457009107359 1.0
C      1  0.4615442387331  0.2377056853719  0.2543192344585 1.0
C      1  0.2376871691978  0.5384641214216  0.7456909084323 1.0
C      1  0.5384867052964  0.7623143202832  0.2543025757833 1.0
C      1  0.6973352782681  0.7181526714020  0.6602285905866 1.0
C      1  0.7181695639511  0.3026855071625  0.3397683949387 1.0
C      1  0.3026725362979  0.2818257992880  0.6602288655508 1.0
C      1  0.2818317125083  0.6973435405751  0.3397741817841 1.0
C      1  0.5999297358291  0.3588538391234  0.7608869453950 1.0
C      1  0.3588616878565  0.4000743560599  0.2391094174709 1.0
C      1  0.4000633201576  0.6411360164784  0.7608897396526 1.0
C      1  0.6411418692332  0.5999429356429  0.2391097256726 1.0
C      1  0.5556371721691  0.4640106900759  0.3833620545133 1.0
C      1  0.4640002989481  0.4443533731675  0.6166318549118 1.0
C      1  0.4443436607753  0.5359937112054  0.3833679707929 1.0
C      1  0.5359830444370  0.5556474030976  0.6166314404558 1.0
C      1  0.6011202045057  0.7722232551471  0.3339493784281 1.0
C      1  0.7722090488018  0.3988818272908  0.6660523173117 1.0
C      1  0.3989298047484  0.2278011971938  0.3339721053359 1.0
C      1  0.2277794146856  0.6010855683797  0.6660379668796 1.0
C      1  0.1783774578962  0.5487473916943  0.8289513741667 1.0
C      1  0.5487479017401  0.8216276700203  0.1710365610998 1.0
C      1  0.8216117395174  0.4512319472447  0.8289639153877 1.0
C      1  0.4512470843996  0.1783845606193  0.1710691771702 1.0
C      1  0.7172181913866  0.6350794039591  0.6920716616737 1.0
C      1  0.6351005027740  0.2827923518344  0.3079099919866 1.0
C      1  0.2827709762000  0.3649009289288  0.6920768902252 1.0
C      1  0.3649120827826  0.7172352083802  0.3079320871272 1.0
C      1  0.4458058881977  0.7031332158931  0.2536105177763 1.0
C      1  0.7031126123200  0.5541933548174  0.7464067806168 1.0
C      1  0.5542163731874  0.2968974694467  0.2535799364438 1.0
C      1  0.2968741745014  0.4457881923945  0.7464047075081 1.0
C      1  0.5493248435124  0.2822244515917  0.6353266643560 1.0
C      1  0.2822252655270  0.4506702755916  0.3646690902891 1.0
C      1  0.4506691008051  0.7177700919753  0.6353295982326 1.0
C      1  0.7177726510104  0.5493269659602  0.3646678760512 1.0
C      1  0.3738911676028  0.4798921701531  0.7878158446148 1.0
C      1  0.4798953403553  0.6261182627762  0.2121917005488 1.0
C      1  0.6261044539350  0.5200984110896  0.7878239658543 1.0
C      1  0.5201055778383  0.3739032843562  0.2121605917802 1.0
C      1  0.3471783366859  0.5337297324948  0.4816251165914 1.0
C      1  0.5337257797886  0.6528230820276  0.5183663288673 1.0
C      1  0.6528098010597  0.4662728367095  0.4816281012477 1.0
C      1  0.4662689973471  0.3471927409024  0.5183726609602 1.0
C      1  0.7194123397342  0.2904943890721  0.5475580120870 1.0
C      1  0.2905025269624  0.2805841138201  0.4524330435318 1.0
C      1  0.2805801296458  0.7094994297809  0.5475639739842 1.0
C      1  0.7095103019475  0.7194137110027  0.4524396349519 1.0
C      1  0.8379418222556  0.4273305230658  0.6020704448918 1.0
C      1  0.4273820841524  0.1620805868446  0.3979600682152 1.0
C      1  0.1620574915103  0.5726315479101  0.6020443208438 1.0
C      1  0.5726740778416  0.8379555249071  0.3979366709500 1.0
C      1  0.4716731789775  0.3251618576523  0.6827277850340 1.0
C      1  0.3251562043091  0.5283285991749  0.3172665373017 1.0
C      1  0.5283215614625  0.6748320314971  0.6827301821128 1.0
C      1  0.6748299980237  0.4716802015497  0.3172691579783 1.0
C      1  0.4610329023229  0.5311019212079  0.2081508525432 1.0
C      1  0.5310857970202  0.5389570717450  0.7918483842005 1.0
C      1  0.5389614030227  0.4689252405171  0.2081420319307 1.0
C      1  0.4689091134894  0.4610321401642  0.7918508844973 1.0
C      1  0.7144245012798  0.3252065949439  0.6410984679373 1.0
C      1  0.3252330172115  0.2855713362115  0.3588997435298 1.0
C      1  0.2855613051346  0.6747747342060  0.6411017833232 1.0
C      1  0.6747940511104  0.7144328497938  0.3588985593300 1.0
C      1  0.6853264149477  0.6382164600486  0.5978903388992 1.0
C      1  0.6382209801121  0.3146765297475  0.4020976551966 1.0
C      1  0.3146676490779  0.3617754759431  0.5978952070188 1.0
C      1  0.3617730971615  0.6853342902855  0.4021097153521 1.0
C      1  0.5586986482969  0.4672095607611  0.6144685409963 1.0
C      1  0.4671982865657  0.4412958077109  0.3855261196961 1.0
C      1  0.4412892782389  0.5327954840430  0.6144673918437 1.0
C      1  0.5327871140022  0.5587073011253  0.3855310741458 1.0
C      1  0.6112684116893  0.8423729286869  0.4837292619457 1.0
C      1  0.8423697965435  0.3887396614987  0.5162769423195 1.0
C      1  0.3887603895367  0.1576377246973  0.4837373317458 1.0
C      1  0.1576310070466  0.6112482265184  0.5162643475794 1.0
C      1  0.3917932652134  0.5752875673347  0.5505512316196 1.0
C      1  0.5752780587762  0.6082065162401  0.4494402174204 1.0
C      1  0.6081972558602  0.4247209814232  0.5505550678484 1.0
C      1  0.4247122974864  0.3918060195476  0.4494460025432 1.0
C      1  0.5758991140537  0.6542630290861  0.1930927493656 1.0
C      1  0.6542509000316  0.4240937186409  0.8069084003312 1.0
C      1  0.4241023318418  0.3457568262973  0.1930839005766 1.0
C      1  0.3457455171336  0.5758954364197  0.8069076383876 1.0
C      1  0.5142110188109  0.1273744693741  0.4006523141082 1.0
C      1  0.1273525938736  0.4858307502287  0.5993730801919 1.0
C      1  0.4858709802234  0.8726609560167  0.4005927889469 1.0
C      1  0.8726447286725  0.5141536658850  0.5994046895731 1.0
C      1  0.2720596486734  0.3695843320881  0.5030378980183 1.0
C      1  0.3695797535047  0.7279422015793  0.4969642451862 1.0
C      1  0.7279345138254  0.6304134306234  0.5030374680661 1.0
C      1  0.6304109341919  0.2720669026346  0.4969559353821 1.0
C      1  0.4171513071048  0.3619612741251  0.6036246556321 1.0
C      1  0.3619516340729  0.5828494243330  0.3963769155797 1.0
C      1  0.5828424747815  0.6380383151493  0.6036176403481 1.0
C      1  0.6380310892679  0.4171574118120  0.3963760142391 1.0
C      1  0.4959813889820  0.6251788602364  0.7580904168467 1.0
C      1  0.6251787323671  0.5040258694852  0.2419096021386 1.0
C      1  0.5040124708084  0.3748120506610  0.7580878574147 1.0
C      1  0.3748122516457  0.4959950136605  0.2419047897753 1.0
C      1  0.5795140753730  0.1137159877785  0.4508103537421 1.0
C      1  0.1137234947941  0.4204930106524  0.5491747054458 1.0
C      1  0.4205483565567  0.8862523479938  0.4508064384733 1.0
C      1  0.8862424479301  0.5794547345637  0.5492148341439 1.0
C      1  0.7411946747526  0.4164630383603  0.8385925771377 1.0
C      1  0.4164706681710  0.2587951286773  0.1614447874118 1.0
C      1  0.2587820746794  0.5835150619792  0.8385689692858 1.0
C      1  0.5835161177173  0.7412107939961  0.1614112958059 1.0
C      1  0.4350664004333  0.6656304841169  0.5435905283023 1.0
C      1  0.6656226821677  0.5649348123303  0.4564064044850 1.0
C      1  0.5649279660631  0.3343743468022  0.5435868798503 1.0
C      1  0.3343664329254  0.4350719267677  0.4564096739059 1.0
C      1  0.6616275853861  0.7925843870025  0.6073002574683 1.0
C      1  0.7925962257035  0.3383798684039  0.3927008659405 1.0
C      1  0.3383756628989  0.2074024589694  0.6072996568159 1.0
C      1  0.2074024045310  0.6616317196462  0.3926989587180 1.0
C      1  0.3155353667046  0.2111259746554  0.5081405341444 1.0
C      1  0.2111191297623  0.6844699120779  0.4918567709730 1.0
C      1  0.6844762586429  0.7888770599913  0.5081454437120 1.0
C      1  0.7888764261108  0.3155283034403  0.4918553406427 1.0
C      1  0.4255431396082  0.1704046066062  0.5779594458399 1.0
C      1  0.1704039285608  0.5744601942492  0.4220371174504 1.0
C      1  0.5744674712586  0.8295918336397  0.5779558432145 1.0
C      1  0.8295975654840  0.4255378301633  0.4220527108710 1.0
END
