TITL C-29469-8165-66 -0.429 3375.00 -64.85291820 0 0 9 (D3h) n - 1
REM
REM Run started: at 2021.01.04 19:54:48 in /gpfs/home/chem/mssmkc/CARBON/AIRSS/Generating-Clusters/Str-Search/Higher-Symm/C4-100
REM VASP from code version vasp.5.4.4.18Apr17-6-g9f103f2a35 (build Oct 11 2019 16:45:47) gamma-only
REM
REM
REM
REM
REM ./C.cell (6bd13a13d554368a30d355f37ece5b26)
REM AIRSS Version 0.9.1 bugfix July 2018 build 013d7b7c2542+ Fri, 06 Jul 2018 19:26:36 +0100
REM compiler GCC version 6.3.0
REM options -cpp -iprefix /gpfs/warwick/csc/orac/software/Core/GCCcore/6.3.0/bin/../lib/gcc/x86_64-pc-linux-gnu/6.3.0/ -mtune=generic -march=x86-64 -g -O0
REM seed -1522199806 1548997844 705663636 889405134 27661544 -811214673 -359591425 131268328 1851564952 -464054134 1443875804 -435387783
REM
REM C.POTCAR (d86ddea03c3ceb6dc662c8ad6801f873)
REM 
CELL 1.54180   15.00000   15.00000   15.00000   90.00000   90.00000   90.00000
LATT -1
SFAC C  
C      1  0.5805517477086  0.4518827189557  0.4875634993357 1.0
C      1  0.4180899269742  0.4543125033960  0.4876375865382 1.0
C      1  0.5014464713134  0.5937200843063  0.4876021065718 1.0
C      1  0.5805725260777  0.5481144179209  0.4875353231940 1.0
C      1  0.4181021231109  0.5456834193317  0.4875765776537 1.0
C      1  0.5014353681960  0.4062707211593  0.4875834926770 1.0
C      1  0.5841764155390  0.6460284155557  0.4878158189845 1.0
C      1  0.5841858194603  0.3539730911558  0.4877334831929 1.0
C      1  0.3314396016200  0.5000146282185  0.4876713118522 1.0
END
