TITL C-29737-7294-2 -7.142 3375.00 -1280.45481339 0 0 156 (C1) n - 1
REM
REM Run started: at 2021.01.04 08:12:48 in /gpfs/home/chem/mssmkc/CARBON/AIRSS/Generating-Clusters/Str-Search/Higher-Symm/C100-200
REM VASP from code version vasp.5.4.4.18Apr17-6-g9f103f2a35 (build Oct 11 2019 16:45:47) gamma-only
REM
REM
REM
REM
REM ./C.cell (533062f00bc710175b3da973d35f2034)
REM AIRSS Version 0.9.1 bugfix July 2018 build 013d7b7c2542+ Fri, 06 Jul 2018 19:26:36 +0100
REM compiler GCC version 6.3.0
REM options -cpp -iprefix /gpfs/warwick/csc/orac/software/Core/GCCcore/6.3.0/bin/../lib/gcc/x86_64-pc-linux-gnu/6.3.0/ -mtune=generic -march=x86-64 -g -O0
REM seed 790035758 -658855114 -1435505417 1000248449 -496977581 -2095547954 -1962836081 -1961314668 1382213639 -1414315894 -1663065856 -581364496
REM
REM C.POTCAR (d86ddea03c3ceb6dc662c8ad6801f873)
REM 
CELL 1.54180   15.00000   15.00000   15.00000   90.00000   90.00000   90.00000
LATT -1
SFAC C  
C      1  0.1756814339985  0.5470023928501  0.4237346133620 1.0
C      1  0.1761252275434  0.4451911480310  0.4118852659210 1.0
C      1  0.1764889188526  0.4036755024050  0.5062295018311 1.0
C      1  0.1679056402116  0.4807460438239  0.5711711640884 1.0
C      1  0.1674652663798  0.5674493217245  0.5204962085884 1.0
C      1  0.8777458749338  0.5024983350048  0.4115354291847 1.0
C      1  0.8655181718147  0.4036909216733  0.4100366756133 1.0
C      1  0.8683669377851  0.3640443818222  0.5035036440351 1.0
C      1  0.8985514930559  0.4426942604926  0.5595851909561 1.0
C      1  0.9002183299048  0.5261968576177  0.5030805444455 1.0
C      1  0.4193767395398  0.2832882394905  0.3981774781732 1.0
C      1  0.4136680576143  0.3467165738825  0.6603476643856 1.0
C      1  0.3846643046192  0.5963673919468  0.7005562988026 1.0
C      1  0.3990882497531  0.7278471550529  0.4867291579087 1.0
C      1  0.4398284697983  0.5502417113764  0.2965038890487 1.0
C      1  0.6189278104588  0.3052368961055  0.4108012696898 1.0
C      1  0.6147669565380  0.3832274978863  0.7172363266047 1.0
C      1  0.5462383616400  0.6135018175269  0.7844204395223 1.0
C      1  0.6122446654094  0.7825648897176  0.4611707423058 1.0
C      1  0.6372395553504  0.5150207505510  0.2446462420315 1.0
C      1  0.5275284179222  0.6156385235369  0.1925988932267 1.0
C      1  0.5465110729143  0.2666587687796  0.3051841795837 1.0
C      1  0.5409435810722  0.2496864987532  0.6862129463847 1.0
C      1  0.4511690203629  0.6149363215406  0.8428323950946 1.0
C      1  0.4801559807653  0.8490867508802  0.5176709243241 1.0
C      1  0.4297595448100  0.6113405440736  0.2106783125488 1.0
C      1  0.4591135756860  0.2940201107840  0.3047434113600 1.0
C      1  0.4496795992826  0.2578693364330  0.6576420083746 1.0
C      1  0.3676442597988  0.5907404091194  0.7998869601329 1.0
C      1  0.3837472850816  0.8251643583488  0.5159813464625 1.0
C      1  0.2585632311847  0.4320154663541  0.2568629033124 1.0
C      1  0.2717638118720  0.2567951736408  0.4752381863783 1.0
C      1  0.2497215950976  0.3995905502215  0.7071853669556 1.0
C      1  0.2360062258005  0.6670707798564  0.6468219411422 1.0
C      1  0.2632093374684  0.7007394626612  0.3811329403198 1.0
C      1  0.7645593179336  0.3959542663545  0.2671862571477 1.0
C      1  0.7394270347883  0.2329696834721  0.4885002072113 1.0
C      1  0.8471785105845  0.3764797355937  0.7076362079440 1.0
C      1  0.9007247229737  0.6479513480716  0.6209308527911 1.0
C      1  0.8089118319420  0.6572566519116  0.3546717220945 1.0
C      1  0.2955210655511  0.6642400202337  0.7961248966233 1.0
C      1  0.3261290140628  0.8391357181591  0.4336511353068 1.0
C      1  0.3642326208803  0.5472250456880  0.1627056397478 1.0
C      1  0.3381682923822  0.1578550989874  0.3795197230423 1.0
C      1  0.3166904471595  0.2809716215209  0.7807505724821 1.0
C      1  0.4942061597934  0.6938319240009  0.8087870506168 1.0
C      1  0.5321356488241  0.8342004512196  0.4349118054557 1.0
C      1  0.5711745828058  0.5332355712237  0.1700332363033 1.0
C      1  0.5795515121438  0.2161773048440  0.3845270269705 1.0
C      1  0.5537142503750  0.3178367295725  0.7591861234717 1.0
C      1  0.6423182926243  0.5874900012871  0.3933561932380 1.0
C      1  0.7008378627023  0.4015191030834  0.5031899726860 1.0
C      1  0.7019396540261  0.4254525094700  0.5928028613009 1.0
C      1  0.6940179271962  0.6426314037064  0.6288546549579 1.0
C      1  0.6607091933996  0.6427568370038  0.4622439582420 1.0
C      1  0.3469360350551  0.4997147865128  0.4053060596292 1.0
C      1  0.3348394380039  0.4152010684308  0.4637296460802 1.0
C      1  0.3361064851303  0.4479077794801  0.5632675690367 1.0
C      1  0.3426282850843  0.5536051120377  0.5615758747415 1.0
C      1  0.3577342760685  0.5817336030974  0.4645437710668 1.0
C      1  0.5080985029880  0.5377684156369  0.8462985496219 1.0
C      1  0.5113421325942  0.8010967973907  0.5942014789176 1.0
C      1  0.5635956420165  0.6726736938136  0.2592064095361 1.0
C      1  0.6126667222991  0.3449330639490  0.3088163797170 1.0
C      1  0.5910672889252  0.2142783782035  0.6019279773885 1.0
C      1  0.3600186455512  0.4898792544795  0.8103757303468 1.0
C      1  0.3545844243712  0.7984669176297  0.6106512714421 1.0
C      1  0.4044236570067  0.6952448869754  0.2608456543745 1.0
C      1  0.4234684371437  0.3698332964814  0.2502856836288 1.0
C      1  0.4213280643497  0.2108613024112  0.5778446916283 1.0
C      1  0.7906204502701  0.5516700150271  0.2703206941394 1.0
C      1  0.7609423402250  0.2873799858972  0.3560575636014 1.0
C      1  0.7705108655514  0.2595958354532  0.6157338406816 1.0
C      1  0.8472449376860  0.5172087312438  0.7048156285788 1.0
C      1  0.8459799082240  0.6966707421487  0.5024440798142 1.0
C      1  0.2652061662491  0.6015930170420  0.2847523866078 1.0
C      1  0.2696333668603  0.3156095333727  0.3364867230575 1.0
C      1  0.2688501924418  0.2896400977828  0.6115056302862 1.0
C      1  0.2171387273106  0.5317007679478  0.7344773745262 1.0
C      1  0.2217996384644  0.7418504992805  0.5280530600776 1.0
C      1  0.6894076034426  0.2199217081546  0.5779708146089 1.0
C      1  0.7900050532326  0.4484869804154  0.7390701498572 1.0
C      1  0.8382112305492  0.7171417971954  0.5971779338887 1.0
C      1  0.7463456795252  0.6342930438155  0.2869098466141 1.0
C      1  0.7053425997123  0.3273586185793  0.2826115893714 1.0
C      1  0.3287904265744  0.2285357138537  0.5559002136630 1.0
C      1  0.2754279948823  0.4660912224241  0.7760846968857 1.0
C      1  0.2684239755726  0.7587424179409  0.6126751267911 1.0
C      1  0.3145382665917  0.6894841512606  0.2915191700968 1.0
C      1  0.3202869955588  0.3622070160884  0.2607790376571 1.0
C      1  0.4160464281106  0.4808459172988  0.1264565238136 1.0
C      1  0.4209505313329  0.1813252932961  0.4052763314358 1.0
C      1  0.3928302938802  0.3059390244655  0.8090447829072 1.0
C      1  0.3392816952746  0.7449915353882  0.7795224413925 1.0
C      1  0.3838181456161  0.8389337310902  0.3593908192504 1.0
C      1  0.5109885464708  0.4707845079811  0.1351684239849 1.0
C      1  0.5149160699482  0.1712341033357  0.4429492162475 1.0
C      1  0.4736012987181  0.3557293810280  0.8093482763156 1.0
C      1  0.4321925910169  0.7486723226855  0.7518999405317 1.0
C      1  0.4767337199050  0.8107154842009  0.3575867210775 1.0
C      1  0.8465746032339  0.6070237548617  0.6882741213342 1.0
C      1  0.7913119365407  0.7139420588742  0.4277707510259 1.0
C      1  0.7364919122750  0.4828649923537  0.2438902267715 1.0
C      1  0.7409321975590  0.1947530268054  0.3957420769517 1.0
C      1  0.7792183796733  0.3150479968615  0.6899767914305 1.0
C      1  0.2243749386957  0.6299235804154  0.7407945607735 1.0
C      1  0.2467827489728  0.7813626517926  0.4409925749787 1.0
C      1  0.2905138941182  0.5228555612926  0.2300222344325 1.0
C      1  0.2668327346743  0.2155133688600  0.3813464101943 1.0
C      1  0.2532094490341  0.2987981714361  0.7150873444540 1.0
C      1  0.8263976055571  0.3610557616585  0.3383888964855 1.0
C      1  0.8217842210402  0.2818256395119  0.5336404173390 1.0
C      1  0.8944085609879  0.4440164312201  0.6538199644452 1.0
C      1  0.9047429294047  0.6165652947115  0.5286036322547 1.0
C      1  0.8522835776717  0.5653004587683  0.3467954144871 1.0
C      1  0.2052113118975  0.3991339928419  0.3344373371900 1.0
C      1  0.2088104447497  0.3162437933249  0.5308465876517 1.0
C      1  0.1876749436451  0.4710004945891  0.6639479549783 1.0
C      1  0.1856232813894  0.6537193476836  0.5577894262293 1.0
C      1  0.2071190014155  0.6129076681140  0.3635860474193 1.0
C      1  0.4718048993288  0.4495650814901  0.3016594811480 1.0
C      1  0.4769995580505  0.3332551140260  0.4619891999414 1.0
C      1  0.4765478894844  0.4098964212110  0.6365063817832 1.0
C      1  0.4665488871270  0.5862418149911  0.6559365503132 1.0
C      1  0.4792460059925  0.6872127037481  0.4971431256584 1.0
C      1  0.5807946393719  0.4476942995254  0.3096322993466 1.0
C      1  0.5630330328598  0.3549476790713  0.4678069017368 1.0
C      1  0.5656176082924  0.4266751122462  0.6526777275819 1.0
C      1  0.5493251062611  0.5928735093524  0.6899780221604 1.0
C      1  0.5622208193484  0.7277747247074  0.5393758842349 1.0
C      1  0.3161894282370  0.6060980705422  0.6381833454661 1.0
C      1  0.3344904370142  0.6726780424200  0.4439577637640 1.0
C      1  0.3421238072196  0.5371333928199  0.3162552293979 1.0
C      1  0.3263115730958  0.3253617266049  0.4189760756499 1.0
C      1  0.3220082650126  0.3781720169461  0.6345148973678 1.0
C      1  0.7748662179935  0.6690517377833  0.6575512465637 1.0
C      1  0.6909551816545  0.7356308371082  0.4404287808775 1.0
C      1  0.6467362987236  0.6151198565509  0.2944661451997 1.0
C      1  0.7097845149730  0.3174670223818  0.4443571606555 1.0
C      1  0.7126628199574  0.3916495160530  0.6936156289319 1.0
C      1  0.5902906801378  0.5039592251226  0.4013916836119 1.0
C      1  0.6088105837103  0.4449224114488  0.4861527520558 1.0
C      1  0.6193854393959  0.4802963727763  0.5882204991661 1.0
C      1  0.6212756048710  0.5773132736170  0.6240656778239 1.0
C      1  0.6295499216960  0.6534108873967  0.5569922810593 1.0
C      1  0.4426119905790  0.4674568924242  0.3961903917968 1.0
C      1  0.4340525970223  0.4140622201940  0.4758538786966 1.0
C      1  0.4383148521123  0.4557301988430  0.5639309977722 1.0
C      1  0.4455401420962  0.5525384239171  0.5678498323471 1.0
C      1  0.4616120544208  0.5947440975286  0.4775509808922 1.0
C      1  0.4516069532810  0.4555943351632  0.8241860692887 1.0
C      1  0.4893205558958  0.7335604343358  0.2934147230198 1.0
C      1  0.4526167583835  0.3978055619884  0.1551531553463 1.0
C      1  0.4372078339865  0.7855731682033  0.6612105952692 1.0
C      1  0.5141888190358  0.1854315018502  0.5379450417756 1.0
C      1  0.4965652285877  0.5465919480416  0.3993383768219 1.0
END
