TITL C-29086-3345-154 -1.128 3375.00 -180.84044561 0 0 24 (C2) n - 1
REM
REM Run started: at 2020.12.20 20:11:22 in /gpfs/home/chem/mssmkc/CARBON/AIRSS/Generating-Clusters/Str-Search/Higher-Symm/C4-100
REM VASP from code version vasp.5.4.4.18Apr17-6-g9f103f2a35 (build Oct 11 2019 16:45:47) gamma-only
REM
REM
REM
REM
REM ./C.cell (6bd13a13d554368a30d355f37ece5b26)
REM AIRSS Version 0.9.1 bugfix July 2018 build 013d7b7c2542+ Fri, 06 Jul 2018 19:26:36 +0100
REM compiler GCC version 6.3.0
REM options -cpp -iprefix /gpfs/warwick/csc/orac/software/Core/GCCcore/6.3.0/bin/../lib/gcc/x86_64-pc-linux-gnu/6.3.0/ -mtune=generic -march=x86-64 -g -O0
REM seed 196506194 1016169388 1256979155 1175839703 -362216750 995500735 -1583823738 -2069348092 1639258891 -1894679336 929587579 -1335037168
REM
REM C.POTCAR (d86ddea03c3ceb6dc662c8ad6801f873)
REM 
CELL 1.54180   15.00000   15.00000   15.00000   90.00000   90.00000   90.00000
LATT -1
SFAC C  
C      1  0.5403212927023  0.4062153914429  0.4058043401070 1.0
C      1  0.4027838642133  0.4720311916313  0.4234568427880 1.0
C      1  0.4007201121444  0.6186993853829  0.4289228901071 1.0
C      1  0.5588180206006  0.5853004713546  0.3736554271929 1.0
C      1  0.6524327761518  0.4858134043148  0.4074567574927 1.0
C      1  0.5181182420213  0.3998696997661  0.5910231177172 1.0
C      1  0.3833530532714  0.4267888086592  0.5904918434427 1.0
C      1  0.4288914797500  0.5551160282193  0.6260279090470 1.0
C      1  0.5593975492446  0.6513866471692  0.5722975559702 1.0
C      1  0.6166934795420  0.5162619708514  0.5747713184367 1.0
C      1  0.4356349156954  0.3647751044219  0.5404081953302 1.0
C      1  0.3592926527051  0.5209356679324  0.5656569815159 1.0
C      1  0.4888454981023  0.6250932926757  0.6108726818715 1.0
C      1  0.6281867751594  0.6018859000542  0.5266844396910 1.0
C      1  0.6148629279635  0.4185094011665  0.5547704931992 1.0
C      1  0.4443869338879  0.3831435257591  0.4418879885025 1.0
C      1  0.3579661193984  0.5447659832646  0.4733323303658 1.0
C      1  0.4755712068684  0.6243862174489  0.3900223963307 1.0
C      1  0.6364012782375  0.5812183757978  0.4339493959906 1.0
C      1  0.6300596653714  0.4069866532278  0.4560512775565 1.0
C      1  0.5323213861312  0.4867722241422  0.5450612056659 1.0
C      1  0.4918817739908  0.4788699367461  0.4532704569709 1.0
C      1  0.5763814380252  0.4857994640696  0.3448043478704 1.0
C      1  0.4530065588216  0.4564488545015  0.6536634068373 1.0
END
