TITL C-29262-3963-7 -6.973 3375.00 -976.66250329 0 0 123 (C1) n - 1
REM
REM Run started: at 2020.12.30 08:13:24 in /rds/project/t2_vol4/rds-t2-cs072/BORA/CARBON/AIRSS/Generating-Clusters/Str-Search/Higher-Symm/C100-200
REM VASP from code version vasp.5.4.4.18Apr17-6-g9f103f2a35 (build Oct 11 2019 16:45:47) gamma-only
REM
REM
REM
REM
REM ./C.cell (533062f00bc710175b3da973d35f2034)
REM AIRSS Version 0.9.1 bugfix July 2018 build 013d7b7c2542+ Fri, 06 Jul 2018 19:26:36 +0100
REM compiler GCC version 4.8.5 20150623 (Red Hat 4.8.5-39)
REM options -cpp -mtune=generic -march=x86-64 -g -O0
REM seed -1647189507 -1118076883 464859943 -200290897 -145120132 -1962889512 880075191 1847450978 -697768824 1955813280 -142113262 -1237204410
REM
REM C.POTCAR (d86ddea03c3ceb6dc662c8ad6801f873)
REM 
CELL 1.54180   15.00000   15.00000   15.00000   90.00000   90.00000   90.00000
LATT -1
SFAC C  
C      1  0.8156026016253  0.3295227997096  0.7550592888499 1.0
C      1  0.2049480643486  0.1317048296542  0.5646483642483 1.0
C      1  0.8220868371578  0.1780860429498  0.4366804029291 1.0
C      1  0.1807641590835  0.3121320604870  0.2706617059941 1.0
C      1  0.8056194236919  0.4790897662878  0.1656892295394 1.0
C      1  0.1785894691208  0.6733238243971  0.2612908350319 1.0
C      1  0.8228890901161  0.7962812548609  0.3918912748654 1.0
C      1  0.2080433872575  0.8664722935929  0.5603297134746 1.0
C      1  0.8202618194239  0.6882999478460  0.7346326611937 1.0
C      1  0.1865334360379  0.5279971370065  0.8419682134234 1.0
C      1  0.5719075615812  0.1926723291748  0.6889480443935 1.0
C      1  0.4262736509344  0.1390955290400  0.4459118393800 1.0
C      1  0.5872259191451  0.2268610430592  0.2643355727612 1.0
C      1  0.4033407460858  0.4431862705772  0.1615872596167 1.0
C      1  0.5667994781325  0.6422430972326  0.1731742565605 1.0
C      1  0.4209257280139  0.8134575561449  0.3273958192142 1.0
C      1  0.5857182077387  0.8480217741581  0.5418114887620 1.0
C      1  0.4202675048429  0.7739118411676  0.7342295142299 1.0
C      1  0.5883580422413  0.5592365098038  0.8414785757755 1.0
C      1  0.4201134865868  0.3559839310531  0.8107833770072 1.0
C      1  0.4396546793073  0.6111208659134  0.7202389049547 1.0
C      1  0.5378848959459  0.4617293761344  0.7202398072273 1.0
C      1  0.4528640343860  0.3118565803864  0.6527293706052 1.0
C      1  0.5527480193298  0.2491387223365  0.5352073018569 1.0
C      1  0.4740376572248  0.2787623561189  0.3725658840600 1.0
C      1  0.5523602406096  0.3910105517964  0.2813823714797 1.0
C      1  0.4469510600927  0.5421711408344  0.2836654493980 1.0
C      1  0.5483134810148  0.6862369407317  0.3292202143211 1.0
C      1  0.4643333666224  0.7612674629115  0.4725133776538 1.0
C      1  0.5288786190564  0.7097166891968  0.6229317914884 1.0
C      1  0.6401065053732  0.4988257548183  0.1839827310349 1.0
C      1  0.3434653448650  0.6814065235340  0.2767916483447 1.0
C      1  0.6581561802464  0.7932104100420  0.4068259373400 1.0
C      1  0.3414217309354  0.7969959429405  0.5956569871511 1.0
C      1  0.6557815406240  0.6693520260106  0.7400226663535 1.0
C      1  0.3499686268166  0.5016665654294  0.8151194438231 1.0
C      1  0.6499031553930  0.3248585416396  0.7348797255618 1.0
C      1  0.3428992881271  0.1991092930353  0.5754753136813 1.0
C      1  0.6604203335325  0.2005577475343  0.4079145157815 1.0
C      1  0.3451871456013  0.3256243573411  0.2620490210790 1.0
C      1  0.7390873898259  0.4800520788044  0.3122578102641 1.0
C      1  0.2517544125751  0.5903282041786  0.3777459040639 1.0
C      1  0.7469776951585  0.6559044218005  0.4182608210763 1.0
C      1  0.2300129401273  0.6811919106954  0.5577386062611 1.0
C      1  0.7451354176534  0.6094507703602  0.6157964634274 1.0
C      1  0.2424753391624  0.5078127629988  0.6926424117837 1.0
C      1  0.7452265381960  0.4095996245879  0.6345943862672 1.0
C      1  0.2273894126659  0.3176731863563  0.5678797697563 1.0
C      1  0.7534892590929  0.3257048099767  0.4511239432798 1.0
C      1  0.2561565799709  0.3926987973870  0.3860608688511 1.0
C      1  0.8614125371757  0.4687363583670  0.1029263153471 1.0
C      1  0.1190070091343  0.7019762100716  0.2085312042988 1.0
C      1  0.8863492675368  0.8522065980094  0.3903611366881 1.0
C      1  0.2041017883753  0.9513320992735  0.5621938657737 1.0
C      1  0.8810757195213  0.7310134917677  0.7753796673840 1.0
C      1  0.1266567111338  0.5339793945440  0.9014241211277 1.0
C      1  0.8792241427541  0.2938330912971  0.7979451533463 1.0
C      1  0.2032444892055  0.0466071265459  0.5634557226150 1.0
C      1  0.8766772999605  0.1136939062478  0.4407579195921 1.0
C      1  0.1216641602145  0.2667901082405  0.2303843210228 1.0
C      1  0.5226680071398  0.6248435576621  0.3995073530857 1.0
C      1  0.4841361764020  0.6657677385997  0.4753976537254 1.0
C      1  0.4961707933782  0.6281720448965  0.5670361587556 1.0
C      1  0.4378745758497  0.5699122572132  0.6365909556554 1.0
C      1  0.4919736799404  0.4770074937371  0.6303967529118 1.0
C      1  0.4704450087119  0.3863761224278  0.5839629244361 1.0
C      1  0.5370979462661  0.3398790124752  0.5183591313810 1.0
C      1  0.4964028924885  0.3619016176616  0.4272395289232 1.0
C      1  0.5358965664298  0.4293091900055  0.3631662948481 1.0
C      1  0.4971967752092  0.5256026951407  0.3795837327996 1.0
C      1  0.2323451164985  0.5888514765218  0.5443063933828 1.0
C      1  0.7496135927649  0.5530223098918  0.5483851317123 1.0
C      1  0.2301647205727  0.5015241061502  0.6058721178315 1.0
C      1  0.7500468639182  0.4533316716548  0.5586319055273 1.0
C      1  0.2306608831041  0.4092287287601  0.5512931953132 1.0
C      1  0.7521887700691  0.4123090264270  0.4668502118791 1.0
C      1  0.2425540804962  0.4443033158330  0.4574469886316 1.0
C      1  0.7489322009575  0.4870645581416  0.3996622901433 1.0
C      1  0.2418846781394  0.5454178686179  0.4533441954698 1.0
C      1  0.7499479828677  0.5739054432657  0.4502748680229 1.0
C      1  0.4119940090640  0.2287571147216  0.6262915735649 1.0
C      1  0.5841510518422  0.1960387151976  0.4583924659530 1.0
C      1  0.4219677837391  0.2861216051425  0.2913510768792 1.0
C      1  0.5652692165965  0.4518926177011  0.2069420417652 1.0
C      1  0.4166694530120  0.6299056864887  0.2560317199723 1.0
C      1  0.5818015834798  0.7732958244231  0.3600943977716 1.0
C      1  0.4171584448711  0.8037730371605  0.5454315000480 1.0
C      1  0.5794611929081  0.7042139105668  0.7049335289513 1.0
C      1  0.4240448617681  0.5524093727718  0.7957899642423 1.0
C      1  0.5736197730641  0.3739709829059  0.7419471289546 1.0
C      1  0.5123645377902  0.7951626664087  0.5707318027487 1.0
C      1  0.4820495877425  0.7014957656613  0.7211133911884 1.0
C      1  0.5177156065192  0.5195225575247  0.7957809580787 1.0
C      1  0.4809107610574  0.3379946656906  0.7445364011414 1.0
C      1  0.5107210481579  0.2197577374518  0.6199646324025 1.0
C      1  0.4948574436442  0.1924657111105  0.4166538366273 1.0
C      1  0.5202546830869  0.2956820705262  0.2763070752873 1.0
C      1  0.4718637745990  0.4853894708504  0.2076422035200 1.0
C      1  0.5097842868231  0.6639683741897  0.2426460476033 1.0
C      1  0.4912802168144  0.8032795464651  0.3862820051079 1.0
C      1  0.3617901346287  0.7740523613936  0.2837205570872 1.0
C      1  0.6429835324792  0.8498174845271  0.4822148358535 1.0
C      1  0.3599721695549  0.8071911090154  0.6888731532906 1.0
C      1  0.6391581572891  0.6217364597159  0.8202958361161 1.0
C      1  0.3725736017131  0.4148610297145  0.8450344584574 1.0
C      1  0.6307648485661  0.2309116902992  0.7323236309264 1.0
C      1  0.3719462140081  0.1382424262923  0.5088837571019 1.0
C      1  0.6428139829289  0.1920373238871  0.3142743881057 1.0
C      1  0.3588302370015  0.3763135189432  0.1837099412996 1.0
C      1  0.6179500749664  0.5829244278433  0.1457036440662 1.0
C      1  0.7455931979886  0.7443723869728  0.4034415227773 1.0
C      1  0.2473868235203  0.7723824244450  0.5650176932299 1.0
C      1  0.7431126624917  0.6560343725922  0.6924323585034 1.0
C      1  0.2563119814156  0.5159363062254  0.7811081089234 1.0
C      1  0.7399158128749  0.3581018071475  0.7079092772240 1.0
C      1  0.2457413216821  0.2264351786311  0.5698320804937 1.0
C      1  0.7496834505359  0.2373534324572  0.4357361713745 1.0
C      1  0.2595292130578  0.3426453363297  0.3120184838293 1.0
C      1  0.7314510676856  0.4831732330200  0.2225607855510 1.0
C      1  0.2553832531873  0.6454378060712  0.3075631557787 1.0
C      1  0.5197281640911  0.5326722661963  0.5498620189623 1.0
C      1  0.4336765422470  0.4130938416702  0.4910248531915 1.0
C      1  0.4681358005927  0.4990164701689  0.4757959389405 1.0
END
