TITL C-29123-7884-136 -3.387 3375.00 -565.62428881 0 0 71 (C1) n - 1
REM
REM Run started: at 2020.12.20 21:53:03 in /gpfs/home/chem/mssmkc/CARBON/AIRSS/Generating-Clusters/Str-Search/Higher-Symm/C4-100
REM VASP from code version vasp.5.4.4.18Apr17-6-g9f103f2a35 (build Oct 11 2019 16:45:47) gamma-only
REM
REM
REM
REM
REM ./C.cell (6bd13a13d554368a30d355f37ece5b26)
REM AIRSS Version 0.9.1 bugfix July 2018 build 013d7b7c2542+ Fri, 06 Jul 2018 19:26:36 +0100
REM compiler GCC version 6.3.0
REM options -cpp -iprefix /gpfs/warwick/csc/orac/software/Core/GCCcore/6.3.0/bin/../lib/gcc/x86_64-pc-linux-gnu/6.3.0/ -mtune=generic -march=x86-64 -g -O0
REM seed 758191736 1022223849 1982932836 1881402398 1043283644 35423419 1821664651 -659148457 1390404022 -272419894 528383460 549601960
REM
REM C.POTCAR (d86ddea03c3ceb6dc662c8ad6801f873)
REM 
CELL 1.54180   15.00000   15.00000   15.00000   90.00000   90.00000   90.00000
LATT -1
SFAC C  
C      1  0.5674469854107  0.3616236064596  0.2916408217801 1.0
C      1  0.5703148520750  0.6283130824399  0.3142362760954 1.0
C      1  0.7162394637360  0.3933319478950  0.5722177354165 1.0
C      1  0.6977400067365  0.6105125260008  0.5590697459952 1.0
C      1  0.5335980589099  0.5471045897568  0.5266303936437 1.0
C      1  0.5307293181064  0.4416871598106  0.5422388539644 1.0
C      1  0.2982960070362  0.2164471125816  0.5396224232723 1.0
C      1  0.2984963611164  0.7790155641144  0.5416333613077 1.0
C      1  0.2822018231930  0.6363887663507  0.4534080421621 1.0
C      1  0.2767117047661  0.3548877037826  0.4512415788439 1.0
C      1  0.3285487963334  0.3214645670780  0.3724545249204 1.0
C      1  0.3376053540240  0.6679692990085  0.3752350152599 1.0
C      1  0.7011211736297  0.4383017467825  0.4087764398073 1.0
C      1  0.6988129798431  0.6133489712984  0.4041040789869 1.0
C      1  0.4498553250389  0.7634540110435  0.4696044313943 1.0
C      1  0.4466322062247  0.2298952605231  0.4657605279148 1.0
C      1  0.2671619856825  0.7074191038625  0.5097429103187 1.0
C      1  0.2595844595362  0.2830982919850  0.5063022425682 1.0
C      1  0.6206974588837  0.7350885989981  0.5112583135165 1.0
C      1  0.6106128482884  0.2878841396120  0.5034450836522 1.0
C      1  0.6540836490935  0.3744003326858  0.2710048073614 1.0
C      1  0.6649915059716  0.6042241386704  0.3147961719140 1.0
C      1  0.6971106220303  0.5264505272310  0.2678061268739 1.0
C      1  0.7055105406874  0.4429517880468  0.3104381509289 1.0
C      1  0.4612588049483  0.5728478135325  0.4633879765632 1.0
C      1  0.4645754841526  0.4094382776910  0.4750906649436 1.0
C      1  0.4740680233601  0.6907045994435  0.6826837818935 1.0
C      1  0.4691230284306  0.3081061400532  0.6826839329964 1.0
C      1  0.3052887718476  0.4477582073792  0.4898106000817 1.0
C      1  0.3062572750390  0.5415423769636  0.4903198646872 1.0
C      1  0.5456288811562  0.7467339039871  0.4527115561344 1.0
C      1  0.5363601728362  0.2647367405307  0.4489422814181 1.0
C      1  0.4476300343090  0.5605910483258  0.3708352971756 1.0
C      1  0.4644585662353  0.4040977887565  0.3766425298578 1.0
C      1  0.4634675817045  0.5895720267362  0.6977629724682 1.0
C      1  0.4605662939514  0.4095571126297  0.7014782529160 1.0
C      1  0.6745277284403  0.3702314237927  0.4835499194137 1.0
C      1  0.6863212564950  0.6696304367809  0.4806806680721 1.0
C      1  0.6802436350015  0.6519678825232  0.6372684601230 1.0
C      1  0.6801272737927  0.3403712681765  0.6372428185033 1.0
C      1  0.6335120522049  0.4430556121899  0.5518481477495 1.0
C      1  0.6447909493905  0.5349659092264  0.5253665275450 1.0
C      1  0.5602729539577  0.5464192419636  0.7202635204251 1.0
C      1  0.5587749766104  0.4477923219117  0.7223665541398 1.0
C      1  0.5233430689485  0.6981040109889  0.3675627866033 1.0
C      1  0.5032311044050  0.3073019866262  0.3594981392592 1.0
C      1  0.5680949689922  0.7049466176024  0.6845594992649 1.0
C      1  0.5628919282053  0.2926994906701  0.6809247128894 1.0
C      1  0.3950211616247  0.5426327013172  0.7511467771321 1.0
C      1  0.3927543567556  0.4595530748774  0.7530933711818 1.0
C      1  0.3925753856026  0.5758987782972  0.5267350015350 1.0
C      1  0.3919286501161  0.4173866113056  0.5305205344070 1.0
C      1  0.4236192235100  0.2600573919837  0.6240023931186 1.0
C      1  0.4277403772568  0.7412985885647  0.6269131304009 1.0
C      1  0.3151257994172  0.3703249740277  0.2810006380512 1.0
C      1  0.3090543905110  0.6291998905144  0.2804390014698 1.0
C      1  0.4079269123815  0.2614723290748  0.3850654972476 1.0
C      1  0.4209504028652  0.7192686337630  0.3912975003747 1.0
C      1  0.4507950488859  0.4483427575571  0.6068884763536 1.0
C      1  0.4545653280170  0.5510388292181  0.6025063283494 1.0
C      1  0.6265706141963  0.7309411706155  0.6112276297847 1.0
C      1  0.6202179067437  0.2736114351615  0.6016887475097 1.0
C      1  0.6133135880732  0.3703901889637  0.7083350088183 1.0
C      1  0.6157578261662  0.6217337155123  0.7058751959478 1.0
C      1  0.5287198574635  0.4493084404901  0.3156372135606 1.0
C      1  0.5236863325406  0.5416188956480  0.3131211870694 1.0
C      1  0.3958424686549  0.7756484134610  0.5510980845084 1.0
C      1  0.3944883011049  0.2196633875208  0.5502572855934 1.0
C      1  0.3713605921347  0.5848063591714  0.3237414925410 1.0
C      1  0.3794632852554  0.4028686099291  0.3294127669892 1.0
C      1  0.6925164899547  0.5238566485270  0.4402288150333 1.0
END
