TITL C-29466-1856-13 -2.554 3375.00 -416.96427127 0 0 53 (C2) n - 1
REM
REM Run started: at 2020.12.17 07:59:00 in /rds/project/t2_vol4/rds-t2-cs072/BORA/CARBON/AIRSS/Generating-Clusters/Str-Search/Higher-Symm/C10-100
REM VASP from code version vasp.5.4.4.18Apr17-6-g9f103f2a35 (build Oct 11 2019 16:45:47) gamma-only
REM
REM
REM
REM
REM ./C.cell (f39ce9773e2efe3fa5bbdf770a4156b8)
REM AIRSS Version 0.9.1 bugfix July 2018 build 013d7b7c2542+ Fri, 06 Jul 2018 19:26:36 +0100
REM compiler GCC version 4.8.5 20150623 (Red Hat 4.8.5-39)
REM options -cpp -mtune=generic -march=x86-64 -g -O0
REM seed -1354012624 512479833 426728055 -385531652 -127145339 743517963 98907998 -1558603448 -806383787 1479317340 1492253096 -1385788536
REM
REM C.POTCAR (d86ddea03c3ceb6dc662c8ad6801f873)
REM 
CELL 1.54180   15.00000   15.00000   15.00000   90.00000   90.00000   90.00000
LATT -1
SFAC C  
C      1  0.4642630803242  0.6336980817037  0.5227124573990 1.0
C      1  0.5269184925124  0.5822154492077  0.4792921978167 1.0
C      1  0.4701336027423  0.4183513953301  0.4792047039811 1.0
C      1  0.5327708581206  0.3669130354621  0.5226162356347 1.0
C      1  0.3963871302190  0.4749896251967  0.6842568943759 1.0
C      1  0.5911447687207  0.4775999621924  0.3055886522994 1.0
C      1  0.4073326925516  0.5231731577805  0.3052228808000 1.0
C      1  0.5993110793735  0.5255218275000  0.6847438203017 1.0
C      1  0.4024098312284  0.3648963571053  0.3329974965196 1.0
C      1  0.5763775550898  0.3322152595907  0.7105957521553 1.0
C      1  0.4200909849052  0.6684528684876  0.7102636091105 1.0
C      1  0.5956670615210  0.6359534136447  0.3332624984325 1.0
C      1  0.7031377593586  0.3737345716639  0.4807173681662 1.0
C      1  0.3212601743706  0.3764266897323  0.4866121248260 1.0
C      1  0.6754972931825  0.6245358530915  0.4875418025558 1.0
C      1  0.2943964198713  0.6273799985545  0.4795571560827 1.0
C      1  0.4417271258227  0.5663061744520  0.6851931547031 1.0
C      1  0.5571120424083  0.5654528200289  0.2805914284354 1.0
C      1  0.4414583112414  0.4352500155927  0.2805891142646 1.0
C      1  0.5540586038430  0.4343394306482  0.6853917720870 1.0
C      1  0.3404911594620  0.2854711284985  0.4793078120049 1.0
C      1  0.6688124025600  0.3069961377566  0.5168707284159 1.0
C      1  0.3286304247638  0.6942043713347  0.5157438512794 1.0
C      1  0.6564058942707  0.7154550356518  0.4799148169718 1.0
C      1  0.4832489536988  0.3109090412458  0.6979765962071 1.0
C      1  0.5240581030238  0.3180368337401  0.3334213304426 1.0
C      1  0.4738193837092  0.6828389024606  0.3325834404895 1.0
C      1  0.5133468041477  0.6895995908863  0.6982946255751 1.0
C      1  0.5812823284307  0.2856136714146  0.5494147143207 1.0
C      1  0.4000750128623  0.2460205798383  0.4320835178034 1.0
C      1  0.5969314552721  0.7548386461460  0.4323434561260 1.0
C      1  0.4159171167760  0.7151608594206  0.5491567875699 1.0
C      1  0.6414786633935  0.4951856361558  0.3875966631348 1.0
C      1  0.3472484375557  0.4969403303718  0.6017719541923 1.0
C      1  0.6488488150995  0.5038558491133  0.6023903672618 1.0
C      1  0.3564544620438  0.5058369353431  0.3869979042027 1.0
C      1  0.4425068029981  0.2782515793717  0.3519603705925 1.0
C      1  0.5582135892661  0.2727662393761  0.6396233606645 1.0
C      1  0.4384139235087  0.7279251143799  0.6394798573196 1.0
C      1  0.5552334930974  0.7225415920872  0.3518324651404 1.0
C      1  0.5325046820365  0.4048498537842  0.2860832699436 1.0
C      1  0.4575273000386  0.4062810233679  0.6986145937031 1.0
C      1  0.5382789780079  0.5941495300294  0.6989105929364 1.0
C      1  0.4660067823712  0.5957847934095  0.2855085624897 1.0
C      1  0.6948960976858  0.4643539996365  0.4567328389773 1.0
C      1  0.3008567725366  0.4624723596436  0.5272826534828 1.0
C      1  0.6957859903728  0.5385021929504  0.5283593760966 1.0
C      1  0.3024348683919  0.5367252605446  0.4557085202129 1.0
C      1  0.5680344340632  0.4434068315432  0.5823997992461 1.0
C      1  0.3851416735632  0.4146286611975  0.4163954508195 1.0
C      1  0.6123092776618  0.5862555046734  0.4168001367475 1.0
C      1  0.4283614861883  0.5572157326709  0.5821514901784 1.0
C      1  0.4983387637352  0.5002800949907  0.5283964755042 1.0
END
