TITL C-29123-7884-164 -0.846 3375.00 -142.22150993 0 0 18 (D3h) n - 1
REM
REM Run started: at 2020.12.21 02:18:46 in /gpfs/home/chem/mssmkc/CARBON/AIRSS/Generating-Clusters/Str-Search/Higher-Symm/C4-100
REM VASP from code version vasp.5.4.4.18Apr17-6-g9f103f2a35 (build Oct 11 2019 16:45:47) gamma-only
REM
REM
REM
REM
REM ./C.cell (6bd13a13d554368a30d355f37ece5b26)
REM AIRSS Version 0.9.1 bugfix July 2018 build 013d7b7c2542+ Fri, 06 Jul 2018 19:26:36 +0100
REM compiler GCC version 6.3.0
REM options -cpp -iprefix /gpfs/warwick/csc/orac/software/Core/GCCcore/6.3.0/bin/../lib/gcc/x86_64-pc-linux-gnu/6.3.0/ -mtune=generic -march=x86-64 -g -O0
REM seed 1556243465 -534451110 469508753 -1145205844 2060844391 648782072 -144957145 848422868 -1916262063 440008704 773308542 106389521
REM
REM C.POTCAR (d86ddea03c3ceb6dc662c8ad6801f873)
REM 
CELL 1.54180   15.00000   15.00000   15.00000   90.00000   90.00000   90.00000
LATT -1
SFAC C  
C      1  0.5845392420540  0.5839995434037  0.5467020804663 1.0
C      1  0.5845239929728  0.4175845355377  0.5494223233196 1.0
C      1  0.5845355690746  0.4984279001391  0.4038334524984 1.0
C      1  0.5845392474868  0.5839995377710  0.4532978668079 1.0
C      1  0.5845239900568  0.4175845334539  0.4505777027724 1.0
C      1  0.5845355450123  0.4984279282774  0.5961665137478 1.0
C      1  0.5000058957759  0.3655165328038  0.5481421282849 1.0
C      1  0.4999953181898  0.5255599437293  0.3594434941567 1.0
C      1  0.4999891897522  0.6089440263895  0.5923690462746 1.0
C      1  0.5000058973895  0.3655165214393  0.4518578967747 1.0
C      1  0.4999953130282  0.5255599779741  0.6405565363990 1.0
C      1  0.4999891937865  0.6089440262779  0.4076309111416 1.0
C      1  0.4154551834303  0.5839913159975  0.4532876207492 1.0
C      1  0.4154676045732  0.4984182903577  0.5961792059463 1.0
C      1  0.4154880248774  0.4175577976643  0.4505762566523 1.0
C      1  0.4154551745114  0.5839913264043  0.5467123609812 1.0
C      1  0.4154676067810  0.4984182624644  0.4038208005780 1.0
C      1  0.4154880112470  0.4175577999150  0.5494238024489 1.0
END
