TITL C-29086-3345-101 -3.701 3375.00 -623.56536900 0 0 77 (C1) n - 1
REM
REM Run started: at 2020.12.20 11:10:19 in /gpfs/home/chem/mssmkc/CARBON/AIRSS/Generating-Clusters/Str-Search/Higher-Symm/C4-100
REM VASP from code version vasp.5.4.4.18Apr17-6-g9f103f2a35 (build Oct 11 2019 16:45:47) gamma-only
REM
REM
REM
REM
REM ./C.cell (6bd13a13d554368a30d355f37ece5b26)
REM AIRSS Version 0.9.1 bugfix July 2018 build 013d7b7c2542+ Fri, 06 Jul 2018 19:26:36 +0100
REM compiler GCC version 6.3.0
REM options -cpp -iprefix /gpfs/warwick/csc/orac/software/Core/GCCcore/6.3.0/bin/../lib/gcc/x86_64-pc-linux-gnu/6.3.0/ -mtune=generic -march=x86-64 -g -O0
REM seed 410237248 -1186951439 -1657063265 1825618541 -196654948 1005304623 150738887 1760136814 -2090187857 -609043590 298928932 380185481
REM
REM C.POTCAR (d86ddea03c3ceb6dc662c8ad6801f873)
REM 
CELL 1.54180   15.00000   15.00000   15.00000   90.00000   90.00000   90.00000
LATT -1
SFAC C  
C      1  0.6105821683906  0.2685984186351  0.4924462267294 1.0
C      1  0.5741964527783  0.2671846714979  0.5817562085438 1.0
C      1  0.4838456012834  0.2810562930705  0.6017695923563 1.0
C      1  0.4020351181566  0.2682529726700  0.5548029989183 1.0
C      1  0.3927600667401  0.2646890786438  0.4584858873053 1.0
C      1  0.4662779579143  0.2779705133129  0.4003848917964 1.0
C      1  0.5567190201611  0.2828842363118  0.4153922399334 1.0
C      1  0.2750090793368  0.3512401918864  0.5135109207466 1.0
C      1  0.3379858078135  0.3586099461929  0.3414810086317 1.0
C      1  0.5289370032126  0.3651899359405  0.2780883135218 1.0
C      1  0.6925250018392  0.3678357822340  0.4022075956589 1.0
C      1  0.7061823012353  0.3525991262696  0.5854111502355 1.0
C      1  0.5777951971672  0.3574338506679  0.7127751206949 1.0
C      1  0.3678855864603  0.3664850936788  0.6714140128093 1.0
C      1  0.3182007383497  0.3151911672016  0.4300176500118 1.0
C      1  0.4404691552881  0.3476462904619  0.3352866129598 1.0
C      1  0.5942998369057  0.3562072955063  0.3604324111810 1.0
C      1  0.6888550362347  0.3201190960300  0.4898513579586 1.0
C      1  0.6304990854985  0.3160311958697  0.6407464696027 1.0
C      1  0.4769364218803  0.3539844544626  0.6666597342986 1.0
C      1  0.3321447482513  0.3190365471047  0.5916970893501 1.0
C      1  0.5160099454302  0.5289250379934  0.6806398216240 1.0
C      1  0.3663270195221  0.5402093212895  0.5952504499093 1.0
C      1  0.3318671415007  0.5337375125536  0.4964356541246 1.0
C      1  0.4323455760958  0.5261105941373  0.3441671805666 1.0
C      1  0.5384114447278  0.5309359586841  0.3315435200024 1.0
C      1  0.6612025914080  0.5424120502843  0.4722512069858 1.0
C      1  0.6522259600442  0.5366708805841  0.5764412291709 1.0
C      1  0.3476910191826  0.5102725808177  0.2816798174828 1.0
C      1  0.5717603328812  0.5137236937858  0.2347655073489 1.0
C      1  0.7417157759917  0.5257307074188  0.4101391301629 1.0
C      1  0.7375791628373  0.5116698412481  0.6283113359866 1.0
C      1  0.5581866885521  0.5122759705431  0.7644393776605 1.0
C      1  0.3204719661364  0.5246212801953  0.6866145663392 1.0
C      1  0.2319793698194  0.5104235355108  0.4861024175469 1.0
C      1  0.3688033183244  0.6690537069475  0.2499466123874 1.0
C      1  0.5765727973963  0.6741057583210  0.2293304380910 1.0
C      1  0.7581803900825  0.6857944481571  0.4269342276867 1.0
C      1  0.7477144268575  0.6732562602925  0.6324864691218 1.0
C      1  0.5439046559396  0.6588912874126  0.7754580416765 1.0
C      1  0.2987225182783  0.6839587193056  0.6786418341908 1.0
C      1  0.2210132607515  0.6723454168260  0.4873370473556 1.0
C      1  0.4279569514763  0.4705827722856  0.5660627776436 1.0
C      1  0.4011009808875  0.4609073437941  0.4812409691712 1.0
C      1  0.4486010799892  0.4416049273816  0.3981658188832 1.0
C      1  0.5483558830792  0.4496112134272  0.3948422399473 1.0
C      1  0.5923252810553  0.4734730868346  0.4742406310255 1.0
C      1  0.5837829393079  0.4647993668753  0.5632947375296 1.0
C      1  0.5035946418720  0.4504550654401  0.6208460248855 1.0
C      1  0.3103278867737  0.6955341204121  0.5104241887499 1.0
C      1  0.4341146764171  0.6874678237282  0.3160352391878 1.0
C      1  0.5267735460054  0.6911985190278  0.3084647922342 1.0
C      1  0.6820096583057  0.7016786055989  0.4816219599367 1.0
C      1  0.6762974094517  0.6977520429816  0.5745253653707 1.0
C      1  0.5206392196401  0.6997077613103  0.7020842561639 1.0
C      1  0.3444096060571  0.7000793227157  0.5970370835211 1.0
C      1  0.3335285567906  0.5940475401281  0.2400615002302 1.0
C      1  0.5950393049363  0.5984585866523  0.1996199098516 1.0
C      1  0.7810768998533  0.6116366017606  0.3966116059937 1.0
C      1  0.7711393582630  0.5966936232062  0.6556546968503 1.0
C      1  0.5694727910436  0.5902247517920  0.8231026755172 1.0
C      1  0.2915566378627  0.6104000294349  0.7171054986996 1.0
C      1  0.1904505503147  0.5956274430863  0.4760606675752 1.0
C      1  0.4357685552473  0.6195815736816  0.3936565871300 1.0
C      1  0.5419304245730  0.6235488544775  0.3850646906310 1.0
C      1  0.6088505925767  0.6309521601021  0.4648734099974 1.0
C      1  0.5995079652561  0.6278204950228  0.5744438453059 1.0
C      1  0.5098044898891  0.6232947920084  0.6338375176233 1.0
C      1  0.4164389326639  0.6290738016814  0.5808845523599 1.0
C      1  0.3795391269704  0.6256848131839  0.4780415150061 1.0
C      1  0.7534804567281  0.4250626123284  0.6139219221264 1.0
C      1  0.5964676189837  0.4262735786462  0.7675349079031 1.0
C      1  0.3284338153478  0.4385227033509  0.7074649877208 1.0
C      1  0.2216506867751  0.4244850518474  0.5068333787646 1.0
C      1  0.3066455250109  0.4317322560124  0.2974001987716 1.0
C      1  0.5481106209597  0.4287500853950  0.2186448259807 1.0
C      1  0.7439905829786  0.4399052544314  0.3867617430455 1.0
END
