TITL C-29274-5348-2 -8.015 3375.00 -1429.78298014 0 0 172 (C1) n - 1
REM
REM Run started: at 2020.12.30 02:59:17 in /rds/project/t2_vol4/rds-t2-cs072/BORA/CARBON/AIRSS/Generating-Clusters/Str-Search/Higher-Symm/C100-200
REM VASP from code version vasp.5.4.4.18Apr17-6-g9f103f2a35 (build Oct 11 2019 16:45:47) gamma-only
REM
REM
REM
REM
REM ./C.cell (533062f00bc710175b3da973d35f2034)
REM AIRSS Version 0.9.1 bugfix July 2018 build 013d7b7c2542+ Fri, 06 Jul 2018 19:26:36 +0100
REM compiler GCC version 4.8.5 20150623 (Red Hat 4.8.5-39)
REM options -cpp -mtune=generic -march=x86-64 -g -O0
REM seed -1163555398 101994750 1920273706 -979887790 1866613263 1082603138 1083939559 1906436243 624559311 762138566 -691654817 1323972430
REM
REM C.POTCAR (d86ddea03c3ceb6dc662c8ad6801f873)
REM 
CELL 1.54180   15.00000   15.00000   15.00000   90.00000   90.00000   90.00000
LATT -1
SFAC C  
C      1  0.6426032209738  0.4173341914399  0.8323050869390 1.0
C      1  0.6766614166426  0.6732227991143  0.7781923654548 1.0
C      1  0.6939870559264  0.8510496523189  0.5553518679411 1.0
C      1  0.6700642707697  0.7320178945371  0.2743830053686 1.0
C      1  0.6989683152723  0.4790082813650  0.1760423703468 1.0
C      1  0.6708203667972  0.2319228927082  0.3127450161326 1.0
C      1  0.6510566431307  0.1752097329911  0.6099415906550 1.0
C      1  0.7370691687200  0.7297831094068  0.3459569121197 1.0
C      1  0.7707401524109  0.5161280148233  0.2333032792348 1.0
C      1  0.7457928274105  0.2936746013268  0.3252057282140 1.0
C      1  0.7100296619402  0.2283676803741  0.5562650458127 1.0
C      1  0.7049354599441  0.3844605357768  0.7590077565995 1.0
C      1  0.7464188852342  0.6158358683554  0.7506973155458 1.0
C      1  0.7567139948704  0.7793297780622  0.5792630573688 1.0
C      1  0.3435138954657  0.7932002451644  0.3936796563315 1.0
C      1  0.3323460745751  0.6093250574240  0.2297716588083 1.0
C      1  0.2910636944136  0.3721606244137  0.2823328191471 1.0
C      1  0.3229367394394  0.1954866270325  0.4650083445394 1.0
C      1  0.3246097835135  0.2750897435629  0.7214726688574 1.0
C      1  0.2867056167473  0.5205308264162  0.7835166107057 1.0
C      1  0.2932646111115  0.7402889531441  0.6466194483542 1.0
C      1  0.7843091366544  0.6418214556612  0.6664451483009 1.0
C      1  0.7770301297880  0.7280210479310  0.5016334324557 1.0
C      1  0.7800392938050  0.6390159145616  0.3437485971348 1.0
C      1  0.7999022082785  0.4528464193288  0.3009544272348 1.0
C      1  0.7635004454698  0.2980830224669  0.4184153304305 1.0
C      1  0.7341146314966  0.3137051762981  0.6009665659471 1.0
C      1  0.7456800398834  0.4574896734432  0.7158309084158 1.0
C      1  0.8022690496623  0.4795422844873  0.3940866542670 1.0
C      1  0.7612325308612  0.3961271441567  0.4546702299817 1.0
C      1  0.7618586551104  0.3928092762216  0.5588434028010 1.0
C      1  0.7463079416936  0.4794709628014  0.6139841113534 1.0
C      1  0.7879091274558  0.5794768969013  0.5965212083091 1.0
C      1  0.7686057189713  0.6230929986201  0.5055313798884 1.0
C      1  0.7932803995734  0.5766787741297  0.4156025586833 1.0
C      1  0.3490392141631  0.7469524563434  0.3089568220365 1.0
C      1  0.3087459027589  0.5152588366578  0.2199228056930 1.0
C      1  0.2999377741757  0.2864241940894  0.3338031139484 1.0
C      1  0.3374066815554  0.1996835056470  0.5650789857705 1.0
C      1  0.3170235954717  0.3600121927143  0.7780616748873 1.0
C      1  0.2916576643262  0.6144547201563  0.7457093671536 1.0
C      1  0.3147931625103  0.7722556818710  0.5525878580637 1.0
C      1  0.7295093772643  0.5306364837888  0.7708853824884 1.0
C      1  0.7582099724545  0.7362486088446  0.6610986898190 1.0
C      1  0.7417800015858  0.7795253356716  0.4259778268419 1.0
C      1  0.7589718149366  0.6029017255549  0.2580303039196 1.0
C      1  0.7623711619957  0.3682778086718  0.2714617616534 1.0
C      1  0.7235053965140  0.2239718447807  0.4627705979571 1.0
C      1  0.6911970526886  0.3102096884116  0.6940358273826 1.0
C      1  0.4485299052735  0.1855874419354  0.2701362519949 1.0
C      1  0.4887274889014  0.1324747487198  0.6368570404370 1.0
C      1  0.4685166625882  0.4168276202207  0.8740145011625 1.0
C      1  0.4498832451969  0.7053581899266  0.8119501979617 1.0
C      1  0.4732979934709  0.8756188744884  0.5550490453753 1.0
C      1  0.5038054503986  0.7347852306980  0.2088701443787 1.0
C      1  0.4474094989662  0.4458122275491  0.1158951124064 1.0
C      1  0.3915111593121  0.5841752902557  0.7393624279758 1.0
C      1  0.4042108240056  0.7255645491702  0.5777155090934 1.0
C      1  0.4654761283681  0.8435108060244  0.3139054817517 1.0
C      1  0.4101708286068  0.5336448701259  0.2331789740241 1.0
C      1  0.3960625852737  0.3254670073739  0.3227956847464 1.0
C      1  0.4437557481184  0.1119263239424  0.4971209345570 1.0
C      1  0.4549451339070  0.3245976950229  0.7572875348893 1.0
C      1  0.4294589965344  0.7756389316322  0.2586196370702 1.0
C      1  0.3760249904440  0.5105585182541  0.1399249696446 1.0
C      1  0.3673006426987  0.2458550201360  0.2676453933492 1.0
C      1  0.4109493212901  0.1358884643824  0.5805903763358 1.0
C      1  0.4027238514982  0.3696725622502  0.8245517006450 1.0
C      1  0.3651537344320  0.6470228774999  0.8118403444792 1.0
C      1  0.3952505827257  0.8247018155101  0.5840258857279 1.0
C      1  0.4774979525716  0.4978638741785  0.2969226306217 1.0
C      1  0.4766097907800  0.3506419182982  0.3747747717563 1.0
C      1  0.4787474949420  0.3115007754089  0.5298272777259 1.0
C      1  0.4665822352169  0.3967882984760  0.6747160162085 1.0
C      1  0.4520929442366  0.5621238423839  0.6657458777608 1.0
C      1  0.4708066624488  0.6616299217567  0.5409682590579 1.0
C      1  0.4940175970032  0.6274507879717  0.3810649751258 1.0
C      1  0.4228858625466  0.8549414749353  0.3983099470141 1.0
C      1  0.4031565735284  0.6081125696648  0.1609060423446 1.0
C      1  0.3686621739389  0.3371113709874  0.2243038471120 1.0
C      1  0.3974392364634  0.1404006345246  0.4229135350506 1.0
C      1  0.4127877168020  0.2398249505175  0.7349923911343 1.0
C      1  0.3747075103078  0.5466907388098  0.8313385869199 1.0
C      1  0.3873489633817  0.7719141554002  0.6700123060035 1.0
C      1  0.1474020058650  0.3538646572751  0.5187106910571 1.0
C      1  0.1506625286615  0.4033653508488  0.6093936346038 1.0
C      1  0.2248199235364  0.4131339605201  0.6607140626215 1.0
C      1  0.2340829382513  0.6104846959225  0.5874388838838 1.0
C      1  0.1736988020239  0.6390079803793  0.5133037109767 1.0
C      1  0.1059144321860  0.5794499946676  0.5031706989757 1.0
C      1  0.0604052261853  0.5083113780249  0.5146854093809 1.0
C      1  0.2963428201429  0.3893414136238  0.5043126411494 1.0
C      1  0.2998110282396  0.3742928556095  0.6050191706616 1.0
C      1  0.2908876509290  0.5452297209348  0.5560121690920 1.0
C      1  0.2324242920835  0.6762668239425  0.4435999449671 1.0
C      1  0.2559646338690  0.6193828340836  0.3710871507508 1.0
C      1  0.2576108100880  0.5176885447350  0.3827758904605 1.0
C      1  0.2237449153729  0.3262112345542  0.4732717116084 1.0
C      1  0.4524239016116  0.4260655599894  0.4404367334936 1.0
C      1  0.4044964671873  0.3796643898626  0.5142396174221 1.0
C      1  0.3919664599217  0.4222323292152  0.6064729138324 1.0
C      1  0.3867120650681  0.5241928860244  0.5894472267535 1.0
C      1  0.4440439011510  0.5629543191158  0.5144573314431 1.0
C      1  0.4264767350151  0.5746058684098  0.4190419744975 1.0
C      1  0.4217019394817  0.4943066653344  0.3790853384325 1.0
C      1  0.5081070736645  0.4898683686525  0.7075930503800 1.0
C      1  0.5259932829488  0.6204053718201  0.6130829009111 1.0
C      1  0.5170418101572  0.6873501946373  0.4543154394241 1.0
C      1  0.5358804084611  0.5803687776892  0.3090380030655 1.0
C      1  0.5332249416853  0.4087006113541  0.3059876369237 1.0
C      1  0.5121046333627  0.2855525525069  0.4474137749485 1.0
C      1  0.5333071953926  0.3484596007073  0.6124126904196 1.0
C      1  0.4372632639026  0.3572382827499  0.1522766862106 1.0
C      1  0.4621512238055  0.1383200479755  0.3487234266998 1.0
C      1  0.4826398781081  0.1786588314318  0.7183875848654 1.0
C      1  0.4481209921254  0.5103821030135  0.8910888189451 1.0
C      1  0.4588546877951  0.7693464720083  0.7395064644600 1.0
C      1  0.4889414165288  0.8821107576651  0.4608692060993 1.0
C      1  0.4898133651717  0.6565044998314  0.1500279160171 1.0
C      1  0.6832893747108  0.8521556891875  0.4592501824923 1.0
C      1  0.6753266044837  0.6462755577879  0.2381989038796 1.0
C      1  0.6894957451582  0.3936549134533  0.2086173731554 1.0
C      1  0.6528640815537  0.1846782641039  0.3960095548415 1.0
C      1  0.6463869728193  0.2187581351473  0.6970692458682 1.0
C      1  0.6460458186361  0.5169928373002  0.8204479231381 1.0
C      1  0.6883185942512  0.7529140486681  0.7278858663813 1.0
C      1  0.6274730765757  0.8204467707057  0.7073433676470 1.0
C      1  0.5736475333509  0.7641787152553  0.4425254885356 1.0
C      1  0.6021140195896  0.5863752556146  0.2434128920829 1.0
C      1  0.6080783691992  0.3597400028307  0.2544598217516 1.0
C      1  0.5669431699285  0.2090106928814  0.4416441363377 1.0
C      1  0.5907067886081  0.3099847338182  0.6860356971097 1.0
C      1  0.5750264113483  0.5320701794170  0.7536813782556 1.0
C      1  0.5350748955006  0.8757311139130  0.6233521170631 1.0
C      1  0.5877780664191  0.7766909481227  0.2566709430965 1.0
C      1  0.5277589796603  0.4945897799911  0.1101198402380 1.0
C      1  0.5178644244926  0.2299508887957  0.2189612436667 1.0
C      1  0.5725305600766  0.1246930000349  0.5853302604088 1.0
C      1  0.5610575514057  0.3771628918450  0.8510770192457 1.0
C      1  0.5169124612950  0.6529856868946  0.8576409019695 1.0
C      1  0.4978615203479  0.2894708619072  0.1490902788179 1.0
C      1  0.5596574051631  0.1224436768924  0.3932667552310 1.0
C      1  0.5656818715453  0.2171494041753  0.7510488245155 1.0
C      1  0.4972452958602  0.5824620445971  0.9160698741712 1.0
C      1  0.5304062393473  0.8239367790086  0.7092391373793 1.0
C      1  0.5850136929217  0.8569960408065  0.4162398472730 1.0
C      1  0.5459696178656  0.5878516814556  0.1078844401988 1.0
C      1  0.6653921715489  0.6370771092578  0.5191761955684 1.0
C      1  0.6159362492714  0.6914658278685  0.4661731122398 1.0
C      1  0.6208180212292  0.4043334553827  0.3466505449482 1.0
C      1  0.6645820591403  0.4226829822048  0.4230588090844 1.0
C      1  0.5722955605308  0.4324404803205  0.5716446868313 1.0
C      1  0.6449326239653  0.4993208945561  0.5860754313698 1.0
C      1  0.6134187230636  0.5946891186488  0.5911163781699 1.0
C      1  0.5404055073001  0.1179722284487  0.4914731675634 1.0
C      1  0.5480048505473  0.3094706815716  0.7807183132581 1.0
C      1  0.5990792115002  0.6182894957872  0.8088207299335 1.0
C      1  0.6319156898020  0.8697031865005  0.6233418361505 1.0
C      1  0.5594334771256  0.8444943617976  0.3167663984972 1.0
C      1  0.6109501325796  0.5272397613415  0.1601951037863 1.0
C      1  0.6013292221368  0.2602187910406  0.2576829088966 1.0
C      1  0.3061450831906  0.6633995719219  0.3019816113393 1.0
C      1  0.2694646375467  0.4635396523669  0.2962171334495 1.0
C      1  0.2671028864660  0.2556120375853  0.4203007213463 1.0
C      1  0.3102033477476  0.2723577380443  0.6260389761261 1.0
C      1  0.2609606522720  0.4342736900301  0.7517739571639 1.0
C      1  0.2534510525636  0.6605442970743  0.6690919499518 1.0
C      1  0.2871677748268  0.7550146850247  0.4596099530313 1.0
C      1  0.5195383337206  0.4809512293436  0.5005326792709 1.0
C      1  0.0892959141869  0.4250777247292  0.5422928744866 1.0
C      1  0.2749720788923  0.4872248047320  0.4740752402765 1.0
C      1  0.6169148241604  0.4709944462917  0.4902003779379 1.0
END
