TITL C-29416-108-28 -9.196 3375.00 -1463.96867952 0 0 180 (C1) n - 1
REM
REM Run started: at 2020.12.26 18:07:48 in /gpfs/home/chem/mssmkc/CARBON/AIRSS/Generating-Clusters/Str-Search/Higher-Symm/Only-C180
REM VASP from code version vasp.5.4.4.18Apr17-6-g9f103f2a35 (build Oct 11 2019 16:45:47) gamma-only
REM
REM
REM
REM
REM ./C.cell (73b75853f6e4503fb4b57bac71549d7d)
REM AIRSS Version 0.9.1 bugfix July 2018 build 013d7b7c2542+ Fri, 06 Jul 2018 19:26:36 +0100
REM compiler GCC version 6.3.0
REM options -cpp -iprefix /gpfs/warwick/csc/orac/software/Core/GCCcore/6.3.0/bin/../lib/gcc/x86_64-pc-linux-gnu/6.3.0/ -mtune=generic -march=x86-64 -g -O0
REM seed -570835677 -1080198742 -1968842670 -2102801336 1927442198 -1098619331 -1980626291 909228503 1027983333 -2112391568 484670096 -1360250675
REM
REM C.POTCAR (d86ddea03c3ceb6dc662c8ad6801f873)
REM 
CELL 1.54180   15.00000   15.00000   15.00000   90.00000   90.00000   90.00000
LATT -1
SFAC C  
C      1  0.2376420990278  0.3041181510992  0.4324373268802 1.0
C      1  0.2377081829338  0.3230619826950  0.5771367343739 1.0
C      1  0.2339494401364  0.4278995168742  0.6770341825110 1.0
C      1  0.2314686233568  0.5737609131548  0.6863924317228 1.0
C      1  0.2208334137938  0.6917122210883  0.6011467201642 1.0
C      1  0.2068638840393  0.7216475803384  0.4593902854056 1.0
C      1  0.2116447775124  0.6565740419083  0.3285482143537 1.0
C      1  0.2220340356310  0.5247133434552  0.2684700659306 1.0
C      1  0.2315840255899  0.3839607208376  0.3105319992794 1.0
C      1  0.6868365064167  0.7488232978993  0.7777059968460 1.0
C      1  0.7042654211462  0.8584137863777  0.5756277049507 1.0
C      1  0.6684561065089  0.7699838700722  0.3387386339017 1.0
C      1  0.7021615412721  0.6064802326536  0.1379503518144 1.0
C      1  0.6876574927208  0.3581540421068  0.1885770627698 1.0
C      1  0.7187697178091  0.1436194332146  0.3172364524921 1.0
C      1  0.7119341670791  0.1234365136109  0.5595995077803 1.0
C      1  0.6940197039337  0.2680535161482  0.7894399693747 1.0
C      1  0.6889120956792  0.5359073126837  0.8735011075536 1.0
C      1  0.5539833836971  0.3152731297174  0.1078068815826 1.0
C      1  0.5700137444663  0.1211840015113  0.2320503283232 1.0
C      1  0.5698196826360  0.0838838150963  0.6106580940360 1.0
C      1  0.5482084126153  0.2136280473055  0.8363393704445 1.0
C      1  0.5461607990123  0.5517881318663  0.9500973760676 1.0
C      1  0.5455015957273  0.8049432274115  0.8280656951626 1.0
C      1  0.5547449609179  0.9069909010169  0.6075343448993 1.0
C      1  0.5388155965928  0.8503719399019  0.2917230343946 1.0
C      1  0.5703433030292  0.6836107748126  0.0762760692221 1.0
C      1  0.1608053381275  0.3853198375384  0.5447171789421 1.0
C      1  0.1584748957535  0.4531291888192  0.6107252523322 1.0
C      1  0.1574826419405  0.5482382903513  0.6176251709152 1.0
C      1  0.1538261780291  0.6230171317006  0.5615117418407 1.0
C      1  0.1433071376469  0.6428649582765  0.4689475122567 1.0
C      1  0.1414969962638  0.6010543486641  0.3816723577552 1.0
C      1  0.1489878714885  0.5151480163787  0.3432863678863 1.0
C      1  0.1546810654256  0.4228031046979  0.3703355254881 1.0
C      1  0.1591999574667  0.3722977610240  0.4493464252499 1.0
C      1  0.3893735588939  0.9082848637222  0.2911219340398 1.0
C      1  0.4076638262113  0.7156648919700  0.0584846416830 1.0
C      1  0.3994602300786  0.3298921094415  0.0580683570758 1.0
C      1  0.4056022977245  0.1052743941403  0.2216623621577 1.0
C      1  0.3983676706537  0.0564284236512  0.6039136365913 1.0
C      1  0.3864360499758  0.1832114819039  0.8408762924584 1.0
C      1  0.3825454895859  0.5298209193059  0.9615967463426 1.0
C      1  0.3829326533058  0.8194663963574  0.8543477359775 1.0
C      1  0.3896093634313  0.9604838342823  0.6071661258928 1.0
C      1  0.7539004784120  0.6865169583092  0.4885997958173 1.0
C      1  0.7559018646625  0.6474918098800  0.3911888770041 1.0
C      1  0.7655450354778  0.4968448388821  0.3034043697183 1.0
C      1  0.7674274533396  0.3954070611551  0.3281756582384 1.0
C      1  0.7693105712142  0.2852755032652  0.4618580047278 1.0
C      1  0.7627214115312  0.2814574575181  0.5664010067358 1.0
C      1  0.7508639499984  0.3852328020579  0.6972272809999 1.0
C      1  0.7462166681841  0.5459182206178  0.7082113324782 1.0
C      1  0.7545194021569  0.6295167904624  0.6501774131840 1.0
C      1  0.5060333149517  0.2310391184302  0.4680257461965 1.0
C      1  0.4819174887653  0.3339887310012  0.7338423622240 1.0
C      1  0.4970961572281  0.4085508923232  0.7820780478606 1.0
C      1  0.4539696461325  0.6652793989342  0.6679852488145 1.0
C      1  0.4106225166546  0.6983394371940  0.5773518324767 1.0
C      1  0.4526910565329  0.7544262634436  0.4876070278864 1.0
C      1  0.4897801856410  0.5870574594661  0.2410831065408 1.0
C      1  0.4843674993963  0.4967650291787  0.2282699158568 1.0
C      1  0.5004364160012  0.2520333590435  0.3756658625224 1.0
C      1  0.8315913213454  0.5106669203825  0.6546350050456 1.0
C      1  0.8344198287632  0.5906187291918  0.6006630719406 1.0
C      1  0.8353146068606  0.6244215793164  0.5090339399475 1.0
C      1  0.8383044918107  0.5921177352418  0.4192491897948 1.0
C      1  0.8430268070922  0.5085029341292  0.3714553729603 1.0
C      1  0.8461655933816  0.4143414545946  0.3922881258783 1.0
C      1  0.8436542983307  0.3557317036922  0.4691770183997 1.0
C      1  0.8401118924558  0.3524228843984  0.5678393841886 1.0
C      1  0.8301349828457  0.4133202638684  0.6411675889078 1.0
C      1  0.3600216916120  0.4968888679667  0.8743856262386 1.0
C      1  0.3449826495193  0.7582964311435  0.7903214243361 1.0
C      1  0.3538668618977  0.8759056320976  0.5782844657761 1.0
C      1  0.3448925035370  0.8462415577761  0.3471785808424 1.0
C      1  0.3681291365264  0.6794682040518  0.1398367606246 1.0
C      1  0.3615167504352  0.3901295857778  0.1230252501366 1.0
C      1  0.3678736978307  0.1801061644336  0.2698128630177 1.0
C      1  0.3795821246985  0.1405446172849  0.5587456519306 1.0
C      1  0.3500086834640  0.2310712266978  0.7666694955055 1.0
C      1  0.2866222502320  0.4946773888449  0.8239918096690 1.0
C      1  0.2677746125859  0.7247151387595  0.7593127708562 1.0
C      1  0.2728589425247  0.8439369781865  0.5563660570772 1.0
C      1  0.2619584094571  0.8153366356274  0.3400782955829 1.0
C      1  0.2882311377297  0.6539608968387  0.1761401966911 1.0
C      1  0.2813720453694  0.4131610758020  0.1545511769511 1.0
C      1  0.2923537363976  0.2233832577535  0.2930457986023 1.0
C      1  0.3040564506541  0.1784935072887  0.5285027313399 1.0
C      1  0.2774043544270  0.2718447070675  0.7345334749374 1.0
C      1  0.6815249321636  0.5821188988124  0.4197626033006 1.0
C      1  0.6878383815803  0.5025597153566  0.3741251442584 1.0
C      1  0.6916026092685  0.4142024647082  0.3971375433889 1.0
C      1  0.6947549391827  0.3571314361462  0.4690329324998 1.0
C      1  0.6837152761028  0.3526506503665  0.5620091061839 1.0
C      1  0.6817319564404  0.4154702089576  0.6317249366379 1.0
C      1  0.6737366768240  0.5085217660390  0.6430083029994 1.0
C      1  0.6785845276244  0.5863133044801  0.5921179598105 1.0
C      1  0.6790594644688  0.6160623600105  0.5050083559920 1.0
C      1  0.5369098926340  0.2070215258178  0.2555205713783 1.0
C      1  0.5563614135482  0.1790600243837  0.5903580402993 1.0
C      1  0.5252399701937  0.2443697101130  0.7398916237983 1.0
C      1  0.5269755166850  0.5072836530327  0.8685135371100 1.0
C      1  0.5075248984719  0.7391142000887  0.7700161553540 1.0
C      1  0.5196901978795  0.8185910248807  0.6060050927081 1.0
C      1  0.4992322092665  0.7968517830452  0.3629676048088 1.0
C      1  0.5381873337549  0.6864599566573  0.1666011132502 1.0
C      1  0.5176673493017  0.3768090158615  0.1729154066499 1.0
C      1  0.4914839226500  0.0483942428383  0.6406788116124 1.0
C      1  0.4656616926873  0.1792094832240  0.8678018746978 1.0
C      1  0.4586814924660  0.5498121743039  0.9891990009862 1.0
C      1  0.4637766542716  0.8380849870470  0.8667979521060 1.0
C      1  0.4844706221818  0.9579715277894  0.6355945721206 1.0
C      1  0.4680629962972  0.9070348667522  0.2636333438396 1.0
C      1  0.4881316750523  0.7086510151236  0.0334851863226 1.0
C      1  0.4765931916765  0.2984736074445  0.0535713238956 1.0
C      1  0.4851763070153  0.0784997116488  0.2143481461048 1.0
C      1  0.2323613009724  0.6730624049670  0.6979979972506 1.0
C      1  0.2226389445942  0.7730883479534  0.5436883798739 1.0
C      1  0.2136440547328  0.7481340882430  0.3653011912730 1.0
C      1  0.2340947658964  0.6202097294083  0.2369277321220 1.0
C      1  0.2366078325606  0.4364381836194  0.2255630409706 1.0
C      1  0.2490137852593  0.2876477093366  0.3341693366483 1.0
C      1  0.2532805979649  0.2476813292028  0.5131695068526 1.0
C      1  0.2461819217976  0.3289525686211  0.6757151910367 1.0
C      1  0.2438229188474  0.4964748050030  0.7483445334895 1.0
C      1  0.6571786924966  0.4544811739807  0.2006654564719 1.0
C      1  0.6757234007594  0.2616787599207  0.3262774329442 1.0
C      1  0.6723177205105  0.1692207918386  0.4753715822191 1.0
C      1  0.6827406530572  0.2180594537904  0.6988672647303 1.0
C      1  0.6705307033976  0.4321471828194  0.8378073317421 1.0
C      1  0.6492115884935  0.6620221571462  0.7509480496859 1.0
C      1  0.6733392413593  0.7730904298118  0.6164602297248 1.0
C      1  0.6383180603430  0.7759428068021  0.4384938834445 1.0
C      1  0.6752811095950  0.6270191588689  0.2337467230923 1.0
C      1  0.4371939571603  0.4216851288309  0.1789168282515 1.0
C      1  0.4501392835695  0.2240738393530  0.2972721238667 1.0
C      1  0.4635225749229  0.1952413929394  0.5463996205411 1.0
C      1  0.4301858072684  0.2608982597948  0.7165223091637 1.0
C      1  0.4474601008285  0.4771243290755  0.8318772870588 1.0
C      1  0.4225633034909  0.7155681445411  0.7464462856145 1.0
C      1  0.4264112228340  0.8019235688370  0.5749025373016 1.0
C      1  0.4137560458125  0.7905535941050  0.3956908876633 1.0
C      1  0.4480085793729  0.6621664513562  0.1918425922714 1.0
C      1  0.6516965821124  0.0399356083393  0.5876906953131 1.0
C      1  0.6334476877582  0.2346594275893  0.8536450342633 1.0
C      1  0.6355284792419  0.5719318701421  0.9657910774609 1.0
C      1  0.6379506649205  0.8141111522898  0.8174984435626 1.0
C      1  0.6456765652803  0.9399221923593  0.5870187874042 1.0
C      1  0.6249459491777  0.8269645082792  0.2798952987720 1.0
C      1  0.6480180980866  0.6213621827917  0.0582167268211 1.0
C      1  0.6431469871730  0.3085456704979  0.1247068739740 1.0
C      1  0.6571576404778  0.1072119113539  0.2706355477878 1.0
C      1  0.7202306329674  0.7167955433511  0.6889036648919 1.0
C      1  0.7047358222865  0.7759057879692  0.5139392313987 1.0
C      1  0.7141790605646  0.6900780765476  0.3121765877240 1.0
C      1  0.7152314078186  0.5333092783234  0.2172496252574 1.0
C      1  0.7257085926812  0.3244095844721  0.2710105522114 1.0
C      1  0.7221198152695  0.2088629559449  0.3987806805823 1.0
C      1  0.7350078878631  0.1960832937080  0.6156620689187 1.0
C      1  0.7200626446500  0.3599057385877  0.7863562486183 1.0
C      1  0.6972581025812  0.5806138095983  0.7919941542703 1.0
C      1  0.3097836180159  0.3947328469090  0.5421175847658 1.0
C      1  0.3087221248679  0.4654038036293  0.6053911925899 1.0
C      1  0.3098524197620  0.5576230108615  0.6147095264955 1.0
C      1  0.3194023817954  0.6456028501038  0.5607295752678 1.0
C      1  0.2905052675923  0.6517524189610  0.4651647928994 1.0
C      1  0.2919495834677  0.6093057056653  0.3847817272736 1.0
C      1  0.2965324813921  0.5231192921919  0.3456241541316 1.0
C      1  0.3042748823305  0.4339146839221  0.3707992375865 1.0
C      1  0.3083489631905  0.3826939333643  0.4495059711019 1.0
C      1  0.5935735836507  0.2051673006221  0.5022387252233 1.0
C      1  0.5933225367597  0.2174270558462  0.6758463654091 1.0
C      1  0.5803238283661  0.4390707058252  0.8251514565608 1.0
C      1  0.5552095047443  0.6864734566750  0.6996040336511 1.0
C      1  0.5801601224643  0.7541496191641  0.6330565290507 1.0
C      1  0.5465454466687  0.7669961819352  0.4400854801296 1.0
C      1  0.5775735184238  0.6336553243164  0.2335958647407 1.0
C      1  0.5679002744958  0.4468371036552  0.2147631273245 1.0
C      1  0.5818747601668  0.2583150026529  0.3215863555637 1.0
END
