TITL C-29123-7884-188 -3.27 3375.00 -564.26645296 0 0 68 (C1) n - 1
REM
REM Run started: at 2020.12.21 07:49:34 in /gpfs/home/chem/mssmkc/CARBON/AIRSS/Generating-Clusters/Str-Search/Higher-Symm/C4-100
REM VASP from code version vasp.5.4.4.18Apr17-6-g9f103f2a35 (build Oct 11 2019 16:45:47) gamma-only
REM
REM
REM
REM
REM ./C.cell (6bd13a13d554368a30d355f37ece5b26)
REM AIRSS Version 0.9.1 bugfix July 2018 build 013d7b7c2542+ Fri, 06 Jul 2018 19:26:36 +0100
REM compiler GCC version 6.3.0
REM options -cpp -iprefix /gpfs/warwick/csc/orac/software/Core/GCCcore/6.3.0/bin/../lib/gcc/x86_64-pc-linux-gnu/6.3.0/ -mtune=generic -march=x86-64 -g -O0
REM seed -1898103407 911733063 1105558768 551941380 575907332 1675370056 1840099662 2016648715 -1923447128 459847607 -993196068 -818845418
REM
REM C.POTCAR (d86ddea03c3ceb6dc662c8ad6801f873)
REM 
CELL 1.54180   15.00000   15.00000   15.00000   90.00000   90.00000   90.00000
LATT -1
SFAC C  
C      1  0.3642164986342  0.5632608329650  0.6330137474785 1.0
C      1  0.5303606399006  0.5966730296097  0.6822296973001 1.0
C      1  0.6477951591301  0.6211597384210  0.5832533514908 1.0
C      1  0.6616661889569  0.6085856711736  0.4185931201568 1.0
C      1  0.5558929743660  0.6190640254983  0.2890016486041 1.0
C      1  0.4079449651394  0.6392165475204  0.3182469317844 1.0
C      1  0.3161220435470  0.5809548608271  0.4533504081927 1.0
C      1  0.6276618616779  0.2685332855279  0.4934878537460 1.0
C      1  0.5653270631780  0.2975665066043  0.3694146915213 1.0
C      1  0.4329068959612  0.3425354216395  0.2905975072701 1.0
C      1  0.3302511908229  0.3241747149778  0.4324119307247 1.0
C      1  0.3607358080531  0.3224814114729  0.5834191612977 1.0
C      1  0.4863457301166  0.3027175228814  0.6857134516115 1.0
C      1  0.6461940674287  0.3174358320088  0.6610275790599 1.0
C      1  0.4339839422658  0.7055084969368  0.6239364062804 1.0
C      1  0.5233834713563  0.7336140352213  0.6005944559069 1.0
C      1  0.6221630052442  0.7452534336541  0.4727614578874 1.0
C      1  0.6082209600548  0.7439423801394  0.3766404154630 1.0
C      1  0.5168027887670  0.7575807872957  0.3615533303594 1.0
C      1  0.3922879945335  0.7355579549248  0.4650898428279 1.0
C      1  0.3719248817271  0.7046944147971  0.5543906140666 1.0
C      1  0.5845567454900  0.5153921687369  0.6807295239901 1.0
C      1  0.7025574726090  0.4524211803189  0.5680392569381 1.0
C      1  0.6435377176855  0.5134850331390  0.4246962263484 1.0
C      1  0.5140151037106  0.5305468143795  0.2784011346121 1.0
C      1  0.3492430878764  0.4854836359661  0.3197989147739 1.0
C      1  0.3431971204249  0.4164510935603  0.5556358177474 1.0
C      1  0.3999761651329  0.4401870039002  0.7978651623325 1.0
C      1  0.3995624081433  0.3294981977816  0.6720372488932 1.0
C      1  0.5671491370895  0.3439886803827  0.7051487410348 1.0
C      1  0.6681826718120  0.2864260499578  0.5738631412991 1.0
C      1  0.6516957580003  0.3039238807453  0.4068073394483 1.0
C      1  0.5238524533650  0.3562816504242  0.3040170927363 1.0
C      1  0.3544254822425  0.3196554187625  0.3419591094195 1.0
C      1  0.3677831658109  0.2725753025838  0.5056115354402 1.0
C      1  0.3060225704405  0.4927800980926  0.4072999348762 1.0
C      1  0.3409778894688  0.4724938843375  0.6407244873858 1.0
C      1  0.4825152943043  0.4498197748460  0.7845580589567 1.0
C      1  0.6531121666784  0.5268706360694  0.6121525459324 1.0
C      1  0.7063103667832  0.4512211172570  0.4726676451249 1.0
C      1  0.6444926775324  0.4539039243064  0.3441858500143 1.0
C      1  0.4173464712250  0.5480445687014  0.2919410451840 1.0
C      1  0.5623426028954  0.4459140127281  0.2940705566037 1.0
C      1  0.3572877399896  0.3977412712861  0.2896366241165 1.0
C      1  0.3040940848815  0.4140052340129  0.4615392648710 1.0
C      1  0.3669510285010  0.4146256424802  0.7114005116376 1.0
C      1  0.5583351723807  0.4383425559762  0.7324778826689 1.0
C      1  0.7065352700720  0.3668547809753  0.6087857834469 1.0
C      1  0.6936663861975  0.3898482856838  0.3970700553813 1.0
C      1  0.6638923586157  0.6613808160132  0.4986513176207 1.0
C      1  0.6289225540949  0.6544190077447  0.3431242463714 1.0
C      1  0.4869695469478  0.6865497043138  0.3033421103462 1.0
C      1  0.3708465026140  0.6543040936705  0.4075365933499 1.0
C      1  0.3418752409063  0.6095598565465  0.5474733050632 1.0
C      1  0.4360150751360  0.6182200467257  0.6701143218710 1.0
C      1  0.5799115412444  0.6647197956689  0.6349230210091 1.0
C      1  0.4735859508257  0.5174778368678  0.4841268629248 1.0
C      1  0.4392465300436  0.4319947463030  0.5204566868368 1.0
C      1  0.5292622915421  0.2837033091605  0.4669256098013 1.0
C      1  0.4519449969459  0.2213972015727  0.4914405494805 1.0
C      1  0.5424656983934  0.7738241578647  0.5168858835633 1.0
C      1  0.4725243233070  0.7792863705168  0.4463027469118 1.0
C      1  0.4656721035624  0.9696250204877  0.5530811781681 1.0
C      1  0.4685901947374  0.0515431724774  0.5258448159775 1.0
C      1  0.4614033923505  0.1354463736736  0.5061124966012 1.0
C      1  0.4153548027047  0.5896982290939  0.4736526767562 1.0
C      1  0.5130684545204  0.3830361591048  0.4932390460913 1.0
C      1  0.5557385999033  0.4814372007052  0.4649930370113 1.0
END
