TITL C-29416-108-18 -8.064 3375.00 -1473.92985395 0 0 180 (C1) n - 1
REM
REM Run started: at 2020.12.26 07:07:04 in /gpfs/home/chem/mssmkc/CARBON/AIRSS/Generating-Clusters/Str-Search/Higher-Symm/Only-C180
REM VASP from code version vasp.5.4.4.18Apr17-6-g9f103f2a35 (build Oct 11 2019 16:45:47) gamma-only
REM
REM
REM
REM
REM ./C.cell (73b75853f6e4503fb4b57bac71549d7d)
REM AIRSS Version 0.9.1 bugfix July 2018 build 013d7b7c2542+ Fri, 06 Jul 2018 19:26:36 +0100
REM compiler GCC version 6.3.0
REM options -cpp -iprefix /gpfs/warwick/csc/orac/software/Core/GCCcore/6.3.0/bin/../lib/gcc/x86_64-pc-linux-gnu/6.3.0/ -mtune=generic -march=x86-64 -g -O0
REM seed -401586789 -1404562822 607161616 919157907 1341248900 -1345913170 421121322 -1088972164 -1373324506 1111802335 2136397219 1310896554
REM
REM C.POTCAR (d86ddea03c3ceb6dc662c8ad6801f873)
REM 
CELL 1.54180   15.00000   15.00000   15.00000   90.00000   90.00000   90.00000
LATT -1
SFAC C  
C      1  0.4292830023767  0.5355765869689  0.1412779083217 1.0
C      1  0.4625175660216  0.3160585692568  0.1668265523962 1.0
C      1  0.4994906903766  0.1709916181976  0.3240794002708 1.0
C      1  0.4963923489337  0.1703258873955  0.4785375356605 1.0
C      1  0.4803393622416  0.1829932667634  0.7018803179110 1.0
C      1  0.4982698886887  0.3505940914242  0.8462488771974 1.0
C      1  0.4731296811563  0.5102549130524  0.8582855857621 1.0
C      1  0.4846037272660  0.7256827095706  0.7796391975960 1.0
C      1  0.4412753491622  0.8280806831578  0.6102077107670 1.0
C      1  0.4403193492837  0.8460399385901  0.4275556971350 1.0
C      1  0.3853110506637  0.7300892421023  0.2258491773203 1.0
C      1  0.8050532714598  0.4098301224869  0.5998150874072 1.0
C      1  0.8046267649859  0.5027370690765  0.6469715326580 1.0
C      1  0.8001927601612  0.5966278774659  0.6414196444625 1.0
C      1  0.7837509650456  0.6739061044978  0.5771345067854 1.0
C      1  0.7782379944219  0.7045157347379  0.4897007790064 1.0
C      1  0.7837695464388  0.6883709242992  0.3861923204697 1.0
C      1  0.7884093210847  0.6256333112482  0.3170764585125 1.0
C      1  0.7969300549107  0.5253378806108  0.3029810198834 1.0
C      1  0.8054014740657  0.4393463576542  0.3381111670825 1.0
C      1  0.8017928532291  0.3740292453691  0.4160570318482 1.0
C      1  0.8073306232668  0.3602401926266  0.5153908761332 1.0
C      1  0.5505681159168  0.2854235090379  0.8100278161011 1.0
C      1  0.5516073474919  0.5051768148974  0.9206879839049 1.0
C      1  0.5546746735839  0.6687798357858  0.8192416439888 1.0
C      1  0.5152710854018  0.8420033099110  0.6641108481149 1.0
C      1  0.5071972014758  0.9101039476632  0.4691652227839 1.0
C      1  0.4635869312599  0.7529170040379  0.2748728500726 1.0
C      1  0.4776225993985  0.6169468410867  0.1397672108050 1.0
C      1  0.5244981571324  0.3884718201703  0.1514046990449 1.0
C      1  0.5506064951552  0.2031298684712  0.2479904039694 1.0
C      1  0.5556622876268  0.1366541872546  0.4055487351517 1.0
C      1  0.5629088199148  0.1824825595963  0.6461299170168 1.0
C      1  0.3501511543531  0.2425034971271  0.6056690887730 1.0
C      1  0.3524991545197  0.3715541772135  0.7429136994688 1.0
C      1  0.3421336773744  0.4739012530087  0.7641035502896 1.0
C      1  0.3289179692368  0.6507667815058  0.6949238149158 1.0
C      1  0.3117722741478  0.7061380233931  0.6094023310380 1.0
C      1  0.3216438003273  0.7444470171501  0.4485091919490 1.0
C      1  0.2833190241400  0.6463923156746  0.3177909785568 1.0
C      1  0.2972876578196  0.5615326975978  0.2549377197348 1.0
C      1  0.3311161254721  0.3717474319122  0.2681569633007 1.0
C      1  0.3420435648353  0.2859145606676  0.3269556148694 1.0
C      1  0.3467967617286  0.2254185944290  0.5044133529500 1.0
C      1  0.3583856530683  0.6064824898310  0.3799310499159 1.0
C      1  0.3614704375635  0.5241004062960  0.3328950216195 1.0
C      1  0.3731668320373  0.4293711062752  0.3432534162040 1.0
C      1  0.3836901443378  0.3527390006555  0.3994272618464 1.0
C      1  0.3878791117206  0.3200937509971  0.4895499010271 1.0
C      1  0.3950471635307  0.3352359779788  0.5827498232068 1.0
C      1  0.3946182742232  0.4006308746791  0.6517063705387 1.0
C      1  0.3873142045790  0.4933423327598  0.6698286367516 1.0
C      1  0.3792901100932  0.5815713690449  0.6336614225221 1.0
C      1  0.3729278903465  0.6399109969827  0.5564472395634 1.0
C      1  0.3730770217974  0.6561250821163  0.4609025018840 1.0
C      1  0.7274920360014  0.7875240682609  0.4728065431006 1.0
C      1  0.7324206207362  0.7733901046076  0.3791749204339 1.0
C      1  0.7404102601921  0.6276020548365  0.2246994387863 1.0
C      1  0.7467480167027  0.5336618044468  0.2180824027555 1.0
C      1  0.7439177028074  0.3708334940330  0.2865480261055 1.0
C      1  0.7541239143656  0.3103733208286  0.3618783839372 1.0
C      1  0.7816931215145  0.2743153345641  0.5434307373922 1.0
C      1  0.7753370593434  0.3665782735978  0.6857951297535 1.0
C      1  0.7703745085364  0.4524988925024  0.7259051096590 1.0
C      1  0.7702119211400  0.6600885896271  0.7155550386670 1.0
C      1  0.7464851270761  0.7291514730528  0.6533781816449 1.0
C      1  0.1896021068018  0.2983182792346  0.4976307448210 1.0
C      1  0.1930582331533  0.3192000896179  0.5880132994665 1.0
C      1  0.1916972752744  0.3872015539714  0.6635246671812 1.0
C      1  0.1828101881553  0.4750468400280  0.6879563070519 1.0
C      1  0.1782603869359  0.5692345821324  0.6553321262320 1.0
C      1  0.1680253918650  0.6057232924116  0.5698330297319 1.0
C      1  0.1339074125827  0.5495897384130  0.5007095865857 1.0
C      1  0.1593375031437  0.5663996662331  0.4107218590840 1.0
C      1  0.1637751637362  0.4979320961781  0.3443256662775 1.0
C      1  0.1730343103298  0.3994458479017  0.3471589186171 1.0
C      1  0.1834274238205  0.3283479754136  0.4022631599462 1.0
C      1  0.6328336383880  0.2054147927326  0.4219485058465 1.0
C      1  0.6654831296479  0.2255037748205  0.6582172660058 1.0
C      1  0.6265772861515  0.3291414089397  0.7627346173913 1.0
C      1  0.6778659512128  0.5676810363068  0.7878830033673 1.0
C      1  0.6464754821956  0.7125022203659  0.8129389568212 1.0
C      1  0.6127233829336  0.8316035019054  0.6115438073075 1.0
C      1  0.5907399558211  0.8699007441890  0.4454616262442 1.0
C      1  0.6322917653532  0.7397071868494  0.2500301440787 1.0
C      1  0.5660841300488  0.6292089624768  0.1871569442833 1.0
C      1  0.6190308163458  0.3972445435804  0.1625690608198 1.0
C      1  0.6242305461333  0.2626793357326  0.2792351932446 1.0
C      1  0.2224091084348  0.6851412873210  0.5538530788409 1.0
C      1  0.2331158794066  0.7050424590071  0.4624876701826 1.0
C      1  0.2103463214057  0.6457024993434  0.3911654129194 1.0
C      1  0.2210250943772  0.5003727385563  0.2659992252319 1.0
C      1  0.2364426804556  0.4072848621650  0.2708406775072 1.0
C      1  0.2553707067407  0.2631660577484  0.3762895166349 1.0
C      1  0.2584110940269  0.2347619827253  0.4641850746778 1.0
C      1  0.2637680289266  0.2738539376034  0.6407591666997 1.0
C      1  0.2635674548404  0.3344561357928  0.7102490252013 1.0
C      1  0.2530992696510  0.5099116859820  0.7469194278665 1.0
C      1  0.2456027676165  0.5992046324330  0.7194695072111 1.0
C      1  0.3310651757112  0.0743514202288  0.3266477241176 1.0
C      1  0.3627420740233  0.0593495342754  0.4999502316858 1.0
C      1  0.3547238043066  0.0848851838933  0.6462884003023 1.0
C      1  0.3106527102916  0.3669253599088  0.9406670539947 1.0
C      1  0.3081264388485  0.5409257980456  0.9778430214235 1.0
C      1  0.3580287929998  0.6659311817772  0.8548478475503 1.0
C      1  0.2835010030384  0.9426825837837  0.5659107622814 1.0
C      1  0.2249492951046  0.9096477881665  0.4009811407327 1.0
C      1  0.2408905066421  0.8043417355243  0.2759473545840 1.0
C      1  0.2600529236234  0.4503463768200  0.0831963335626 1.0
C      1  0.2709902606626  0.3709002996229  0.0292907423627 1.0
C      1  0.6765355140577  0.7893469820227  0.6737939299017 1.0
C      1  0.6520208942483  0.8399758176041  0.5139045943642 1.0
C      1  0.6573380948378  0.7876023800888  0.3234840102836 1.0
C      1  0.6663491829194  0.6760688850696  0.1899971645202 1.0
C      1  0.6578771218728  0.4832851069558  0.2078627344770 1.0
C      1  0.6638094737848  0.3381122737975  0.2278342926351 1.0
C      1  0.6905872142806  0.2394589982480  0.3543143683693 1.0
C      1  0.7103433186411  0.2306161959105  0.5691000243191 1.0
C      1  0.7122236438904  0.2963332636243  0.7191231817009 1.0
C      1  0.6992409314412  0.4797987430948  0.7805040192131 1.0
C      1  0.7197709978867  0.6522001144096  0.7943783038616 1.0
C      1  0.4002293990735  0.1457024812261  0.4757770793433 1.0
C      1  0.3938917109603  0.1641181842368  0.6557638738934 1.0
C      1  0.4068784149070  0.3110939833106  0.8171082511577 1.0
C      1  0.3755198777075  0.5063192249850  0.8553087130983 1.0
C      1  0.3882987352288  0.6912439542192  0.7747763021905 1.0
C      1  0.3450103084429  0.8008249398438  0.6203289830373 1.0
C      1  0.3450230184817  0.8320281468642  0.4488286803288 1.0
C      1  0.2972155310515  0.7349164014031  0.2705517073486 1.0
C      1  0.3370578572592  0.5786527570804  0.1547885062418 1.0
C      1  0.3801807951264  0.3731164753648  0.1755316888290 1.0
C      1  0.4036136875251  0.2010598265926  0.2754050735236 1.0
C      1  0.6558765004335  0.4235314725222  0.2880662735226 1.0
C      1  0.5843427414946  0.2960386545793  0.3730940879288 1.0
C      1  0.6279606472255  0.2450305539264  0.5137837743337 1.0
C      1  0.6245590825582  0.3152655399691  0.6656359198129 1.0
C      1  0.6113387070080  0.4291791709773  0.7672939936265 1.0
C      1  0.5854548774225  0.5876449974876  0.7567302412206 1.0
C      1  0.6299879686972  0.7845967936920  0.7575639591802 1.0
C      1  0.5692574091096  0.7740211897064  0.5444501581292 1.0
C      1  0.5774709216679  0.7946095400490  0.3811988985766 1.0
C      1  0.5444851435953  0.6945381080783  0.2627988493236 1.0
C      1  0.5894071282888  0.5472767581168  0.2351489640619 1.0
C      1  0.5094593094922  0.2351241234935  0.3987339709116 1.0
C      1  0.5536510428938  0.1930779073397  0.5554725081215 1.0
C      1  0.4754683357257  0.2363029265063  0.7756057799931 1.0
C      1  0.5389530174776  0.4373850472775  0.8435738179408 1.0
C      1  0.5394492668640  0.5771056907175  0.8452114454239 1.0
C      1  0.5329974745892  0.7981210417065  0.7463096648829 1.0
C      1  0.4855173257036  0.8294519959560  0.5229427018454 1.0
C      1  0.4829365306007  0.8018231226895  0.3511452497816 1.0
C      1  0.3960748057852  0.6640356044612  0.1609529917420 1.0
C      1  0.4482840365416  0.4482662144452  0.1519997634801 1.0
C      1  0.4719672170215  0.2369285137673  0.2093427658614 1.0
C      1  0.5858803771053  0.4603746458641  0.6679593086278 1.0
C      1  0.5719042017456  0.5540516898020  0.6627069711159 1.0
C      1  0.5760564797008  0.5973661530618  0.5709446920801 1.0
C      1  0.5698726902300  0.6817880883564  0.5196470545270 1.0
C      1  0.5674572953317  0.6905918544538  0.4243593308115 1.0
C      1  0.5552000725966  0.6362107915649  0.3510252717113 1.0
C      1  0.5728527300366  0.5443020142728  0.3273469198027 1.0
C      1  0.6032037336425  0.4538567408864  0.3606225140279 1.0
C      1  0.5945616737100  0.3792963008879  0.4253171954702 1.0
C      1  0.6037589720571  0.3505389156410  0.5153216136320 1.0
C      1  0.6012865105070  0.3851976139769  0.6061409939895 1.0
C      1  0.2142206379212  0.8689616432502  0.3251621388206 1.0
C      1  0.2828744982604  0.5404015644760  0.0728295998756 1.0
C      1  0.3051180320582  0.3745667327315  0.1137226141884 1.0
C      1  0.3420110638034  0.1266919177152  0.2631799283912 1.0
C      1  0.3572368599458  0.0714430173421  0.4136755660057 1.0
C      1  0.3228448493900  0.0305625939206  0.5810541035198 1.0
C      1  0.3370516680455  0.2984786782472  0.8861623291719 1.0
C      1  0.3275317746845  0.4610832738130  0.9288994641553 1.0
C      1  0.3418174506421  0.5939054664821  0.9027200769710 1.0
C      1  0.2966409188989  0.8748313287561  0.6223309171309 1.0
C      1  0.2797322734443  0.9047252467988  0.4717042900593 1.0
C      1  0.6331437251969  0.5361092058148  0.5071795546515 1.0
C      1  0.5393649304228  0.5250415388143  0.5066425790223 1.0
C      1  0.4601897120943  0.4954691986990  0.4910182805429 1.0
C      1  0.7157852282767  0.5284526986765  0.4831796646813 1.0
END
