TITL C-29466-1856-28 -2.269 3375.00 -390.95326708 0 0 50 (C2) n - 1
REM
REM Run started: at 2020.12.17 13:43:43 in /rds/project/t2_vol4/rds-t2-cs072/BORA/CARBON/AIRSS/Generating-Clusters/Str-Search/Higher-Symm/C10-100
REM VASP from code version vasp.5.4.4.18Apr17-6-g9f103f2a35 (build Oct 11 2019 16:45:47) gamma-only
REM
REM
REM
REM
REM ./C.cell (f39ce9773e2efe3fa5bbdf770a4156b8)
REM AIRSS Version 0.9.1 bugfix July 2018 build 013d7b7c2542+ Fri, 06 Jul 2018 19:26:36 +0100
REM compiler GCC version 4.8.5 20150623 (Red Hat 4.8.5-39)
REM options -cpp -mtune=generic -march=x86-64 -g -O0
REM seed 1049459440 -1389497315 -989281016 1509624341 -1867558511 415329410 333998700 -2082821365 1465956139 925583551 -1479450806 883451705
REM
REM C.POTCAR (d86ddea03c3ceb6dc662c8ad6801f873)
REM 
CELL 1.54180   15.00000   15.00000   15.00000   90.00000   90.00000   90.00000
LATT -1
SFAC C  
C      1  0.5982670353035  0.5597624458043  0.7161393414940 1.0
C      1  0.4017330572769  0.5597631509131  0.2838604004943 1.0
C      1  0.5905826699297  0.4632142053817  0.7211766223296 1.0
C      1  0.4094167113684  0.4632149634667  0.2788232561938 1.0
C      1  0.4952735292777  0.6928760445298  0.4257601470637 1.0
C      1  0.5047394965424  0.6928679880086  0.5742424516594 1.0
C      1  0.5229653154865  0.3050306851250  0.4037411803203 1.0
C      1  0.4770334188131  0.3050315373501  0.5962595252172 1.0
C      1  0.5924348679171  0.4359390187538  0.5705061339980 1.0
C      1  0.4075645225063  0.4359386254464  0.4294933560170 1.0
C      1  0.5966955890391  0.5504809020401  0.5619110752696 1.0
C      1  0.4033051345325  0.5504847199759  0.4380882863251 1.0
C      1  0.4921109547942  0.5908143266314  0.4511511010246 1.0
C      1  0.5078924550169  0.5908129697678  0.5488445539904 1.0
C      1  0.4938782374013  0.3893353763480  0.4514129112374 1.0
C      1  0.5061207441935  0.3893358864950  0.5485873388459 1.0
C      1  0.5885501073388  0.3829936690920  0.4142073580059 1.0
C      1  0.4114493423582  0.3829955182535  0.5857933068887 1.0
C      1  0.5802215200479  0.5690459115245  0.3904812129813 1.0
C      1  0.4197808338739  0.5690465930580  0.6095201605678 1.0
C      1  0.4947443720024  0.2287212433048  0.5416590800032 1.0
C      1  0.5052523345593  0.2287210024627  0.4583419946573 1.0
C      1  0.5469382224071  0.7459322449239  0.5059959680936 1.0
C      1  0.4530525128369  0.7459409810892  0.4939999253807 1.0
C      1  0.6451531420102  0.5373511997425  0.4680742652162 1.0
C      1  0.3548480638428  0.5373527554620  0.5319253031355 1.0
C      1  0.6457073441361  0.4330647897450  0.4789256622311 1.0
C      1  0.3542925801445  0.4330660730758  0.5210740247010 1.0
C      1  0.4521452760457  0.3656382268746  0.6741214347769 1.0
C      1  0.5478530413109  0.3656374561648  0.3258795065388 1.0
C      1  0.4646715688405  0.6565046689718  0.6543830294543 1.0
C      1  0.5353292486304  0.6565012561635  0.3456196783912 1.0
C      1  0.3467651310775  0.5859513031291  0.3608688450073 1.0
C      1  0.6532350222224  0.5859505221810  0.6391310562400 1.0
C      1  0.3543032751043  0.4165290925038  0.3452275417913 1.0
C      1  0.6456957219466  0.4165280604575  0.6547725949924 1.0
C      1  0.7386181768852  0.4400489975098  0.5214253576488 1.0
C      1  0.2613813048435  0.4400500076412  0.4785753951841 1.0
C      1  0.7405404027887  0.5327481786102  0.5120974829685 1.0
C      1  0.2594606123870  0.5327493998127  0.4879022824599 1.0
C      1  0.5063702731145  0.5971154888422  0.7163716089816 1.0
C      1  0.4936297570920  0.5971154304873  0.2836276401155 1.0
C      1  0.4933792436302  0.4409356372189  0.7132663801193 1.0
C      1  0.5066196748023  0.4409349844801  0.2867337359936 1.0
C      1  0.7299256244440  0.4473775121020  0.6245458863322 1.0
C      1  0.2700733256703  0.4473789863318  0.3754545381727 1.0
C      1  0.7337968000306  0.5450193770881  0.6143816661828 1.0
C      1  0.2662031545035  0.5450207453165  0.3856186053771 1.0
C      1  0.4474773151643  0.5234940195282  0.6980800515348 1.0
C      1  0.5525219345083  0.5234932208139  0.3019197383943 1.0
END
