TITL C-29197-4843-8 -4.705 3375.00 -810.71794084 0 0 100 (C1) n - 1
REM
REM Run started: at 2020.11.20 06:24:35 in /rds/project/t2_vol4/rds-t2-cs072/BORA/CARBON/AIRSS/Generating-Clusters/Str-Search/Higher-Symm
REM VASP from code version vasp.5.4.4.18Apr17-6-g9f103f2a35 (build Oct 11 2019 16:45:47) gamma-only
REM
REM
REM
REM
REM ./C.cell (e5ae0387ce4d49c7c0135a1433873289)
REM AIRSS Version 0.9.1 bugfix July 2018 build 013d7b7c2542+ Fri, 06 Jul 2018 19:26:36 +0100
REM compiler GCC version 4.8.5 20150623 (Red Hat 4.8.5-39)
REM options -cpp -mtune=generic -march=x86-64 -g -O0
REM seed -99736956 -1221898572 1597988544 196051399 -1274350098 -1844406603 1160165618 1192180123 873252528 561408204 -2028468109 1270988727
REM
REM C.POTCAR (d86ddea03c3ceb6dc662c8ad6801f873)
REM 
CELL 1.54180   15.00000   15.00000   15.00000   90.00000   90.00000   90.00000
LATT -1
SFAC C  
C      1  0.5957418571812  0.2922109653688  0.6881182210067 1.0
C      1  0.4996064177461  0.2938171154847  0.7099477130680 1.0
C      1  0.3280536809349  0.2972845161573  0.6206453366233 1.0
C      1  0.2844149349568  0.2956910592130  0.5331825610694 1.0
C      1  0.3416317096756  0.3114727856746  0.3553136370995 1.0
C      1  0.4196319301191  0.3121083172176  0.2969288284561 1.0
C      1  0.5920412728237  0.2950022095244  0.2860888423911 1.0
C      1  0.7070095260131  0.2984082767584  0.4319336231612 1.0
C      1  0.7118718555221  0.2937237175794  0.5301055130393 1.0
C      1  0.4987885155567  0.5871438413232  0.8112652645960 1.0
C      1  0.2812108958496  0.5606305994668  0.7649171070012 1.0
C      1  0.1447495186164  0.5621265068718  0.5815572468819 1.0
C      1  0.2442770093157  0.5921640273557  0.3814410732456 1.0
C      1  0.3244842853204  0.5294940519285  0.1629745171677 1.0
C      1  0.6055409848660  0.5917995700255  0.2007479071432 1.0
C      1  0.7789210402054  0.5613739081258  0.2376424449147 1.0
C      1  0.8262237574900  0.5827771344200  0.5538142230443 1.0
C      1  0.7983878289237  0.5474169140471  0.7333980989575 1.0
C      1  0.4493720053361  0.4730790154519  0.6261219139298 1.0
C      1  0.4152566555336  0.5106727883942  0.5506026162222 1.0
C      1  0.4110552478102  0.5198413420864  0.4571106906820 1.0
C      1  0.4373263190898  0.4886044897101  0.3756667072543 1.0
C      1  0.5265142290974  0.4690930238678  0.3542114896739 1.0
C      1  0.6086074352264  0.4699977799348  0.4005244113435 1.0
C      1  0.6401792927394  0.4683187926632  0.4914648097717 1.0
C      1  0.6163383578085  0.4668448560390  0.5825462880490 1.0
C      1  0.5401425866112  0.4657065854925  0.6373437434130 1.0
C      1  0.4664158778517  0.2479044056155  0.3568941176633 1.0
C      1  0.5618554091324  0.2458752853489  0.3620832696176 1.0
C      1  0.6254651156738  0.2415450658903  0.4336667929293 1.0
C      1  0.6303598464532  0.2374361215238  0.5317776828761 1.0
C      1  0.5765028477552  0.2357664784599  0.6085556234071 1.0
C      1  0.4818040447426  0.2353771118779  0.6318682548494 1.0
C      1  0.3993958666359  0.2381523921916  0.5901324777832 1.0
C      1  0.3589080376173  0.2397315147617  0.5013575482440 1.0
C      1  0.3862596714754  0.2456492857260  0.4132196204525 1.0
C      1  0.7213467148937  0.5108383703719  0.2891228266498 1.0
C      1  0.7981925119856  0.5192501858597  0.4874115167406 1.0
C      1  0.7483774126055  0.4985867996822  0.6767553953220 1.0
C      1  0.5611353916402  0.5183340849979  0.7860346579755 1.0
C      1  0.3620755719097  0.5137519227143  0.7551518187907 1.0
C      1  0.2147947725503  0.5083511415725  0.6211918894211 1.0
C      1  0.1995102626761  0.5131164943871  0.4214528111187 1.0
C      1  0.3242839278773  0.5306229631703  0.2530177667180 1.0
C      1  0.5349362556777  0.5281313508399  0.2135166420369 1.0
C      1  0.5231951376325  0.4366621493072  0.2530914331540 1.0
C      1  0.6905516242816  0.4483595964272  0.3452364595706 1.0
C      1  0.7432609221905  0.4364236036815  0.4872380619510 1.0
C      1  0.6935832927755  0.4241966587338  0.6409708502928 1.0
C      1  0.5575853180515  0.4328621690326  0.7342919512525 1.0
C      1  0.3931234329844  0.4317776123389  0.7053670407973 1.0
C      1  0.2494670650818  0.4247344254258  0.6041835884911 1.0
C      1  0.2369942102971  0.4264261581757  0.4302093385521 1.0
C      1  0.3653843634968  0.4557468204943  0.3067439221264 1.0
C      1  0.2264151087967  0.6388927147443  0.4673444167774 1.0
C      1  0.3357710589195  0.5229271646632  0.0778497197086 1.0
C      1  0.5605583469516  0.6571145453659  0.1442235287283 1.0
C      1  0.7913861552866  0.6400233461503  0.2012158839803 1.0
C      1  0.8707217211071  0.6515402040640  0.5002033808964 1.0
C      1  0.8368986345806  0.6285154100960  0.7356190907602 1.0
C      1  0.5576921090005  0.6486472278133  0.8588812233985 1.0
C      1  0.3247185132197  0.6106853489081  0.8324451157349 1.0
C      1  0.1364917602371  0.6124261272820  0.6596816149100 1.0
C      1  0.1611866610107  0.5729330465351  0.4902803118082 1.0
C      1  0.3007327497385  0.6066064513648  0.3114918968574 1.0
C      1  0.4986898333402  0.6176440158397  0.2101322652558 1.0
C      1  0.6804028354503  0.6011878995916  0.2655089609600 1.0
C      1  0.7952158722806  0.6091424827139  0.4524933476555 1.0
C      1  0.7727856856885  0.5900878041824  0.6375088406713 1.0
C      1  0.6032115095367  0.6044755680774  0.7834297650552 1.0
C      1  0.4084774324483  0.5991545761520  0.7690809600610 1.0
C      1  0.2351039401299  0.5839548227499  0.6823913990659 1.0
C      1  0.6356424482605  0.3729034123625  0.7060416288262 1.0
C      1  0.4722815926064  0.3758157615176  0.7400849437538 1.0
C      1  0.3181075936025  0.3807558399930  0.6590774948177 1.0
C      1  0.2406149459009  0.3767845119603  0.5165752936360 1.0
C      1  0.3015143801991  0.3946151390112  0.3634008943047 1.0
C      1  0.4311824330937  0.3943779260749  0.2587209507452 1.0
C      1  0.5853365095228  0.3611727750701  0.2372403668608 1.0
C      1  0.7350040564323  0.3807954188635  0.4019064661555 1.0
C      1  0.7381695227969  0.3731919964139  0.5663244409393 1.0
C      1  0.4570748113729  0.6699446050338  0.2809566006026 1.0
C      1  0.6648815401879  0.6563305083752  0.3463237371780 1.0
C      1  0.7144129795782  0.6555453881542  0.4244053150351 1.0
C      1  0.6931850764214  0.6475113928289  0.6369137201338 1.0
C      1  0.6241331439625  0.6490935623577  0.7008263463575 1.0
C      1  0.3920545594897  0.6564815690396  0.6806240748609 1.0
C      1  0.3089712736448  0.6465386361980  0.6374441909974 1.0
C      1  0.3069825636323  0.6514692608914  0.5312843501084 1.0
C      1  0.3720063543743  0.6694572288956  0.3213595088704 1.0
C      1  0.5854780181895  0.6961761764851  0.3921620824542 1.0
C      1  0.6393313962308  0.6918081600011  0.4781102251708 1.0
C      1  0.6320847442826  0.6893599658545  0.5692366871744 1.0
C      1  0.5610796738939  0.6891626160855  0.6411328754201 1.0
C      1  0.4671076940847  0.7002260569654  0.6317362395064 1.0
C      1  0.4497922026059  0.7407184706308  0.5496854543192 1.0
C      1  0.3826262085576  0.7158013575780  0.4924285673152 1.0
C      1  0.4073781806390  0.7123681025375  0.4024326542049 1.0
C      1  0.4991544271129  0.7069582038952  0.3628513814601 1.0
C      1  0.3534125852865  0.5656367418404  0.5131636985166 1.0
END
