TITL C-29123-7884-215 -3.035 3375.00 -484.51047351 0 0 59 (C1) n - 1
REM
REM Run started: at 2020.12.21 12:43:27 in /gpfs/home/chem/mssmkc/CARBON/AIRSS/Generating-Clusters/Str-Search/Higher-Symm/C4-100
REM VASP from code version vasp.5.4.4.18Apr17-6-g9f103f2a35 (build Oct 11 2019 16:45:47) gamma-only
REM
REM
REM
REM
REM ./C.cell (6bd13a13d554368a30d355f37ece5b26)
REM AIRSS Version 0.9.1 bugfix July 2018 build 013d7b7c2542+ Fri, 06 Jul 2018 19:26:36 +0100
REM compiler GCC version 6.3.0
REM options -cpp -iprefix /gpfs/warwick/csc/orac/software/Core/GCCcore/6.3.0/bin/../lib/gcc/x86_64-pc-linux-gnu/6.3.0/ -mtune=generic -march=x86-64 -g -O0
REM seed 446205697 878661201 1722099755 -673762095 -1235525895 -2055188575 922192127 -1718585784 674894659 1168364106 -1152118289 831499865
REM
REM C.POTCAR (d86ddea03c3ceb6dc662c8ad6801f873)
REM 
CELL 1.54180   15.00000   15.00000   15.00000   90.00000   90.00000   90.00000
LATT -1
SFAC C  
C      1  0.2366142480219  0.5035009200849  0.4051328788587 1.0
C      1  0.4525350301293  0.2426487777606  0.4522046512601 1.0
C      1  0.4103586241079  0.4200621281620  0.2879812682632 1.0
C      1  0.7495896981136  0.5928884608083  0.3736876560144 1.0
C      1  0.6978773898833  0.4524042502509  0.6186464359381 1.0
C      1  0.2816263002568  0.5838506025708  0.6104342321887 1.0
C      1  0.6178559479751  0.7413996334263  0.5019444873889 1.0
C      1  0.6260093888186  0.2709262391868  0.5979307973292 1.0
C      1  0.3901433242415  0.7499126277432  0.5797450179594 1.0
C      1  0.5923807852591  0.6307325088207  0.2673311189850 1.0
C      1  0.5053564287259  0.3916540162462  0.7418551617434 1.0
C      1  0.4396208670275  0.5956164803449  0.7497496207273 1.0
C      1  0.6784034175113  0.5406805465711  0.6464608776050 1.0
C      1  0.6572752559304  0.6882506108402  0.5703201120451 1.0
C      1  0.5655085643992  0.6340236376270  0.7019617103148 1.0
C      1  0.2924403618376  0.4243309990146  0.6378430214494 1.0
C      1  0.2942134572061  0.5667494854009  0.3627051059628 1.0
C      1  0.7042827172016  0.4388651753064  0.3844745100153 1.0
C      1  0.3604426288745  0.2855471333395  0.5865203133473 1.0
C      1  0.3860669978092  0.6986218249130  0.4209740395780 1.0
C      1  0.6226003339043  0.3049605061407  0.4386255474543 1.0
C      1  0.4288128609522  0.3474089992749  0.7089638779802 1.0
C      1  0.4367532854630  0.5985135317443  0.2966046805711 1.0
C      1  0.5635136576351  0.3932390036266  0.3108204196773 1.0
C      1  0.7124720909481  0.3990590401748  0.5401128164663 1.0
C      1  0.5398477180021  0.7625513623306  0.4604174646394 1.0
C      1  0.3687138411150  0.5445352840171  0.7320246009329 1.0
C      1  0.2936583909805  0.6411248997245  0.5516851885014 1.0
C      1  0.2239769602423  0.4633193217176  0.4866480952578 1.0
C      1  0.7509621331198  0.6590244575681  0.4233014161440 1.0
C      1  0.4726715877372  0.2789603989494  0.3671024138767 1.0
C      1  0.4403710117703  0.7335287541330  0.6445910225787 1.0
C      1  0.5747103807123  0.2567304597431  0.6617319569141 1.0
C      1  0.5598771181990  0.4683834766673  0.7402698994972 1.0
C      1  0.6272891287714  0.5452225407124  0.2826574293617 1.0
C      1  0.3182800636238  0.4069270200090  0.2854669488642 1.0
C      1  0.6409481038038  0.4678185493193  0.6919419788222 1.0
C      1  0.7016478037067  0.6993936756418  0.4885121063930 1.0
C      1  0.4804801770809  0.6806164992260  0.7056192911915 1.0
C      1  0.3065518479062  0.5150889930416  0.6698883815152 1.0
C      1  0.2783453308827  0.4808547994794  0.3240493903665 1.0
C      1  0.7049916291264  0.5211384802680  0.3331099776317 1.0
C      1  0.3946135498745  0.2449927631490  0.5228163146526 1.0
C      1  0.3470761058875  0.7046954542307  0.5096280702873 1.0
C      1  0.6618154206831  0.3168716449643  0.5258219412421 1.0
C      1  0.5123527761641  0.3041181906965  0.7092302118129 1.0
C      1  0.5116304532454  0.6515617899446  0.2751070950011 1.0
C      1  0.4764128472073  0.3524656540832  0.3099355563753 1.0
C      1  0.5545820432397  0.4825242861459  0.2781538772818 1.0
C      1  0.2433658091527  0.4252989179865  0.5575635953060 1.0
C      1  0.5421228809743  0.2556616151472  0.4259363302206 1.0
C      1  0.5293160182570  0.5582045370283  0.7496801303045 1.0
C      1  0.7491275365949  0.4449151818713  0.4672305054761 1.0
C      1  0.4692364866460  0.7413060977972  0.4212147715709 1.0
C      1  0.6410161472477  0.6289108691925  0.6425280116103 1.0
C      1  0.3501644350507  0.3485988064214  0.6551605718093 1.0
C      1  0.3654164834498  0.6273461618442  0.3577866010603 1.0
C      1  0.6346951938433  0.3728572490167  0.3712832538225 1.0
C      1  0.4613719234685  0.5058117685529  0.2806412405544 1.0
END
