TITL C-29086-3345-206 -1.906 3375.00 -289.73315462 0 0 37 (C1) n - 1
REM
REM Run started: at 2020.12.21 06:23:07 in /gpfs/home/chem/mssmkc/CARBON/AIRSS/Generating-Clusters/Str-Search/Higher-Symm/C4-100
REM VASP from code version vasp.5.4.4.18Apr17-6-g9f103f2a35 (build Oct 11 2019 16:45:47) gamma-only
REM
REM
REM
REM
REM ./C.cell (6bd13a13d554368a30d355f37ece5b26)
REM AIRSS Version 0.9.1 bugfix July 2018 build 013d7b7c2542+ Fri, 06 Jul 2018 19:26:36 +0100
REM compiler GCC version 6.3.0
REM options -cpp -iprefix /gpfs/warwick/csc/orac/software/Core/GCCcore/6.3.0/bin/../lib/gcc/x86_64-pc-linux-gnu/6.3.0/ -mtune=generic -march=x86-64 -g -O0
REM seed 1995025317 22640179 49203987 -466615837 262789497 513255664 2080071940 511067133 1469985230 -1700397922 915952140 1761174552
REM
REM C.POTCAR (d86ddea03c3ceb6dc662c8ad6801f873)
REM 
CELL 1.54180   15.00000   15.00000   15.00000   90.00000   90.00000   90.00000
LATT -1
SFAC C  
C      1  0.7147862002165  0.5805457842386  0.4672764665719 1.0
C      1  0.6208638831198  0.4977695971361  0.7090708311104 1.0
C      1  0.3688711563094  0.5350140707230  0.6840031935861 1.0
C      1  0.2803423512422  0.5741859465160  0.4185036437905 1.0
C      1  0.5417095512722  0.5380443212150  0.2531233064574 1.0
C      1  0.4257299282762  0.3964720065091  0.7231255255189 1.0
C      1  0.2793056285097  0.4384706514871  0.5164606833299 1.0
C      1  0.4332001172110  0.4246913035650  0.2981346029903 1.0
C      1  0.6815430759770  0.4571669168047  0.4099187384034 1.0
C      1  0.6926175310937  0.3481095979963  0.6633742647527 1.0
C      1  0.6632326121094  0.4224294279260  0.6994855843076 1.0
C      1  0.3947374738080  0.4762265497518  0.7441349300152 1.0
C      1  0.2577167062812  0.5060393253108  0.4665668124257 1.0
C      1  0.4819763209033  0.4756777384574  0.2482029183654 1.0
C      1  0.7424301742939  0.5179231997679  0.4085788334584 1.0
C      1  0.3678515183469  0.5943183938691  0.4024548287645 1.0
C      1  0.5447007393111  0.5876185621407  0.3302713587678 1.0
C      1  0.6519659979478  0.6172949752045  0.5112226406538 1.0
C      1  0.5592887343352  0.5236122242972  0.6546193749186 1.0
C      1  0.3759323773692  0.5772063814314  0.6082626775325 1.0
C      1  0.4201369652301  0.3448928203040  0.5338579305799 1.0
C      1  0.4562696924800  0.3577077287345  0.4479778300845 1.0
C      1  0.5513472378182  0.3608120235002  0.4571130561072 1.0
C      1  0.5739522743407  0.3214875442948  0.5439988117674 1.0
C      1  0.4880339937142  0.3183794823718  0.5965099057989 1.0
C      1  0.4730455872104  0.3345461489391  0.6860658535233 1.0
C      1  0.3619229726706  0.4212512922968  0.5495219355310 1.0
C      1  0.4198392918161  0.4251842344909  0.3869341605448 1.0
C      1  0.5922227191292  0.4394080003172  0.4169847072480 1.0
C      1  0.6517131628171  0.3271018043608  0.5895935626389 1.0
C      1  0.4327980296477  0.5181595876854  0.4358300433564 1.0
C      1  0.5365766396133  0.5308115792136  0.4179393628128 1.0
C      1  0.5692753994846  0.5736607529381  0.5056553142327 1.0
C      1  0.5159582528651  0.5378225147311  0.5767973704425 1.0
C      1  0.4195030664995  0.5113821200429  0.5453209398066 1.0
C      1  0.4977583229067  0.6690817046729  0.3383801340197 1.0
C      1  0.4197218138229  0.6653477867584  0.3704961657846 1.0
END
