TITL C-29086-3345-238 -1.194 3375.00 -193.67589283 0 0 24 (C2) n - 1
REM
REM Run started: at 2020.12.21 12:24:54 in /gpfs/home/chem/mssmkc/CARBON/AIRSS/Generating-Clusters/Str-Search/Higher-Symm/C4-100
REM VASP from code version vasp.5.4.4.18Apr17-6-g9f103f2a35 (build Oct 11 2019 16:45:47) gamma-only
REM
REM
REM
REM
REM ./C.cell (6bd13a13d554368a30d355f37ece5b26)
REM AIRSS Version 0.9.1 bugfix July 2018 build 013d7b7c2542+ Fri, 06 Jul 2018 19:26:36 +0100
REM compiler GCC version 6.3.0
REM options -cpp -iprefix /gpfs/warwick/csc/orac/software/Core/GCCcore/6.3.0/bin/../lib/gcc/x86_64-pc-linux-gnu/6.3.0/ -mtune=generic -march=x86-64 -g -O0
REM seed 1403422834 -961332687 -1041030666 -2089719460 1620985541 -900463907 -892289608 -1549140513 582305845 1899544808 1989549135 505700546
REM
REM C.POTCAR (d86ddea03c3ceb6dc662c8ad6801f873)
REM 
CELL 1.54180   15.00000   15.00000   15.00000   90.00000   90.00000   90.00000
LATT -1
SFAC C  
C      1  0.4247001544728  0.4054464482497  0.4217896847526 1.0
C      1  0.5788318856828  0.4124786823886  0.3894648446612 1.0
C      1  0.5996102641322  0.3739750542363  0.5437800612840 1.0
C      1  0.4958339680940  0.3940650331567  0.6368220064632 1.0
C      1  0.3733738444350  0.4011457414093  0.5472769911072 1.0
C      1  0.6255932154719  0.6003933330041  0.4584838701601 1.0
C      1  0.5813978702003  0.5365344219448  0.6043433636509 1.0
C      1  0.4140676973471  0.5364002353706  0.6271668622968 1.0
C      1  0.3551786560647  0.5492749577358  0.4700600693163 1.0
C      1  0.4859036253960  0.5490753293143  0.3684785505515 1.0
C      1  0.4980347603304  0.5831423937725  0.6147595631573 1.0
C      1  0.3766155561138  0.5883070562765  0.5544455553076 1.0
C      1  0.4099547097298  0.5943993085416  0.4064686082349 1.0
C      1  0.5493711642771  0.6136680846681  0.4080600279450 1.0
C      1  0.6349607011878  0.5745654918718  0.5374645722172 1.0
C      1  0.4129946948442  0.4398498705444  0.6248633498351 1.0
C      1  0.3537129713187  0.4527191205547  0.4677407162300 1.0
C      1  0.4948471461672  0.4513452967313  0.3747684655818 1.0
C      1  0.6233906956657  0.3872217208631  0.4556035495100 1.0
C      1  0.5782501535414  0.4388017048134  0.6153710818123 1.0
C      1  0.4561583654233  0.6462536402621  0.5463791209533 1.0
C      1  0.4741705421718  0.6541437270309  0.4551731905030 1.0
C      1  0.5116416123812  0.3343914057390  0.5577878662429 1.0
C      1  0.4380621455508  0.3426635415205  0.5010436282261 1.0
END
