TITL C-29086-3345-113 -3.984 3375.00 -703.38877216 0 0 86 (C1) n - 1
REM
REM Run started: at 2020.12.20 13:09:38 in /gpfs/home/chem/mssmkc/CARBON/AIRSS/Generating-Clusters/Str-Search/Higher-Symm/C4-100
REM VASP from code version vasp.5.4.4.18Apr17-6-g9f103f2a35 (build Oct 11 2019 16:45:47) gamma-only
REM
REM
REM
REM
REM ./C.cell (6bd13a13d554368a30d355f37ece5b26)
REM AIRSS Version 0.9.1 bugfix July 2018 build 013d7b7c2542+ Fri, 06 Jul 2018 19:26:36 +0100
REM compiler GCC version 6.3.0
REM options -cpp -iprefix /gpfs/warwick/csc/orac/software/Core/GCCcore/6.3.0/bin/../lib/gcc/x86_64-pc-linux-gnu/6.3.0/ -mtune=generic -march=x86-64 -g -O0
REM seed -733948213 1828955575 1302056310 -2123713747 1504838332 -790541222 1094002866 -860135469 -929243991 1279626861 -791324013 1036596578
REM
REM C.POTCAR (d86ddea03c3ceb6dc662c8ad6801f873)
REM 
CELL 1.54180   15.00000   15.00000   15.00000   90.00000   90.00000   90.00000
LATT -1
SFAC C  
C      1  0.4664392773140  0.7741479514863  0.2950018750464 1.0
C      1  0.3168974420571  0.7348345585862  0.6621600504905 1.0
C      1  0.7297986417028  0.7332475256721  0.5873120740591 1.0
C      1  0.4516383188385  0.2565890835150  0.7383604076094 1.0
C      1  0.3113948999028  0.2615462414863  0.3435622406562 1.0
C      1  0.6962717548529  0.2189299555700  0.4259564844053 1.0
C      1  0.5346727184453  0.2618616917503  0.7482437040380 1.0
C      1  0.6829205571749  0.2722615816106  0.3541674714700 1.0
C      1  0.2749672610052  0.2563947147686  0.4185200693858 1.0
C      1  0.5358533325879  0.7215452753436  0.2704865930674 1.0
C      1  0.6826819832494  0.7362307897617  0.6562065014726 1.0
C      1  0.2670097441335  0.7304380602143  0.5950193600536 1.0
C      1  0.4489036026788  0.4476912445001  0.4126791432822 1.0
C      1  0.4478727021968  0.4440732820169  0.5874733648468 1.0
C      1  0.5988843409338  0.4417568350127  0.5016433676524 1.0
C      1  0.4500482825639  0.5484193926210  0.5893515834564 1.0
C      1  0.4494927763773  0.5523277718846  0.4155025041441 1.0
C      1  0.6014258685058  0.5465158673346  0.5016642852369 1.0
C      1  0.5498636535559  0.5472492156029  0.5892480398557 1.0
C      1  0.5515835378208  0.5492698472876  0.4157128963849 1.0
C      1  0.3992237548392  0.5502967282837  0.5014241189909 1.0
C      1  0.5481757297660  0.4454383229482  0.4132378643380 1.0
C      1  0.5492524998248  0.4426334025869  0.5878929658529 1.0
C      1  0.3983865465087  0.4457002235314  0.5007906689590 1.0
C      1  0.6127290173209  0.1910414531557  0.5359806847249 1.0
C      1  0.4489297222795  0.2192814377304  0.4085376831343 1.0
C      1  0.4519977175386  0.2193411014336  0.5853964520482 1.0
C      1  0.6048224043847  0.7745163178752  0.5005731783003 1.0
C      1  0.4493855950654  0.7726826791265  0.5857985439201 1.0
C      1  0.4121411596288  0.8017992691992  0.4219765263730 1.0
C      1  0.3890835835674  0.7791901176593  0.5100870626719 1.0
C      1  0.5484084488586  0.7709411022466  0.5811906037719 1.0
C      1  0.5756786310599  0.7890083309495  0.4106083980666 1.0
C      1  0.4066898842564  0.2215549128989  0.4974603830059 1.0
C      1  0.5414956934018  0.2050361134918  0.3889476290236 1.0
C      1  0.5476581882169  0.2132548151513  0.5997455268194 1.0
C      1  0.6042229338837  0.7304023598955  0.3375294116871 1.0
C      1  0.3034211604141  0.7307462719285  0.5099870000842 1.0
C      1  0.5909245025952  0.7318513823413  0.6618883738074 1.0
C      1  0.5901226030575  0.2616418081483  0.6740988939638 1.0
C      1  0.3153386139062  0.2602638906494  0.5010443345570 1.0
C      1  0.5907214736698  0.2641671151370  0.3283678541681 1.0
C      1  0.4018149171650  0.2595318109001  0.6609045670673 1.0
C      1  0.6935768424849  0.2445557513493  0.5196988177796 1.0
C      1  0.4031926025416  0.2663000934593  0.3337004171437 1.0
C      1  0.3860606490064  0.7487653881516  0.3435348488916 1.0
C      1  0.6927464128083  0.7282212135538  0.5027768365468 1.0
C      1  0.4089038975101  0.7320971199248  0.6668058853694 1.0
C      1  0.6729280132263  0.5079656959641  0.6549240720663 1.0
C      1  0.5463288836286  0.5156132312025  0.2756814946404 1.0
C      1  0.2800662104393  0.5116150127342  0.5746679773559 1.0
C      1  0.6723450516517  0.4794916619886  0.3485711451384 1.0
C      1  0.5448794466824  0.4800574322589  0.7281903291073 1.0
C      1  0.2801094611434  0.4843659545205  0.4267301749787 1.0
C      1  0.3266545977580  0.4874926774547  0.3474730376038 1.0
C      1  0.4529525570153  0.4802158420665  0.7278412935790 1.0
C      1  0.7187654112361  0.4768030642910  0.4279729602851 1.0
C      1  0.3259811034266  0.5112342999630  0.6543390431668 1.0
C      1  0.4543181393507  0.5177653713671  0.2746777834553 1.0
C      1  0.7187078675247  0.5056665752564  0.5752471685891 1.0
C      1  0.5886211594212  0.5646818662561  0.6853355492158 1.0
C      1  0.6169082809237  0.5659948060182  0.3342229320296 1.0
C      1  0.2957103732167  0.5674226933888  0.4868917732330 1.0
C      1  0.5867150988024  0.4289384749177  0.3163022563863 1.0
C      1  0.6130566018003  0.4247675203705  0.6702873872692 1.0
C      1  0.2959077111870  0.4272768123966  0.5149323925549 1.0
C      1  0.4102343540096  0.4326043702370  0.3154107719142 1.0
C      1  0.3837529258209  0.4259726614276  0.6689786683491 1.0
C      1  0.7006930311659  0.4204750358830  0.5159317391834 1.0
C      1  0.4112159657364  0.5655074941487  0.6856512766441 1.0
C      1  0.3863242871945  0.5734216365317  0.3343176854060 1.0
C      1  0.7050622761435  0.5616497526607  0.4870853851446 1.0
C      1  0.5471337951734  0.6558187299329  0.7035247835428 1.0
C      1  0.6567527969881  0.6539907150511  0.3603370920977 1.0
C      1  0.2985573522345  0.6589054799056  0.4447505417795 1.0
C      1  0.5447304691343  0.3407837958768  0.2945917342685 1.0
C      1  0.6485183600725  0.3337400405499  0.6458432598549 1.0
C      1  0.3007013063955  0.3360153061422  0.5598698678731 1.0
C      1  0.4501134974736  0.3413383927012  0.2949862262525 1.0
C      1  0.3457232989496  0.3358489612360  0.6415722863120 1.0
C      1  0.6963900486671  0.3301584602473  0.5631170603974 1.0
C      1  0.4538098614313  0.6556745094668  0.7052588008175 1.0
C      1  0.3464929623175  0.6632229602665  0.3620263958083 1.0
C      1  0.7034096470720  0.6532967140291  0.4426678061487 1.0
C      1  0.6081719049686  0.1695760691252  0.4447266658054 1.0
C      1  0.4937270091590  0.8238018024326  0.3808350340650 1.0
END
