TITL C-29326-6164-9 -4.832 3375.00 -806.21572697 0 0 100 (C1) n - 1
REM
REM Run started: at 2020.12.30 10:43:13 in /rds/project/t2_vol4/rds-t2-cs072/BORA/CARBON/AIRSS/Generating-Clusters/Str-Search/Higher-Symm/C100-200
REM VASP from code version vasp.5.4.4.18Apr17-6-g9f103f2a35 (build Oct 11 2019 16:45:47) gamma-only
REM
REM
REM
REM
REM ./C.cell (533062f00bc710175b3da973d35f2034)
REM AIRSS Version 0.9.1 bugfix July 2018 build 013d7b7c2542+ Fri, 06 Jul 2018 19:26:36 +0100
REM compiler GCC version 4.8.5 20150623 (Red Hat 4.8.5-39)
REM options -cpp -mtune=generic -march=x86-64 -g -O0
REM seed -1258581890 -1191489672 -1268322664 -426410094 1967759598 838530920 1765932129 1976651759 1382191739 -1789625322 1585247895 1350007493
REM
REM C.POTCAR (d86ddea03c3ceb6dc662c8ad6801f873)
REM 
CELL 1.54180   15.00000   15.00000   15.00000   90.00000   90.00000   90.00000
LATT -1
SFAC C  
C      1  0.4427238893887  0.7055668728923  0.2697131927210 1.0
C      1  0.4364384196174  0.5514860497702  0.7773384073022 1.0
C      1  0.4844929971358  0.1901819251645  0.4310125828869 1.0
C      1  0.2442825963988  0.3801588490910  0.5366924848203 1.0
C      1  0.2600519572076  0.5747152567818  0.3801486447969 1.0
C      1  0.2330634668501  0.5955283416558  0.6043260892136 1.0
C      1  0.6589574596260  0.2194923339939  0.5562575835298 1.0
C      1  0.6361408734943  0.5939853375227  0.2215166410912 1.0
C      1  0.6428010467899  0.6889345589381  0.7296474779117 1.0
C      1  0.4819873219007  0.2641958608403  0.5609042799573 1.0
C      1  0.4848579290556  0.5402752399374  0.2823494542101 1.0
C      1  0.4794462209835  0.6671725165391  0.6634550049572 1.0
C      1  0.7396601360724  0.6092609999394  0.3121350951639 1.0
C      1  0.7499787490636  0.6100952321268  0.6913783524953 1.0
C      1  0.7694957432534  0.2839758866678  0.5078887079652 1.0
C      1  0.5936720210043  0.7541992832013  0.6745148508219 1.0
C      1  0.6101051787684  0.2337799110355  0.6392450611489 1.0
C      1  0.5988124609312  0.5035242458845  0.1960431237120 1.0
C      1  0.4984141485652  0.7269233273443  0.3438595513757 1.0
C      1  0.5135477600649  0.5012613381296  0.7521161798008 1.0
C      1  0.5349893253750  0.2546014059855  0.3922324569835 1.0
C      1  0.7208136732975  0.7017176938640  0.6746941840782 1.0
C      1  0.7412527191703  0.2509913304574  0.5951135400972 1.0
C      1  0.7207843366101  0.5513194553260  0.2356491811629 1.0
C      1  0.5148464712213  0.4738617981535  0.2178806176692 1.0
C      1  0.5041224371540  0.7628401437504  0.6550118147359 1.0
C      1  0.5183185904987  0.2406345335722  0.6474262030164 1.0
C      1  0.4414489096500  0.6138865719175  0.2387691409628 1.0
C      1  0.4316974611710  0.6416439270768  0.7421278267550 1.0
C      1  0.4267233002747  0.2061602047893  0.4994478197785 1.0
C      1  0.3435708527316  0.6100121198450  0.2495084283742 1.0
C      1  0.3360956795608  0.6355262040157  0.7209006307218 1.0
C      1  0.3352962023556  0.2476185249261  0.4878859613468 1.0
C      1  0.3670932072683  0.2565603978106  0.7039703349352 1.0
C      1  0.3705153878090  0.4067227860030  0.2381964488361 1.0
C      1  0.3734031240139  0.8012910040746  0.6007742040810 1.0
C      1  0.4481005305518  0.2388351268762  0.7085680589178 1.0
C      1  0.4487681289584  0.4079196594616  0.2121906748796 1.0
C      1  0.4511364679283  0.8318614892730  0.6195157415878 1.0
C      1  0.4438766378981  0.6011446883909  0.4229062080992 1.0
C      1  0.5079581649184  0.5091831938981  0.5874850193666 1.0
C      1  0.4718340608188  0.3367819970209  0.4179107719852 1.0
C      1  0.2193570745388  0.5957684940703  0.5108123132804 1.0
C      1  0.2138174978584  0.4241452461494  0.6162358661540 1.0
C      1  0.2311421722759  0.5215608992232  0.4532290339057 1.0
C      1  0.6646281098447  0.5949248134274  0.7428731084875 1.0
C      1  0.6838296472977  0.2502222571555  0.4668000532397 1.0
C      1  0.6503598934791  0.6538489338465  0.2993704904256 1.0
C      1  0.6561775923263  0.4326199662494  0.7435820113604 1.0
C      1  0.6666075393509  0.3254066403681  0.3206533008592 1.0
C      1  0.6288076426127  0.7321582741686  0.4425868220591 1.0
C      1  0.8243780660862  0.3587765855928  0.4997749140839 1.0
C      1  0.7961043424774  0.5784002694921  0.3788325528981 1.0
C      1  0.8080433720908  0.5705693744324  0.6312469263374 1.0
C      1  0.4456433606567  0.4434291668615  0.4232951741717 1.0
C      1  0.4223385553402  0.6204395509099  0.5135816851183 1.0
C      1  0.4742625491376  0.4398184607566  0.5243691768426 1.0
C      1  0.4294920686845  0.6945351250804  0.4100950908966 1.0
C      1  0.4913005842251  0.4582331477941  0.6691183431026 1.0
C      1  0.3709225851319  0.3178868227732  0.4105035194934 1.0
C      1  0.2952313682722  0.5431410209219  0.3014444176513 1.0
C      1  0.2897838195352  0.6644289827939  0.6417287448076 1.0
C      1  0.2901848752703  0.2986619588658  0.5610974132762 1.0
C      1  0.6329469765110  0.2704832271030  0.3886458303886 1.0
C      1  0.5939511749122  0.7056149279423  0.3583005218866 1.0
C      1  0.6135079754537  0.5148566248121  0.7557861783362 1.0
C      1  0.8311387727219  0.4865997878832  0.3635005240070 1.0
C      1  0.8262747946675  0.6315421281158  0.5543771463611 1.0
C      1  0.8520742298591  0.3958894817782  0.5869687389826 1.0
C      1  0.3005117250417  0.3037507683810  0.6602305036349 1.0
C      1  0.3055596551569  0.4366754338709  0.3039740497325 1.0
C      1  0.3217295272640  0.7328266007590  0.5770541366573 1.0
C      1  0.2239344796716  0.5132635949031  0.6485131925421 1.0
C      1  0.2647988437359  0.4339753264896  0.4639260700272 1.0
C      1  0.2598134314679  0.6585659436203  0.4406292350184 1.0
C      1  0.6891899691499  0.3824542407243  0.2648351540042 1.0
C      1  0.6572769497969  0.7503429362739  0.5184359726773 1.0
C      1  0.6856986943596  0.3577730696884  0.7219346629797 1.0
C      1  0.6855153937674  0.4627540509089  0.2182461152275 1.0
C      1  0.6700799294616  0.7547266588491  0.6111725926984 1.0
C      1  0.6921826429029  0.2787913890856  0.6749376066674 1.0
C      1  0.4771295921793  0.6044072321639  0.5868373038301 1.0
C      1  0.4957253708525  0.3430107741393  0.5158461176404 1.0
C      1  0.4713264579223  0.5269006845822  0.3741571017235 1.0
C      1  0.8141926022689  0.4345890213661  0.4381479378055 1.0
C      1  0.7971181919755  0.5921636942141  0.4758927380836 1.0
C      1  0.8150897419642  0.4804303049788  0.5952506910561 1.0
C      1  0.3387808175860  0.5412746045309  0.7561229939117 1.0
C      1  0.3055410967904  0.2473297982112  0.3909031087320 1.0
C      1  0.3419808599095  0.7056650596149  0.2702459797079 1.0
C      1  0.2386725270390  0.2947974978736  0.3453774324349 1.0
C      1  0.2785470680152  0.7477449463442  0.3208634122969 1.0
C      1  0.2776367577461  0.4794445647657  0.7235601176892 1.0
C      1  0.3434632731946  0.4134181105924  0.4036984082384 1.0
C      1  0.3519093325907  0.6892885535362  0.4870359534904 1.0
C      1  0.4190555704877  0.4405865006308  0.6134677717197 1.0
C      1  0.2283918309467  0.7388346499409  0.3881772477094 1.0
C      1  0.2583358631595  0.3845491480959  0.6907159181323 1.0
C      1  0.2279837849097  0.3697458312942  0.3084409213658 1.0
C      1  0.7961162326608  0.5013324170587  0.5036704198987 1.0
END
