TITL C-29792-9940-4 -6.769 3375.00 -1198.35352959 0 0 143 (C1) n - 1
REM
REM Run started: at 2020.12.27 17:14:33 in /rds/project/t2_vol4/rds-t2-cs072/BORA/CARBON/AIRSS/Generating-Clusters/Str-Search/Higher-Symm/C100-200
REM VASP from code version vasp.5.4.4.18Apr17-6-g9f103f2a35 (build Oct 11 2019 16:45:47) gamma-only
REM
REM
REM
REM
REM ./C.cell (533062f00bc710175b3da973d35f2034)
REM AIRSS Version 0.9.1 bugfix July 2018 build 013d7b7c2542+ Fri, 06 Jul 2018 19:26:36 +0100
REM compiler GCC version 4.8.5 20150623 (Red Hat 4.8.5-39)
REM options -cpp -mtune=generic -march=x86-64 -g -O0
REM seed -1131507550 210875484 1319912659 -436084395 -1306112442 943419777 1749040055 1208672619 1659972735 489509752 -161237569 1109052279
REM
REM C.POTCAR (d86ddea03c3ceb6dc662c8ad6801f873)
REM 
CELL 1.54180   15.00000   15.00000   15.00000   90.00000   90.00000   90.00000
LATT -1
SFAC C  
C      1  0.6254075708058  0.8186556173825  0.5668757701354 1.0
C      1  0.5889000072438  0.1310724084754  0.5592099679740 1.0
C      1  0.4644016607748  0.8226641920572  0.6466549617878 1.0
C      1  0.3761118653981  0.1722988097965  0.6075321078896 1.0
C      1  0.3665374711589  0.8756335422632  0.5164179388304 1.0
C      1  0.3729781828737  0.1814279249524  0.4279352563319 1.0
C      1  0.4082592483606  0.8792681695574  0.4285844610073 1.0
C      1  0.5364606314207  0.1798927169871  0.3546161604435 1.0
C      1  0.6316964458616  0.8285092465701  0.3879869002954 1.0
C      1  0.6363024574126  0.1143541611126  0.4769795586514 1.0
C      1  0.5959566061887  0.2713487996696  0.5007814376353 1.0
C      1  0.5471235479577  0.7738737454820  0.5155680062837 1.0
C      1  0.5489149191853  0.2207658236401  0.5889956520146 1.0
C      1  0.4660789950181  0.7604075142049  0.5631773296700 1.0
C      1  0.4513441551942  0.2256669846865  0.5652151008772 1.0
C      1  0.3946813184760  0.7073999882904  0.5236248086044 1.0
C      1  0.4440230299353  0.2378867283394  0.4750171231681 1.0
C      1  0.4703254468302  0.8281027230918  0.3674646043777 1.0
C      1  0.5305371830774  0.2514336036763  0.4355575858686 1.0
C      1  0.5467544996007  0.7851119449655  0.4242492963243 1.0
C      1  0.6560577133443  0.6533788245305  0.2254276832540 1.0
C      1  0.7782604693843  0.3406505989403  0.3756527694780 1.0
C      1  0.8042252494555  0.6566696837186  0.5596221228714 1.0
C      1  0.7056596936435  0.3362604263133  0.7210560902265 1.0
C      1  0.5343830637968  0.6569368716970  0.8045674439522 1.0
C      1  0.3435373536688  0.3427943633372  0.7743503578010 1.0
C      1  0.2150051389978  0.6553683456510  0.6278350416058 1.0
C      1  0.1929439184131  0.3378675542241  0.4388533467919 1.0
C      1  0.2972730895321  0.6580895242811  0.2800625505509 1.0
C      1  0.4650420936586  0.3393580265688  0.1922364839640 1.0
C      1  0.5698377106650  0.5027504229142  0.3531738799049 1.0
C      1  0.6414694129705  0.4945223890313  0.4220490080840 1.0
C      1  0.6590437692326  0.5058142134212  0.5197828598172 1.0
C      1  0.6145585491699  0.4950786486337  0.6088750560997 1.0
C      1  0.5270716273467  0.5043148487422  0.6579204641259 1.0
C      1  0.4272850089607  0.4923863732547  0.6459713072307 1.0
C      1  0.3541159197994  0.5008518684202  0.5778716499644 1.0
C      1  0.3372124837929  0.4882480606444  0.4790247671231 1.0
C      1  0.3810123242875  0.4994702394234  0.3878164134467 1.0
C      1  0.4700771618832  0.4905105361543  0.3405677230219 1.0
C      1  0.2302182438961  0.4704880742914  0.4659888204275 1.0
C      1  0.3019509063684  0.5180456291436  0.3119875563803 1.0
C      1  0.4512560314171  0.4746639282937  0.2337751848627 1.0
C      1  0.6173617828927  0.5181321541685  0.2550179530622 1.0
C      1  0.7385564022775  0.4762531939620  0.3694926596310 1.0
C      1  0.7674399389326  0.5233071373535  0.5335814240254 1.0
C      1  0.6977434320624  0.4757502693832  0.6870034604112 1.0
C      1  0.5482569239249  0.5205596284427  0.7646300290300 1.0
C      1  0.3808792277790  0.4776040562033  0.7439830956024 1.0
C      1  0.2593206603467  0.5191749828450  0.6302620394759 1.0
C      1  0.3540282446906  0.7371906637314  0.7279070300267 1.0
C      1  0.2430824744469  0.2644867002135  0.6052498063830 1.0
C      1  0.2428845343310  0.7125458276730  0.4408031359380 1.0
C      1  0.3273438108151  0.2649144422673  0.2963796707099 1.0
C      1  0.4855137335470  0.7322551817536  0.2390493661583 1.0
C      1  0.6466402885844  0.2597077646863  0.2705345805127 1.0
C      1  0.7590100456487  0.7321633663018  0.3919573808250 1.0
C      1  0.7558079496174  0.2796890818737  0.5599248414781 1.0
C      1  0.6705775352133  0.7302423455357  0.6985076770738 1.0
C      1  0.5150147658013  0.2671242486938  0.7513627783173 1.0
C      1  0.3249377254535  0.1524393570136  0.5200227868475 1.0
C      1  0.3212509603461  0.8513924074028  0.4343539266871 1.0
C      1  0.4359639086829  0.1560976407116  0.3481015451938 1.0
C      1  0.5572367796884  0.8548716828811  0.3185931788598 1.0
C      1  0.6264746095854  0.1424651818688  0.3872944188775 1.0
C      1  0.6791651568242  0.8472708018946  0.4764301824941 1.0
C      1  0.6809197528815  0.1354703384066  0.5646934161046 1.0
C      1  0.5653115224716  0.8444684459633  0.6510756115422 1.0
C      1  0.4385098014961  0.1346613767322  0.6824328577547 1.0
C      1  0.3731341161154  0.8532521892381  0.6094193305034 1.0
C      1  0.7230728877464  0.2086136826260  0.6140285361771 1.0
C      1  0.5928452414091  0.7829880212528  0.7188997395112 1.0
C      1  0.4379183813935  0.2122257178376  0.7404467743833 1.0
C      1  0.3114883701317  0.7903186880373  0.6574851664824 1.0
C      1  0.2512980323043  0.2124167354163  0.5233834033556 1.0
C      1  0.2811217037570  0.7795796383922  0.3853103408887 1.0
C      1  0.4071825024002  0.2140390930426  0.2780676334647 1.0
C      1  0.5653622543934  0.7853593088574  0.2524249270753 1.0
C      1  0.6867696393185  0.2067053711215  0.3421858402597 1.0
C      1  0.7507446328081  0.7842638608339  0.4737557670414 1.0
C      1  0.2534469977243  0.7392092775193  0.6036753613777 1.0
C      1  0.2300518807424  0.2517723457473  0.4385718271797 1.0
C      1  0.3288092976605  0.7445508595630  0.3085822485153 1.0
C      1  0.4788907030879  0.2522984675742  0.2262636720658 1.0
C      1  0.6511507808091  0.7423510144927  0.2557956486582 1.0
C      1  0.7351777408489  0.2605528725290  0.4022975124397 1.0
C      1  0.7674410811404  0.7429749908796  0.5579239665639 1.0
C      1  0.6747180490693  0.2502208659753  0.6884468920319 1.0
C      1  0.5215327560965  0.7439876352092  0.7702671677139 1.0
C      1  0.3514842849243  0.2555390419703  0.7400927984041 1.0
C      1  0.6694170342837  0.3547253557648  0.2532531959088 1.0
C      1  0.7842297035286  0.6382107159386  0.3957747359652 1.0
C      1  0.7899653144600  0.3653628898192  0.5835942949743 1.0
C      1  0.6811437839529  0.6392691215853  0.7322314544696 1.0
C      1  0.5070386958320  0.3573951349107  0.7887347755696 1.0
C      1  0.3306340460154  0.6421071450829  0.7444136777953 1.0
C      1  0.2139463257224  0.3571008073550  0.6034133492664 1.0
C      1  0.2100832107282  0.6280831571105  0.4162239158814 1.0
C      1  0.3169640301437  0.3562105033951  0.2641776977686 1.0
C      1  0.4925995149407  0.6392087989648  0.2071191113715 1.0
C      1  0.7810528130547  0.5823163308959  0.6140217771896 1.0
C      1  0.6568030687734  0.4115344311096  0.7536468359088 1.0
C      1  0.4761113543934  0.5820399784300  0.8021281915197 1.0
C      1  0.2988161832955  0.4169590736274  0.7349772640379 1.0
C      1  0.2004606054708  0.5779301575355  0.5725710730026 1.0
C      1  0.2161204460493  0.4121953326062  0.3841136449841 1.0
C      1  0.3434203444157  0.5825618832200  0.2451306409817 1.0
C      1  0.5234960721955  0.4139425481935  0.1950249410808 1.0
C      1  0.6993928388130  0.5784670449126  0.2644064766332 1.0
C      1  0.7962295590580  0.4176541404516  0.4281147686493 1.0
C      1  0.2427390814126  0.4264008605021  0.6645709218804 1.0
C      1  0.1974660133848  0.5619510466383  0.4833864013845 1.0
C      1  0.2662814301760  0.4243159294738  0.3089329180142 1.0
C      1  0.4264517959078  0.5697831305397  0.2125972474103 1.0
C      1  0.6100905421888  0.4236689500298  0.2204273627684 1.0
C      1  0.7545112601743  0.5687665333984  0.3355810454536 1.0
C      1  0.8004213245393  0.4321348562919  0.5173461145566 1.0
C      1  0.7312988459113  0.5698653545548  0.6890517614668 1.0
C      1  0.5735545830901  0.4256010272393  0.7856711158476 1.0
C      1  0.3892417495507  0.5724545852573  0.7771107240538 1.0
C      1  0.4423029220339  0.7703222457329  0.7301440498648 1.0
C      1  0.3114098392901  0.2309646193833  0.6599539757844 1.0
C      1  0.2950360477130  0.7230212876976  0.5207910500565 1.0
C      1  0.2994284303523  0.2323300479765  0.3801692752002 1.0
C      1  0.4202179727713  0.7683259284366  0.2993195839930 1.0
C      1  0.5577624432564  0.2277552941187  0.2678837606037 1.0
C      1  0.6925543710954  0.7682974626919  0.3357578454898 1.0
C      1  0.6929831125468  0.2733338012993  0.4865939686197 1.0
C      1  0.6962958564268  0.7624960022368  0.6139138070646 1.0
C      1  0.5808086798635  0.2403464883878  0.6845558500028 1.0
C      1  0.7578058624287  0.3937886892036  0.6668325109780 1.0
C      1  0.6088118687841  0.6048294763123  0.7810386795005 1.0
C      1  0.4200371447684  0.3932493942236  0.7933234393343 1.0
C      1  0.2617491207817  0.6049306829056  0.6922859896264 1.0
C      1  0.1932604508922  0.3893982286958  0.5179025058011 1.0
C      1  0.2435286114598  0.6009500899103  0.3330169491812 1.0
C      1  0.3902906129135  0.3909907934927  0.2165828544605 1.0
C      1  0.5790888297380  0.6032555243321  0.2060087554725 1.0
C      1  0.7359546812117  0.3911774406000  0.3079309206131 1.0
C      1  0.8038316372343  0.6048765868518  0.4809814246035 1.0
C      1  0.5031575766935  0.4766122595967  0.5000402193597 1.0
C      1  0.4386882152225  0.6314096228104  0.5027602245029 1.0
C      1  0.4913063623779  0.5638103553599  0.4981643078212 1.0
END
