TITL C-29086-3345-245 -0.972 3375.00 -148.01210858 0 0 19 (C1) n - 1
REM
REM Run started: at 2020.12.21 13:55:43 in /gpfs/home/chem/mssmkc/CARBON/AIRSS/Generating-Clusters/Str-Search/Higher-Symm/C4-100
REM VASP from code version vasp.5.4.4.18Apr17-6-g9f103f2a35 (build Oct 11 2019 16:45:47) gamma-only
REM
REM
REM
REM
REM ./C.cell (6bd13a13d554368a30d355f37ece5b26)
REM AIRSS Version 0.9.1 bugfix July 2018 build 013d7b7c2542+ Fri, 06 Jul 2018 19:26:36 +0100
REM compiler GCC version 6.3.0
REM options -cpp -iprefix /gpfs/warwick/csc/orac/software/Core/GCCcore/6.3.0/bin/../lib/gcc/x86_64-pc-linux-gnu/6.3.0/ -mtune=generic -march=x86-64 -g -O0
REM seed 640005027 776501488 -1873358498 1586235961 1540305501 -1155333367 1585461042 -427728387 -1053986288 -1803559875 1471966201 -1794712086
REM
REM C.POTCAR (d86ddea03c3ceb6dc662c8ad6801f873)
REM 
CELL 1.54180   15.00000   15.00000   15.00000   90.00000   90.00000   90.00000
LATT -1
SFAC C  
C      1  0.4502857749543  0.4538236332200  0.6286423466693 1.0
C      1  0.4358519113734  0.6387261389413  0.4398755700849 1.0
C      1  0.4467817894724  0.5721650681567  0.3747685171385 1.0
C      1  0.5697836840370  0.3805483655436  0.4517736946519 1.0
C      1  0.5756974760947  0.4519370700368  0.3860252578216 1.0
C      1  0.6408264216367  0.4417609234257  0.4525369578725 1.0
C      1  0.5737623116837  0.5659581917192  0.6179518350341 1.0
C      1  0.3717177268120  0.5696454317251  0.4364714212900 1.0
C      1  0.3770871568071  0.4514341043457  0.5650569750646 1.0
C      1  0.6559307104989  0.5347102008302  0.5791585147107 1.0
C      1  0.5331713630516  0.6369429236491  0.5696323364977 1.0
C      1  0.4406626960334  0.3786327947894  0.5690200589169 1.0
C      1  0.5260386592797  0.4968552408556  0.6549835009726 1.0
C      1  0.6896678748026  0.4940540259347  0.5140243947951 1.0
C      1  0.4892824856056  0.6715990959660  0.5085869028641 1.0
C      1  0.4886643143743  0.4868009530496  0.3698071112630 1.0
C      1  0.3646762035285  0.4846207198514  0.4761969914940 1.0
C      1  0.4810705743923  0.3686959970549  0.4815983929330 1.0
C      1  0.4309004655615  0.4310867209050  0.4264910199256 1.0
END
