TITL C-29469-8165-75 -3.259 3375.00 -556.06120035 0 0 69 (C1) n - 1
REM
REM Run started: at 2021.01.04 20:43:33 in /gpfs/home/chem/mssmkc/CARBON/AIRSS/Generating-Clusters/Str-Search/Higher-Symm/C4-100
REM VASP from code version vasp.5.4.4.18Apr17-6-g9f103f2a35 (build Oct 11 2019 16:45:47) gamma-only
REM
REM
REM
REM
REM ./C.cell (6bd13a13d554368a30d355f37ece5b26)
REM AIRSS Version 0.9.1 bugfix July 2018 build 013d7b7c2542+ Fri, 06 Jul 2018 19:26:36 +0100
REM compiler GCC version 6.3.0
REM options -cpp -iprefix /gpfs/warwick/csc/orac/software/Core/GCCcore/6.3.0/bin/../lib/gcc/x86_64-pc-linux-gnu/6.3.0/ -mtune=generic -march=x86-64 -g -O0
REM seed 898049807 1771089113 -290799044 -1047013649 -721280049 1510134695 -1581164447 -1249633234 1789516065 2138073897 292676920 1824981641
REM
REM C.POTCAR (d86ddea03c3ceb6dc662c8ad6801f873)
REM 
CELL 1.54180   15.00000   15.00000   15.00000   90.00000   90.00000   90.00000
LATT -1
SFAC C  
C      1  0.7411850958820  0.6337873787267  0.4948999908559 1.0
C      1  0.6180953977400  0.6421972538980  0.7075364986792 1.0
C      1  0.3972767997814  0.4812817606291  0.5175934466661 1.0
C      1  0.4643473916576  0.6575398432947  0.6955881026311 1.0
C      1  0.4773808607078  0.2795471704590  0.5816482117350 1.0
C      1  0.3705310375651  0.5386729706870  0.7112024433966 1.0
C      1  0.6894607422492  0.6575983707788  0.4178575442791 1.0
C      1  0.7332035281704  0.5396783124098  0.4792886435931 1.0
C      1  0.2846862027373  0.5433768191972  0.3697087610404 1.0
C      1  0.5355905271489  0.3557053198301  0.2328513655673 1.0
C      1  0.5465371224476  0.4435588296542  0.2297119364247 1.0
C      1  0.5326030614734  0.7039388433632  0.4041365617563 1.0
C      1  0.6967592349652  0.6290009435662  0.6561153371648 1.0
C      1  0.3113152800534  0.5981173940044  0.6598055668335 1.0
C      1  0.3945648295272  0.2671147380588  0.3140026758052 1.0
C      1  0.6133154289278  0.3450660390103  0.2993323413118 1.0
C      1  0.3327924263161  0.2643862110890  0.4742884941288 1.0
C      1  0.7006091226186  0.4563129524524  0.6252829251465 1.0
C      1  0.4736691033416  0.3006646888368  0.2884624036720 1.0
C      1  0.3300464718101  0.6214252198764  0.4103447741423 1.0
C      1  0.6311786655372  0.7329945534364  0.5427669240706 1.0
C      1  0.5558817992924  0.6099935571382  0.2703855304006 1.0
C      1  0.3228650390658  0.6481856114450  0.5009856554216 1.0
C      1  0.6230119562191  0.3922588219558  0.6045095045370 1.0
C      1  0.7135894952037  0.3639863839626  0.4287285827557 1.0
C      1  0.5389312416188  0.3163146592674  0.3639621991690 1.0
C      1  0.3002283865584  0.4836208457136  0.5525155765726 1.0
C      1  0.2603473884783  0.4554709818075  0.3946018722521 1.0
C      1  0.5046752031731  0.4010665744652  0.4150201507642 1.0
C      1  0.6954633844915  0.5297202074345  0.6805975371108 1.0
C      1  0.3844529113087  0.2727663258294  0.5634094912669 1.0
C      1  0.3592256023808  0.2478840377878  0.3898879696651 1.0
C      1  0.5272693231866  0.2468041084479  0.5113441139144 1.0
C      1  0.3874329625665  0.4439216957013  0.6985075705906 1.0
C      1  0.2708517056831  0.3344387203257  0.5094151758039 1.0
C      1  0.2517851349047  0.4222523660273  0.4840247328613 1.0
C      1  0.3730464796077  0.6445915690862  0.7182629232108 1.0
C      1  0.4961092454099  0.6479174993653  0.3309604076450 1.0
C      1  0.4819432576677  0.4163408103716  0.7070171282322 1.0
C      1  0.7045882608777  0.6757418261973  0.5740784716430 1.0
C      1  0.5488647381862  0.7022239922827  0.6841091246969 1.0
C      1  0.4835589661644  0.6754830789815  0.4842567621574 1.0
C      1  0.3597977117269  0.5328780225867  0.3055681336390 1.0
C      1  0.5566558848484  0.2507849337473  0.4338617414208 1.0
C      1  0.3162418984901  0.3328723928509  0.5941567072765 1.0
C      1  0.5683701572431  0.4397814206033  0.4772167159564 1.0
C      1  0.6660519692294  0.5579493037858  0.4047828944028 1.0
C      1  0.3523488304735  0.4519169997709  0.3618530743325 1.0
C      1  0.5342961060813  0.4421690277005  0.5717057208667 1.0
C      1  0.3976375047150  0.7059768478638  0.5222760238027 1.0
C      1  0.6565094180967  0.4961218492102  0.3281715554080 1.0
C      1  0.5298536847687  0.5009226037102  0.7243749418762 1.0
C      1  0.6118004045477  0.5457986608263  0.7307826792893 1.0
C      1  0.4195729054919  0.4358481921799  0.4326903890176 1.0
C      1  0.3267418055182  0.4178430156273  0.6290703565815 1.0
C      1  0.4050167159059  0.6133793279277  0.3449241245108 1.0
C      1  0.4711786850578  0.7444582801442  0.5550844636632 1.0
C      1  0.5815888892429  0.5383887861428  0.4606625119697 1.0
C      1  0.5838005610812  0.5204388710049  0.2661509239804 1.0
C      1  0.6742736935387  0.4047733854425  0.3444530964015 1.0
C      1  0.5196453415252  0.5862840092562  0.5077913297995 1.0
C      1  0.6532113218308  0.3939929255074  0.5005470202823 1.0
C      1  0.4683108650509  0.5612960330014  0.6778687089684 1.0
C      1  0.5566727534138  0.7510072733145  0.6011028934203 1.0
C      1  0.6200838992791  0.7177960663546  0.4420046233972 1.0
C      1  0.2902535182995  0.5852786453299  0.5708696841879 1.0
C      1  0.4735451792809  0.5239424569516  0.5728124624221 1.0
C      1  0.7238962875345  0.4641053741263  0.5304447496582 1.0
C      1  0.5233732950249  0.3610460081808  0.6297669438974 1.0
END
