TITL C-29086-3345-91 -0.311 3375.00 -42.82397167 0 0 6 (C(inf)v) n - 1
REM
REM Run started: at 2020.12.20 09:40:10 in /gpfs/home/chem/mssmkc/CARBON/AIRSS/Generating-Clusters/Str-Search/Higher-Symm/C4-100
REM VASP from code version vasp.5.4.4.18Apr17-6-g9f103f2a35 (build Oct 11 2019 16:45:47) gamma-only
REM
REM
REM
REM
REM ./C.cell (6bd13a13d554368a30d355f37ece5b26)
REM AIRSS Version 0.9.1 bugfix July 2018 build 013d7b7c2542+ Fri, 06 Jul 2018 19:26:36 +0100
REM compiler GCC version 6.3.0
REM options -cpp -iprefix /gpfs/warwick/csc/orac/software/Core/GCCcore/6.3.0/bin/../lib/gcc/x86_64-pc-linux-gnu/6.3.0/ -mtune=generic -march=x86-64 -g -O0
REM seed 891077921 -1915795760 -1097258153 -545047121 -1696137786 808116416 318767798 87872485 -1428026704 -1005059449 1976005338 89401175
REM
REM C.POTCAR (d86ddea03c3ceb6dc662c8ad6801f873)
REM 
CELL 1.54180   15.00000   15.00000   15.00000   90.00000   90.00000   90.00000
LATT -1
SFAC C  
C      1  0.3926788254544  0.4877525120554  0.4223361174387 1.0
C      1  0.5296692599795  0.4872566034696  0.5262406402838 1.0
C      1  0.3205153831651  0.4900631683782  0.3728861699429 1.0
C      1  0.5967511335172  0.4881203663618  0.5808812396625 1.0
C      1  0.6625674590514  0.4899869994295  0.6386240044725 1.0
C      1  0.4625933388324  0.4872251503055  0.4733867281996 1.0
END
