TITL C-29086-3345-57 -0.371 3375.00 -52.01019820 0 0 7 (C1) n - 1
REM
REM Run started: at 2020.12.20 02:58:27 in /gpfs/home/chem/mssmkc/CARBON/AIRSS/Generating-Clusters/Str-Search/Higher-Symm/C4-100
REM VASP from code version vasp.5.4.4.18Apr17-6-g9f103f2a35 (build Oct 11 2019 16:45:47) gamma-only
REM
REM
REM
REM
REM ./C.cell (6bd13a13d554368a30d355f37ece5b26)
REM AIRSS Version 0.9.1 bugfix July 2018 build 013d7b7c2542+ Fri, 06 Jul 2018 19:26:36 +0100
REM compiler GCC version 6.3.0
REM options -cpp -iprefix /gpfs/warwick/csc/orac/software/Core/GCCcore/6.3.0/bin/../lib/gcc/x86_64-pc-linux-gnu/6.3.0/ -mtune=generic -march=x86-64 -g -O0
REM seed -1981609899 -1704050441 926641979 -1433376515 -1605749135 -1431671816 1907504214 -1125246494 -743463040 -425941522 2051233042 1566599018
REM
REM C.POTCAR (d86ddea03c3ceb6dc662c8ad6801f873)
REM 
CELL 1.54180   15.00000   15.00000   15.00000   90.00000   90.00000   90.00000
LATT -1
SFAC C  
C      1  0.4831255911880  0.3344844908587  0.5421089309772 1.0
C      1  0.5313870070786  0.7481305533323  0.4359033538213 1.0
C      1  0.5154600934694  0.6655615886119  0.4574484969389 1.0
C      1  0.5044667510108  0.5829618907226  0.4802324221095 1.0
C      1  0.4957057922357  0.5008934760862  0.5017923502595 1.0
C      1  0.4885299304248  0.4182899280975  0.5219782391632 1.0
C      1  0.4813247345928  0.2496781722908  0.5605363067304 1.0
END
