TITL C-29086-3345-227 -0.429 3375.00 -64.15414534 0 0 9 (C1) n - 1
REM
REM Run started: at 2020.12.21 10:50:43 in /gpfs/home/chem/mssmkc/CARBON/AIRSS/Generating-Clusters/Str-Search/Higher-Symm/C4-100
REM VASP from code version vasp.5.4.4.18Apr17-6-g9f103f2a35 (build Oct 11 2019 16:45:47) gamma-only
REM
REM
REM
REM
REM ./C.cell (6bd13a13d554368a30d355f37ece5b26)
REM AIRSS Version 0.9.1 bugfix July 2018 build 013d7b7c2542+ Fri, 06 Jul 2018 19:26:36 +0100
REM compiler GCC version 6.3.0
REM options -cpp -iprefix /gpfs/warwick/csc/orac/software/Core/GCCcore/6.3.0/bin/../lib/gcc/x86_64-pc-linux-gnu/6.3.0/ -mtune=generic -march=x86-64 -g -O0
REM seed 1737005269 358755335 1070957537 -2073826910 1902212775 1846008968 2139721991 -418590229 1336215616 -1363840070 -331371673 442616108
REM
REM C.POTCAR (d86ddea03c3ceb6dc662c8ad6801f873)
REM 
CELL 1.54180   15.00000   15.00000   15.00000   90.00000   90.00000   90.00000
LATT -1
SFAC C  
C      1  0.3901139576775  0.6024659160344  0.4494082831923 1.0
C      1  0.4422474331318  0.5432340749248  0.5033178183214 1.0
C      1  0.3023948254268  0.6239377654124  0.4838262305279 1.0
C      1  0.3554899031200  0.5641819461519  0.5374265154316 1.0
C      1  0.5178954703819  0.4960852451775  0.5115274092173 1.0
C      1  0.5936078560105  0.4839956558830  0.4470116339499 1.0
C      1  0.5613432829478  0.4356878127502  0.5747990417411 1.0
C      1  0.6533082980121  0.4196143004259  0.4285187720822 1.0
C      1  0.6175112732917  0.4044567832399  0.5148274955363 1.0
END
