TITL C-29123-7884-36 -4.106 3375.00 -701.10172598 0 0 87 (C1) n - 1
REM
REM Run started: at 2020.12.20 00:08:57 in /gpfs/home/chem/mssmkc/CARBON/AIRSS/Generating-Clusters/Str-Search/Higher-Symm/C4-100
REM VASP from code version vasp.5.4.4.18Apr17-6-g9f103f2a35 (build Oct 11 2019 16:45:47) gamma-only
REM
REM
REM
REM
REM ./C.cell (6bd13a13d554368a30d355f37ece5b26)
REM AIRSS Version 0.9.1 bugfix July 2018 build 013d7b7c2542+ Fri, 06 Jul 2018 19:26:36 +0100
REM compiler GCC version 6.3.0
REM options -cpp -iprefix /gpfs/warwick/csc/orac/software/Core/GCCcore/6.3.0/bin/../lib/gcc/x86_64-pc-linux-gnu/6.3.0/ -mtune=generic -march=x86-64 -g -O0
REM seed -1645594363 388375246 -1287273490 -1778778171 993136648 -1006465224 675502602 1569275567 1011170759 -707023247 -73255649 -678502592
REM
REM C.POTCAR (d86ddea03c3ceb6dc662c8ad6801f873)
REM 
CELL 1.54180   15.00000   15.00000   15.00000   90.00000   90.00000   90.00000
LATT -1
SFAC C  
C      1  0.3175314667186  0.6380075965519  0.7172102391517 1.0
C      1  0.5679560158631  0.6576863253736  0.3535559962858 1.0
C      1  0.6599425704162  0.1765770255953  0.4912634410185 1.0
C      1  0.8138386795605  0.6186413607571  0.5497886459595 1.0
C      1  0.5954116490808  0.2480894707084  0.4438045382388 1.0
C      1  0.4864422822594  0.5165148952533  0.5669259251167 1.0
C      1  0.3510359415657  0.4613462487514  0.4486872236509 1.0
C      1  0.5610781861694  0.4243483948608  0.7319079665523 1.0
C      1  0.3260499803716  0.2712925898714  0.4403623285440 1.0
C      1  0.3191141548991  0.7168741672530  0.5227011396644 1.0
C      1  0.2621036588194  0.4694875022061  0.3321961868905 1.0
C      1  0.5878033003850  0.7021108670182  0.4412494409713 1.0
C      1  0.2858857103630  0.5581063694748  0.3209887806784 1.0
C      1  0.3627981656982  0.5595089240292  0.4586633443403 1.0
C      1  0.4795770168160  0.6752199784224  0.7765709406486 1.0
C      1  0.4294811075141  0.2345490218154  0.3141277764118 1.0
C      1  0.4493808426483  0.7089483346506  0.2244588767072 1.0
C      1  0.3555928750357  0.4828636096977  0.6115224369834 1.0
C      1  0.3986900851373  0.7296520622914  0.5776653739511 1.0
C      1  0.8486014561215  0.5476655382661  0.5780039131507 1.0
C      1  0.7672674661156  0.4229336303780  0.5043010685213 1.0
C      1  0.7344011820441  0.5716646131776  0.4357080232931 1.0
C      1  0.2807967880141  0.3413190039997  0.3914104178373 1.0
C      1  0.5453310754256  0.7543780868209  0.6260774017053 1.0
C      1  0.4802045319442  0.6899891915027  0.3274768400040 1.0
C      1  0.6091797974568  0.5784367765523  0.7602481540878 1.0
C      1  0.5131230837940  0.3034555468006  0.6124549664598 1.0
C      1  0.4718599439940  0.4651080472427  0.7327064777557 1.0
C      1  0.6042811701279  0.6753948846981  0.6008651219500 1.0
C      1  0.4397640397278  0.4684963296168  0.6443141974358 1.0
C      1  0.3825436502403  0.2260695178812  0.3817750125494 1.0
C      1  0.3919943153054  0.5590586350025  0.5535551650752 1.0
C      1  0.6519298072348  0.5315173590133  0.4644021187160 1.0
C      1  0.2871288142917  0.6139891382803  0.4103244485719 1.0
C      1  0.7198204302977  0.4575940388404  0.7203718663775 1.0
C      1  0.3467664352289  0.2766345402708  0.5338321178230 1.0
C      1  0.6755392445607  0.2677082266459  0.5150542610050 1.0
C      1  0.5808122953335  0.1450461027318  0.4659533317762 1.0
C      1  0.7257436316601  0.4371980061588  0.3509089741551 1.0
C      1  0.5872566655778  0.4249134420172  0.2656383001253 1.0
C      1  0.3398348349134  0.7043606383998  0.4303689128719 1.0
C      1  0.4323783152908  0.7243894096237  0.4054261903472 1.0
C      1  0.7045783548391  0.3461203523272  0.3804339638418 1.0
C      1  0.2063008642138  0.4473213960327  0.5757636346305 1.0
C      1  0.3829987576561  0.5525081947540  0.2917392560137 1.0
C      1  0.6686250636662  0.4531999221937  0.5182065244055 1.0
C      1  0.6536119838802  0.6854237663799  0.5107953225070 1.0
C      1  0.4670581805647  0.3163834274860  0.2860461086716 1.0
C      1  0.6370274339594  0.4844959273484  0.7476609372014 1.0
C      1  0.5416553239628  0.7209133138745  0.7174509191339 1.0
C      1  0.6217700563685  0.3001266155059  0.3611416618535 1.0
C      1  0.2853009431496  0.4172028700200  0.6120793380839 1.0
C      1  0.7758604771972  0.4826814611676  0.4185017933996 1.0
C      1  0.5816642725062  0.5545656262101  0.3249071728805 1.0
C      1  0.4191230805502  0.2926765072795  0.5968166902593 1.0
C      1  0.5214527190325  0.6095644550668  0.5897963839397 1.0
C      1  0.2640140898411  0.6405196785570  0.6526891400128 1.0
C      1  0.3970015563297  0.6244014660741  0.7648668239077 1.0
C      1  0.5280233376495  0.5945191451464  0.8071874217785 1.0
C      1  0.5556983839435  0.3452026987385  0.6855180367767 1.0
C      1  0.2554073892305  0.4367574449832  0.4253907705931 1.0
C      1  0.4230357063394  0.6357244901336  0.2614090308293 1.0
C      1  0.6147906737671  0.6567194819464  0.7028181997433 1.0
C      1  0.5722756529371  0.5246961270851  0.4228829494622 1.0
C      1  0.5218535529267  0.4924766106041  0.2583417052268 1.0
C      1  0.8180181880846  0.4584959779694  0.5865967398164 1.0
C      1  0.3299701763401  0.3290252316575  0.6081872354038 1.0
C      1  0.4336665086691  0.6416969827814  0.5919036966190 1.0
C      1  0.4306906787593  0.4750245732111  0.2487388299392 1.0
C      1  0.5198444682615  0.4622080739438  0.4834762383525 1.0
C      1  0.5828072289212  0.3085406889215  0.5346534890635 1.0
C      1  0.7840061732453  0.4398512022797  0.6701896452116 1.0
C      1  0.3996321666562  0.3854775802111  0.2686554759791 1.0
C      1  0.5028701726536  0.7478623280324  0.4680378237859 1.0
C      1  0.7425164850283  0.6443801605015  0.4939926469893 1.0
C      1  0.4826580441568  0.7756468406027  0.5581285159804 1.0
C      1  0.6569857651815  0.4787535937730  0.2998042819286 1.0
C      1  0.2073091538239  0.4969877111846  0.4997883629280 1.0
C      1  0.4151954434753  0.5241518201212  0.3874455061433 1.0
C      1  0.2526828912846  0.6539922958591  0.5588923711402 1.0
C      1  0.5919781956725  0.4037001660536  0.5197865789007 1.0
C      1  0.7373973390693  0.3316537733920  0.4691626998374 1.0
C      1  0.2235767693819  0.5933461237587  0.4883690998674 1.0
C      1  0.4510569453249  0.5404357530255  0.7863421257585 1.0
C      1  0.5624080256046  0.3372609822600  0.2960997108000 1.0
C      1  0.3081656156928  0.3828050022294  0.3074901004771 1.0
C      1  0.4411631461796  0.4373566108130  0.4269870565655 1.0
END
