TITL C-29123-7884-56 -1.254 3375.00 -193.23775679 0 0 24 (D3h) n - 1
REM
REM Run started: at 2020.12.20 03:23:29 in /gpfs/home/chem/mssmkc/CARBON/AIRSS/Generating-Clusters/Str-Search/Higher-Symm/C4-100
REM VASP from code version vasp.5.4.4.18Apr17-6-g9f103f2a35 (build Oct 11 2019 16:45:47) gamma-only
REM
REM
REM
REM
REM ./C.cell (6bd13a13d554368a30d355f37ece5b26)
REM AIRSS Version 0.9.1 bugfix July 2018 build 013d7b7c2542+ Fri, 06 Jul 2018 19:26:36 +0100
REM compiler GCC version 6.3.0
REM options -cpp -iprefix /gpfs/warwick/csc/orac/software/Core/GCCcore/6.3.0/bin/../lib/gcc/x86_64-pc-linux-gnu/6.3.0/ -mtune=generic -march=x86-64 -g -O0
REM seed 367637223 876998621 -1072996450 1561959408 -2122398237 -1601282578 508504237 2089345339 938500816 108292801 -340783839 -1079517519
REM
REM C.POTCAR (d86ddea03c3ceb6dc662c8ad6801f873)
REM 
CELL 1.54180   15.00000   15.00000   15.00000   90.00000   90.00000   90.00000
LATT -1
SFAC C  
C      1  0.4622026183655  0.5937113880685  0.6493423504300 1.0
C      1  0.6477667088639  0.5937801941388  0.4582158674520 1.0
C      1  0.3900500953845  0.5938673829666  0.3929223705194 1.0
C      1  0.4622026423544  0.4062885955390  0.3506576600028 1.0
C      1  0.6477666859470  0.4062198031245  0.5417841474587 1.0
C      1  0.3900501305287  0.4061326130283  0.6070775716149 1.0
C      1  0.6475261225180  0.4062230689983  0.4583085975847 1.0
C      1  0.3900357299105  0.4064852579836  0.3925047242574 1.0
C      1  0.4623018038309  0.4061586685729  0.6487768529293 1.0
C      1  0.6475261212687  0.5937769274776  0.5416914043399 1.0
C      1  0.3900357630006  0.5935147335704  0.6074952119849 1.0
C      1  0.4623018211487  0.5938413564645  0.3512232202416 1.0
C      1  0.3347158423764  0.4497795264962  0.4516662071480 1.0
C      1  0.5409530685120  0.4496009110236  0.6674517302515 1.0
C      1  0.6243368391764  0.4496349802842  0.3808222113697 1.0
C      1  0.3347158556383  0.5502204694486  0.5483337348296 1.0
C      1  0.5409530723612  0.5503991011611  0.3325483403282 1.0
C      1  0.6243368199956  0.5503650220015  0.6191777984320 1.0
C      1  0.3347260277439  0.4496049572706  0.5481355016292 1.0
C      1  0.6244254122153  0.4497025242635  0.6191698749973 1.0
C      1  0.5409597955302  0.4497842128909  0.3324414020844 1.0
C      1  0.3347259991990  0.5503950307146  0.4518644411104 1.0
C      1  0.6244254317053  0.5502974772788  0.3808301372385 1.0
C      1  0.5409597924252  0.5502157972334  0.6675586417656 1.0
END
