TITL C-29086-3345-142 -1.383 3375.00 -211.86132490 0 0 27 (C1) n - 1
REM
REM Run started: at 2020.12.20 18:15:28 in /gpfs/home/chem/mssmkc/CARBON/AIRSS/Generating-Clusters/Str-Search/Higher-Symm/C4-100
REM VASP from code version vasp.5.4.4.18Apr17-6-g9f103f2a35 (build Oct 11 2019 16:45:47) gamma-only
REM
REM
REM
REM
REM ./C.cell (6bd13a13d554368a30d355f37ece5b26)
REM AIRSS Version 0.9.1 bugfix July 2018 build 013d7b7c2542+ Fri, 06 Jul 2018 19:26:36 +0100
REM compiler GCC version 6.3.0
REM options -cpp -iprefix /gpfs/warwick/csc/orac/software/Core/GCCcore/6.3.0/bin/../lib/gcc/x86_64-pc-linux-gnu/6.3.0/ -mtune=generic -march=x86-64 -g -O0
REM seed 543225990 -1391616506 -233829642 -1308696499 1350434835 -978679613 -1872300854 -100798919 -479663090 -1268864131 910690013 -2012216188
REM
REM C.POTCAR (d86ddea03c3ceb6dc662c8ad6801f873)
REM 
CELL 1.54180   15.00000   15.00000   15.00000   90.00000   90.00000   90.00000
LATT -1
SFAC C  
C      1  0.3649040715172  0.4830957377252  0.4467923106346 1.0
C      1  0.3703784445981  0.5521830671011  0.5116343798377 1.0
C      1  0.3670743790165  0.4599212642020  0.5392770336956 1.0
C      1  0.6481704571730  0.5166124916625  0.4462094788944 1.0
C      1  0.6430433077801  0.4477651329872  0.5111777804451 1.0
C      1  0.6458692468380  0.5400635636672  0.5386707332718 1.0
C      1  0.4644753751646  0.3822172026984  0.3528705694837 1.0
C      1  0.4669876330388  0.6935607073560  0.4743203800878 1.0
C      1  0.4683350630857  0.4272024047296  0.6735413408646 1.0
C      1  0.5488620982837  0.6175798506954  0.3531235005819 1.0
C      1  0.5469291275134  0.3063867027115  0.4741619873484 1.0
C      1  0.5456128460206  0.5731440918166  0.6739971872676 1.0
C      1  0.6132015142574  0.5933015018507  0.6046473002163 1.0
C      1  0.6125227826251  0.3627257743712  0.5239169244454 1.0
C      1  0.6163799497627  0.5483675474990  0.3660228744555 1.0
C      1  0.4002902292613  0.4067166938901  0.6050111273084 1.0
C      1  0.4011407432181  0.6371160582709  0.5240585570379 1.0
C      1  0.3967158234024  0.4512048176101  0.3666554918369 1.0
C      1  0.5413160364327  0.6538484600902  0.6242749018820 1.0
C      1  0.5427349365716  0.3151432031274  0.5684028954914 1.0
C      1  0.5401786240261  0.5312190450902  0.3108954048613 1.0
C      1  0.4723836665632  0.3461892555113  0.6240603644488 1.0
C      1  0.4708772992127  0.6848157945754  0.5684361106304 1.0
C      1  0.4723758264384  0.4688417393781  0.3110416666497 1.0
C      1  0.4984787154559  0.3164240501374  0.4006813635759 1.0
C      1  0.5163489344318  0.6839374836089  0.4012951060555 1.0
C      1  0.5063034683107  0.5004163576367  0.7048229286915 1.0
END
