TITL C-29469-8165-23 -0.876 3375.00 -127.13286729 0 0 17 (C1) n - 1
REM
REM Run started: at 2021.01.04 10:16:11 in /gpfs/home/chem/mssmkc/CARBON/AIRSS/Generating-Clusters/Str-Search/Higher-Symm/C4-100
REM VASP from code version vasp.5.4.4.18Apr17-6-g9f103f2a35 (build Oct 11 2019 16:45:47) gamma-only
REM
REM
REM
REM
REM ./C.cell (6bd13a13d554368a30d355f37ece5b26)
REM AIRSS Version 0.9.1 bugfix July 2018 build 013d7b7c2542+ Fri, 06 Jul 2018 19:26:36 +0100
REM compiler GCC version 6.3.0
REM options -cpp -iprefix /gpfs/warwick/csc/orac/software/Core/GCCcore/6.3.0/bin/../lib/gcc/x86_64-pc-linux-gnu/6.3.0/ -mtune=generic -march=x86-64 -g -O0
REM seed -7575391 1152714069 1444185693 -666985440 -1622395622 418636603 -1337127852 -1253048433 -1794742270 -468325611 -621209822 -535631773
REM
REM C.POTCAR (d86ddea03c3ceb6dc662c8ad6801f873)
REM 
CELL 1.54180   15.00000   15.00000   15.00000   90.00000   90.00000   90.00000
LATT -1
SFAC C  
C      1  0.7182410184281  0.4085900115249  0.7521087417751 1.0
C      1  0.4321309145400  0.6049903297686  0.3105931080738 1.0
C      1  0.5221937274745  0.5398826035904  0.5240079960731 1.0
C      1  0.4007946970783  0.4177933978540  0.4985321496666 1.0
C      1  0.5406216672468  0.4811773693019  0.5938120204122 1.0
C      1  0.3414063393273  0.4647861159751  0.3437846360525 1.0
C      1  0.3650564717801  0.4357557087452  0.4218021972889 1.0
C      1  0.5157415220109  0.5933650026937  0.4544118275910 1.0
C      1  0.3925477005310  0.6044859907051  0.2237509600974 1.0
C      1  0.6279552208087  0.3906594807764  0.7195097993924 1.0
C      1  0.4880033014414  0.6197257679715  0.3788424583121 1.0
C      1  0.7915014407417  0.3743987772287  0.7894288924439 1.0
C      1  0.3704424483013  0.5351072317160  0.2976569142993 1.0
C      1  0.6831159702483  0.4832552137354  0.6995066433125 1.0
C      1  0.6054715705054  0.4548958474044  0.6558575851566 1.0
C      1  0.3407622443861  0.5763659067692  0.1590958748102 1.0
C      1  0.4672534451500  0.4554083442396  0.5444328952425 1.0
END
