TITL C-29086-3345-202 -3.102 3375.00 -483.44446910 0 0 61 (C1) n - 1
REM
REM Run started: at 2020.12.21 04:48:38 in /gpfs/home/chem/mssmkc/CARBON/AIRSS/Generating-Clusters/Str-Search/Higher-Symm/C4-100
REM VASP from code version vasp.5.4.4.18Apr17-6-g9f103f2a35 (build Oct 11 2019 16:45:47) gamma-only
REM
REM
REM
REM
REM ./C.cell (6bd13a13d554368a30d355f37ece5b26)
REM AIRSS Version 0.9.1 bugfix July 2018 build 013d7b7c2542+ Fri, 06 Jul 2018 19:26:36 +0100
REM compiler GCC version 6.3.0
REM options -cpp -iprefix /gpfs/warwick/csc/orac/software/Core/GCCcore/6.3.0/bin/../lib/gcc/x86_64-pc-linux-gnu/6.3.0/ -mtune=generic -march=x86-64 -g -O0
REM seed -707235890 -1666451785 1951563182 1700311018 -2059896864 2070334859 -599457836 -1248136674 -32247877 -1747864656 1105136581 -723456711
REM
REM C.POTCAR (d86ddea03c3ceb6dc662c8ad6801f873)
REM 
CELL 1.54180   15.00000   15.00000   15.00000   90.00000   90.00000   90.00000
LATT -1
SFAC C  
C      1  0.5477770731182  0.3965522911139  0.7308068466218 1.0
C      1  0.3974632577665  0.4057020620696  0.7038596870939 1.0
C      1  0.3118235908636  0.4235679937201  0.6647762742155 1.0
C      1  0.2218771719731  0.4722824872164  0.5049756179427 1.0
C      1  0.2333526486143  0.4851484054239  0.4110979856333 1.0
C      1  0.3635563819902  0.4695669487670  0.2743974340158 1.0
C      1  0.4574447025714  0.4525871465930  0.2598152659991 1.0
C      1  0.5996578952639  0.4261264751997  0.3019750007653 1.0
C      1  0.7263550135353  0.4749983205134  0.3909849517172 1.0
C      1  0.7286540179768  0.4412321456210  0.5518589285835 1.0
C      1  0.7012799050959  0.4367231835881  0.6406582144010 1.0
C      1  0.3534371246365  0.4938231631741  0.6060393370585 1.0
C      1  0.3123891502890  0.5120564129760  0.5249619043320 1.0
C      1  0.3252499488463  0.5241366275325  0.4255418572494 1.0
C      1  0.3866624267832  0.5226827782776  0.3566095960243 1.0
C      1  0.4846625794236  0.5143193799177  0.3312245599631 1.0
C      1  0.5755068437265  0.5006706467574  0.3585178960547 1.0
C      1  0.6466489658091  0.5137623767796  0.4270275594234 1.0
C      1  0.6578113691015  0.5047383129276  0.5227476256934 1.0
C      1  0.6190693698187  0.4921185617308  0.6174304818575 1.0
C      1  0.5383679882692  0.4729593480223  0.6637808959048 1.0
C      1  0.4403987736373  0.4789519500141  0.6571362227544 1.0
C      1  0.5222953427518  0.7485932412589  0.5996766717766 1.0
C      1  0.4529537121932  0.8024896437644  0.6391237593215 1.0
C      1  0.3816221029251  0.8039139497563  0.5887693616725 1.0
C      1  0.3927346098050  0.7507652061141  0.5094825530159 1.0
C      1  0.3790257438131  0.7651382371961  0.4201370139604 1.0
C      1  0.4388245750927  0.7652175719666  0.3586556873092 1.0
C      1  0.5160240259237  0.7788949792824  0.3191221020902 1.0
C      1  0.5937305246645  0.7717104642974  0.3570761309221 1.0
C      1  0.6570782404510  0.7786748684703  0.4160627153195 1.0
C      1  0.6469518940162  0.7638970148486  0.5020845988540 1.0
C      1  0.6105764062884  0.7626717867903  0.5796983260172 1.0
C      1  0.2757059597134  0.4479920374590  0.2651330123122 1.0
C      1  0.5271791472138  0.3907222310636  0.2493215894574 1.0
C      1  0.5867955753597  0.3342685474604  0.2989247931781 1.0
C      1  0.7702691233101  0.4058442462504  0.4086242483463 1.0
C      1  0.7504355319765  0.3666546873594  0.4926281327266 1.0
C      1  0.6838169838220  0.3498221489313  0.6762738773050 1.0
C      1  0.6243456491300  0.3518386693145  0.7477251368383 1.0
C      1  0.4667405533397  0.3426336773407  0.7226246546410 1.0
C      1  0.2272091615769  0.3981000250535  0.6428246755119 1.0
C      1  0.1863039048924  0.4219542520144  0.5724909167041 1.0
C      1  0.2177631031276  0.4535952076919  0.3269281772427 1.0
C      1  0.4095427847779  0.1369194137572  0.4765910958565 1.0
C      1  0.4646111372009  0.1575800569672  0.4118266086873 1.0
C      1  0.5145111422520  0.1976254131706  0.3541737713331 1.0
C      1  0.5830432829235  0.2612854204369  0.3610812463070 1.0
C      1  0.6149529809130  0.2703101671614  0.4542230852096 1.0
C      1  0.6889268357422  0.2963140760341  0.5131191076711 1.0
C      1  0.6572103532645  0.2880043203419  0.6071075492563 1.0
C      1  0.5634854824746  0.2643004917636  0.6089406859210 1.0
C      1  0.4836906142547  0.2630233857072  0.6697815781951 1.0
C      1  0.4167723608088  0.2061125236958  0.6346186689739 1.0
C      1  0.4106674829562  0.1636676054067  0.5605180530460 1.0
C      1  0.4808530815671  0.4317971230748  0.4951316758144 1.0
C      1  0.5405073538594  0.2742681042439  0.5156561499013 1.0
C      1  0.4834488932879  0.6041318008264  0.5133119564913 1.0
C      1  0.4871480892164  0.3485365124264  0.4977075491157 1.0
C      1  0.4692986814520  0.6895462924466  0.5369048943767 1.0
C      1  0.4853767725521  0.5207988809193  0.5006457460167 1.0
END
