TITL C-30174-3500-28 -4.369 3375.00 -760.72999279 0 0 92 (C1) n - 1
REM
REM Run started: at 2020.12.28 10:22:31 in /rds/project/t2_vol4/rds-t2-cs072/BORA/CARBON/AIRSS/Generating-Clusters/Str-Search/Higher-Symm/C10-100
REM VASP from code version vasp.5.4.4.18Apr17-6-g9f103f2a35 (build Oct 11 2019 16:45:47) gamma-only
REM
REM
REM
REM
REM ./C.cell (f39ce9773e2efe3fa5bbdf770a4156b8)
REM AIRSS Version 0.9.1 bugfix July 2018 build 013d7b7c2542+ Fri, 06 Jul 2018 19:26:36 +0100
REM compiler GCC version 4.8.5 20150623 (Red Hat 4.8.5-39)
REM options -cpp -mtune=generic -march=x86-64 -g -O0
REM seed 1744917641 -2076695754 -1303777982 165815911 -243506578 1553808557 1700511642 1065613843 -874132194 1065457721 813696273 -71046727
REM
REM C.POTCAR (d86ddea03c3ceb6dc662c8ad6801f873)
REM 
CELL 1.54180   15.00000   15.00000   15.00000   90.00000   90.00000   90.00000
LATT -1
SFAC C  
C      1  0.7770728302045  0.3759836000283  0.4196231855644 1.0
C      1  0.4765494645192  0.4304876482933  0.2873105895886 1.0
C      1  0.2911340883697  0.4195023600359  0.4667693351186 1.0
C      1  0.3730857634865  0.3690191942132  0.7113968160960 1.0
C      1  0.6348304231714  0.4313628098217  0.6336247354876 1.0
C      1  0.4207648261149  0.7290664136143  0.6002753844004 1.0
C      1  0.6703642867608  0.6699319171781  0.6100211684273 1.0
C      1  0.6493111514062  0.6658675921531  0.3735115253923 1.0
C      1  0.4219901910353  0.6980122466209  0.3191666168531 1.0
C      1  0.3134777176636  0.7186990840566  0.4576517198408 1.0
C      1  0.3019607360937  0.6225810675297  0.6889982379653 1.0
C      1  0.6028947798290  0.6191406156597  0.7209855515194 1.0
C      1  0.7683176499088  0.6384662966435  0.4712947467044 1.0
C      1  0.5493937790148  0.6358728054374  0.2523964861447 1.0
C      1  0.2605804935724  0.6319428847181  0.3551131341279 1.0
C      1  0.2996749623429  0.3256720654076  0.4339174012591 1.0
C      1  0.4028012880731  0.2866883469227  0.7211478158179 1.0
C      1  0.6224443461710  0.3351480537938  0.6497412161711 1.0
C      1  0.7079039168604  0.3072406469026  0.4249258403360 1.0
C      1  0.5012630301609  0.3369085698323  0.2957389914826 1.0
C      1  0.3062311753161  0.4313367589762  0.3092139282656 1.0
C      1  0.2329443903029  0.4335934178738  0.6164011002700 1.0
C      1  0.5483160073431  0.4058309329390  0.7674641883001 1.0
C      1  0.8314837116775  0.4440710264520  0.5500394671343 1.0
C      1  0.6263649727060  0.4216473371973  0.2635797747048 1.0
C      1  0.6476597297581  0.2786822245903  0.5763374199903 1.0
C      1  0.6259294020266  0.2881625031224  0.3833151823068 1.0
C      1  0.4348780056587  0.2928073473423  0.3451433220229 1.0
C      1  0.3324726297859  0.2917711116414  0.5142915197210 1.0
C      1  0.4795319348348  0.2641761378096  0.6750945687118 1.0
C      1  0.4647869174894  0.2486001277037  0.4251461827876 1.0
C      1  0.4181691857014  0.2458999065865  0.5124747377048 1.0
C      1  0.4859982565918  0.2350033061388  0.5814735099773 1.0
C      1  0.5710722023711  0.2381369574949  0.5359524484578 1.0
C      1  0.5594338951314  0.2458870245154  0.4401111045028 1.0
C      1  0.4053660069181  0.5543559525637  0.2225972135246 1.0
C      1  0.2019040538422  0.5554624699399  0.4976861810379 1.0
C      1  0.4011432426309  0.5158076044038  0.7696003009477 1.0
C      1  0.7507506604694  0.5409840529817  0.6724259596996 1.0
C      1  0.7436216203665  0.5309458423518  0.3419444350018 1.0
C      1  0.2462983529052  0.5578607948977  0.2961934398786 1.0
C      1  0.2360720825496  0.5604512552152  0.6704179824941 1.0
C      1  0.5711655505010  0.5454928495725  0.7696183854817 1.0
C      1  0.8264276071477  0.5793832693783  0.5157538665283 1.0
C      1  0.6034691572957  0.5591162524883  0.2358613951378 1.0
C      1  0.5552388569312  0.4770909174892  0.6001714161723 1.0
C      1  0.7922719535775  0.3666005950998  0.5175414596038 1.0
C      1  0.4536579689243  0.4726397737679  0.3763433891033 1.0
C      1  0.3640378531291  0.4372479142701  0.3931675403620 1.0
C      1  0.3945515315678  0.4067245706226  0.6152167442181 1.0
C      1  0.3899821501695  0.7530105262863  0.5087552316305 1.0
C      1  0.5114346595878  0.7342872640929  0.5850483862176 1.0
C      1  0.6944173091772  0.6696951767904  0.5222279411356 1.0
C      1  0.5756485994295  0.6930015472830  0.3265703611143 1.0
C      1  0.3355390522087  0.6939751374747  0.3624740710861 1.0
C      1  0.8094734429419  0.5281438498297  0.6000785938967 1.0
C      1  0.6737872883025  0.5053809942172  0.2808233122635 1.0
C      1  0.3216925616451  0.5186971212939  0.2529260154156 1.0
C      1  0.2064598487620  0.5261804843530  0.5847912993564 1.0
C      1  0.4922743257129  0.4898637909347  0.7785376362211 1.0
C      1  0.4314857031835  0.5887061914091  0.5724989440861 1.0
C      1  0.5339129435294  0.5749649700482  0.5774997927394 1.0
C      1  0.5582336608456  0.5840200511951  0.4789583774482 1.0
C      1  0.4820804962182  0.5409271367754  0.4314678064785 1.0
C      1  0.4073873288549  0.5760329199892  0.4849125173727 1.0
C      1  0.5950771392128  0.3399377270023  0.3082290354665 1.0
C      1  0.3468554963235  0.3396309690599  0.3485551441517 1.0
C      1  0.3088691884445  0.3898566037759  0.5630566263303 1.0
C      1  0.5502688083714  0.3248814448582  0.7082492294275 1.0
C      1  0.7194015648109  0.3003848902631  0.5201188067514 1.0
C      1  0.6274285564683  0.4634827904566  0.7634241626160 1.0
C      1  0.8433942930853  0.4990533165205  0.4698382462654 1.0
C      1  0.5567542352599  0.4776091225181  0.2142684243739 1.0
C      1  0.2227321247497  0.4789343482273  0.3460814276815 1.0
C      1  0.2550501441115  0.4715124354629  0.7037268150473 1.0
C      1  0.4517048682277  0.6358865572587  0.2492815503545 1.0
C      1  0.2377311253578  0.6406637015729  0.4539586679942 1.0
C      1  0.3781876698446  0.6041024759561  0.7373047922837 1.0
C      1  0.6943808090081  0.6203232293944  0.6863764805449 1.0
C      1  0.7367453991593  0.6190502679669  0.3787809903807 1.0
C      1  0.7952757467093  0.4656947588390  0.3934798620849 1.0
C      1  0.4628212620141  0.4788034557244  0.2070094324795 1.0
C      1  0.2164590385336  0.4796552297864  0.4378771435400 1.0
C      1  0.3327942627093  0.4481122534554  0.7507841627208 1.0
C      1  0.6989587125565  0.4636192705712  0.6990821625262 1.0
C      1  0.3349235010535  0.6187216027710  0.4378649335685 1.0
C      1  0.3877041943039  0.6459332158639  0.6444666006043 1.0
C      1  0.5717493889724  0.6610521831420  0.6271593888329 1.0
C      1  0.6212131032696  0.6480185664238  0.4631245080713 1.0
C      1  0.4944593048077  0.7267304862832  0.3751618726573 1.0
C      1  0.4765716560449  0.4299764387969  0.5977490006701 1.0
C      1  0.4758749958113  0.7535126417871  0.4684143837655 1.0
END
