TITL C-30559-8934-2 -10.751 3375.00 -2329.13672513 0 0 282 (C1) n - 1
REM
REM Run started: at 2020.11.26 10:10:59 in /rds/project/t2_vol4/rds-t2-cs072/BORA/CARBON/AIRSS/Generating-Clusters/Str-Search/Higher-Symm
REM VASP from code version vasp.5.4.4.18Apr17-6-g9f103f2a35 (build Oct 11 2019 16:45:47) gamma-only
REM
REM
REM
REM
REM ./C.cell (e5ae0387ce4d49c7c0135a1433873289)
REM AIRSS Version 0.9.1 bugfix July 2018 build 013d7b7c2542+ Fri, 06 Jul 2018 19:26:36 +0100
REM compiler GCC version 4.8.5 20150623 (Red Hat 4.8.5-39)
REM options -cpp -mtune=generic -march=x86-64 -g -O0
REM seed -484471895 776725692 2007491715 -1103595747 541756693 -1004448372 -1797408131 -1924912833 -540674630 -1396267754 -6405279 -1274071769
REM
REM C.POTCAR (d86ddea03c3ceb6dc662c8ad6801f873)
REM 
CELL 1.54180   15.00000   15.00000   15.00000   90.00000   90.00000   90.00000
LATT -1
SFAC C  
C      1  0.5242971322283  0.9471780230292  0.5964149899637 1.0
C      1  0.5321708379791  0.1912591276140  0.8112561055227 1.0
C      1  0.5008235565406  0.3615432038258  0.0797670414965 1.0
C      1  0.2358237000168  0.8640255273355  0.4283851355689 1.0
C      1  0.2483549293134  0.3582836221402  0.8708432386379 1.0
C      1  0.2248937740403  0.2511169526458  0.2142649555896 1.0
C      1  0.3706721011524  0.2207489257911  0.2281621681228 1.0
C      1  0.3855083818646  0.8633842313201  0.4114628390880 1.0
C      1  0.3959277618338  0.3463993760151  0.9205647809644 1.0
C      1  0.7208419680057  0.9316631750379  0.3152995114017 1.0
C      1  0.7164565013495  0.4523627119194  0.9197880085825 1.0
C      1  0.7597248956921  0.1744731253354  0.2125565287394 1.0
C      1  0.6750400810544  0.3695711642517  0.0989821389397 1.0
C      1  0.6966715311210  0.8731045776784  0.5547337058810 1.0
C      1  0.7083554420896  0.2567860664282  0.7735150513126 1.0
C      1  0.8399673116752  0.6551834959882  0.2197734997885 1.0
C      1  0.8704503055842  0.6807798201793  0.6631973584680 1.0
C      1  0.8724001020788  0.2538400939345  0.5583590629452 1.0
C      1  0.8236276616598  0.5282643978904  0.8273723279658 1.0
C      1  0.8428379506697  0.2192569299435  0.3406216247914 1.0
C      1  0.8340448495620  0.8239335932370  0.2993454279937 1.0
C      1  0.7594613170825  0.7122949745793  0.1905502414559 1.0
C      1  0.7309844342274  0.6856490011888  0.8470414229119 1.0
C      1  0.7108155763508  0.1061575206292  0.4414041532213 1.0
C      1  0.9066068879021  0.4641152325619  0.5905773039945 1.0
C      1  0.8934576115592  0.4368610226032  0.4188089023162 1.0
C      1  0.8836759165152  0.6380430404124  0.4462278251078 1.0
C      1  0.6592257272492  0.7517293881238  0.4048841116488 1.0
C      1  0.6603126109682  0.4704728091844  0.7412958659782 1.0
C      1  0.6818148837384  0.3180052149693  0.3160287781141 1.0
C      1  0.5895034909855  0.3438113950394  0.9487648651530 1.0
C      1  0.6045709609765  0.1880913927044  0.1860692441956 1.0
C      1  0.5683074123153  0.9077090899726  0.3562638620025 1.0
C      1  0.4654571585876  0.4475759513991  0.5876982088571 1.0
C      1  0.4584589692216  0.4771838214645  0.4184581028687 1.0
C      1  0.4305472260998  0.6203458439404  0.5399135968901 1.0
C      1  0.5136921077626  0.2843445558867  0.2704754756395 1.0
C      1  0.5049307844953  0.7886432534399  0.4497758525869 1.0
C      1  0.5102179653759  0.3673210475471  0.8059123817121 1.0
C      1  0.4731057025118  0.2401829018561  0.8676686065284 1.0
C      1  0.4543747396654  0.2893398736906  0.1209274505720 1.0
C      1  0.4689381525305  0.9323942945010  0.5103492763969 1.0
C      1  0.5146498245169  0.2330945287745  0.1847002629138 1.0
C      1  0.4934677278106  0.8876976166050  0.4233712826169 1.0
C      1  0.5021232444743  0.3315319141089  0.8979542982268 1.0
C      1  0.3230857634930  0.3949772995440  0.6330731497385 1.0
C      1  0.3216561344598  0.4235145354021  0.3757151554255 1.0
C      1  0.2988736976836  0.6478967127238  0.5351990340892 1.0
C      1  0.1693600460170  0.7425640970502  0.3368338193233 1.0
C      1  0.1095063750365  0.4564636930841  0.7941776022415 1.0
C      1  0.1392206932658  0.2592748000192  0.3659453524153 1.0
C      1  0.5757791240943  0.7232422560961  0.7724331842747 1.0
C      1  0.5584176588669  0.1188924206028  0.5424181767269 1.0
C      1  0.6433745836500  0.5980930468983  0.2149929371335 1.0
C      1  0.3713289931155  0.4537060538947  0.5587035039384 1.0
C      1  0.3666524943816  0.4740358926759  0.4560768221196 1.0
C      1  0.3515290642900  0.5515389533650  0.5316149236336 1.0
C      1  0.1643256675525  0.3787517233601  0.2494649684679 1.0
C      1  0.1776275766305  0.7540200909940  0.5096390759294 1.0
C      1  0.1696110428872  0.3247547534658  0.7535415135271 1.0
C      1  0.4904196981641  0.4912914562712  0.2327597219482 1.0
C      1  0.4797978169801  0.7484921470439  0.6305668408828 1.0
C      1  0.4933079376650  0.2606684208344  0.5971576690180 1.0
C      1  0.4154028096712  0.2579900467535  0.6766688536897 1.0
C      1  0.4023101435614  0.4689578380494  0.2034656075048 1.0
C      1  0.3949323381993  0.7891860340389  0.6327233196814 1.0
C      1  0.0892205507236  0.5531411500686  0.4567013448878 1.0
C      1  0.0994919480317  0.5182048238193  0.5598531660238 1.0
C      1  0.0893569558431  0.4538011841432  0.4744210111896 1.0
C      1  0.4263379802854  0.7068569982519  0.3382796960091 1.0
C      1  0.4397007266055  0.5491231303268  0.8217360987838 1.0
C      1  0.4851187460520  0.2392633634371  0.3533461687269 1.0
C      1  0.2639372649840  0.5793454781630  0.9321262452936 1.0
C      1  0.1756096419172  0.1631397284664  0.3834021571009 1.0
C      1  0.2028312524681  0.7883228631149  0.2478959874724 1.0
C      1  0.1675976080621  0.3858189308089  0.8265436353614 1.0
C      1  0.1575328119658  0.2874481274800  0.2693020428812 1.0
C      1  0.1734491730806  0.7966115852486  0.4213285259010 1.0
C      1  0.5239597216865  0.7190769165471  0.3061441400182 1.0
C      1  0.5408360850511  0.5408885528221  0.8175411098658 1.0
C      1  0.5122712072513  0.1536867549494  0.3852160081366 1.0
C      1  0.2217916904676  0.4064140564360  0.3966510787316 1.0
C      1  0.2087096873351  0.6667431305746  0.5001763649008 1.0
C      1  0.2289810511371  0.4422644954955  0.6481854276231 1.0
C      1  0.2726910437464  0.8699898639033  0.5209414920133 1.0
C      1  0.2858288276676  0.2730184066310  0.8325373272144 1.0
C      1  0.2749849733983  0.3210178329091  0.1608683371558 1.0
C      1  0.1940450267697  0.5248491164892  0.2858168344008 1.0
C      1  0.1711178958812  0.6880282364873  0.6768077667888 1.0
C      1  0.1850518754608  0.2955963067812  0.6016304754948 1.0
C      1  0.6584172281486  0.6674413150248  0.5649021265765 1.0
C      1  0.6811609627727  0.3606835339548  0.6167298991181 1.0
C      1  0.7011405401962  0.4849205594609  0.3127557211442 1.0
C      1  0.7330968129674  0.3966515049228  0.3337496240013 1.0
C      1  0.6861406496742  0.6924376315038  0.4762915800633 1.0
C      1  0.7183714919952  0.4306501939437  0.6700756319779 1.0
C      1  0.8015966154975  0.4493446963931  0.8716236261962 1.0
C      1  0.8251114241199  0.2344617466053  0.2458761580237 1.0
C      1  0.8050396558628  0.8977255583914  0.3471834614410 1.0
C      1  0.6843836793828  0.8707187556416  0.2569888139278 1.0
C      1  0.6790331771465  0.5369620008709  0.9105253246495 1.0
C      1  0.7191132751017  0.1295658594030  0.2808178570774 1.0
C      1  0.7484354532933  0.5038691947380  0.6208827812618 1.0
C      1  0.7496881396099  0.3981630910047  0.4279242155474 1.0
C      1  0.7345888823022  0.6238907577312  0.4371058198266 1.0
C      1  0.7267080493673  0.3170998060077  0.8458796170717 1.0
C      1  0.7328850722695  0.3080721395624  0.1425097657824 1.0
C      1  0.7118275499938  0.9095536711849  0.4674501350046 1.0
C      1  0.4451208490805  0.8249735223435  0.2039838844901 1.0
C      1  0.4256433434596  0.6041414783618  0.9184543750708 1.0
C      1  0.3642411902106  0.0470103921013  0.4251386601329 1.0
C      1  0.5192440600846  0.6041520937771  0.5080087250975 1.0
C      1  0.5749446450390  0.4598921469997  0.6875091877992 1.0
C      1  0.5690983918828  0.4139212279177  0.3563365131213 1.0
C      1  0.5302268367453  0.6892455760603  0.0979036607802 1.0
C      1  0.4117846454401  0.6904375189974  0.8591558273940 1.0
C      1  0.3952275514929  0.0017876176308  0.5026025221391 1.0
C      1  0.3227162699063  0.7135810232627  0.6358928564587 1.0
C      1  0.3324069114104  0.2871233004200  0.6187979147750 1.0
C      1  0.3361839035204  0.4914030875976  0.2743462076055 1.0
C      1  0.7299292512818  0.5827652242911  0.6711409820145 1.0
C      1  0.7269130736631  0.3139966494038  0.4651644024143 1.0
C      1  0.7347755578868  0.6395957595906  0.3408294846820 1.0
C      1  0.2273671187249  0.6596631698015  0.1444510225780 1.0
C      1  0.2508458696983  0.7187867397663  0.8303453356382 1.0
C      1  0.2164067258644  0.1190175901515  0.5425211156573 1.0
C      1  0.2661949344997  0.1389301485176  0.6168323844078 1.0
C      1  0.2748345429693  0.5824052128787  0.1402758906073 1.0
C      1  0.2694538118417  0.7846733822271  0.7662816297317 1.0
C      1  0.6361675102326  0.0491538877100  0.4056645435163 1.0
C      1  0.5864657101158  0.7370776380436  0.1518190021411 1.0
C      1  0.7375533518661  0.7813625043565  0.8549490334158 1.0
C      1  0.6726816372963  0.6821734354094  0.1648671710260 1.0
C      1  0.6635361728432  0.7344725663882  0.8148518468692 1.0
C      1  0.6400953400387  0.0926670447539  0.4937691187388 1.0
C      1  0.5386316642520  0.0900124111359  0.6907479930429 1.0
C      1  0.5643542623064  0.5091142616296  0.0843595804805 1.0
C      1  0.5351237330325  0.8751956091792  0.7446173265956 1.0
C      1  0.1980754713133  0.7343188880212  0.1730528078998 1.0
C      1  0.2416622194881  0.6506571882938  0.8792276715040 1.0
C      1  0.1751642959358  0.1295832369345  0.4696611658033 1.0
C      1  0.5920458588939  0.3532814140234  0.0432434668743 1.0
C      1  0.6195538254194  0.8972409741970  0.6060626693488 1.0
C      1  0.6238780755376  0.2064504355047  0.7677476855232 1.0
C      1  0.5341787618679  0.6026924142661  0.0517663870179 1.0
C      1  0.5114206466486  0.8013850835173  0.8044310858682 1.0
C      1  0.5111978717875  0.0496891529194  0.6052514979852 1.0
C      1  0.5185141103162  0.5959507475864  0.9572958466808 1.0
C      1  0.5785361108674  0.1018659362084  0.3418299713889 1.0
C      1  0.5360306876496  0.7934154470018  0.2261731175658 1.0
C      1  0.7497527748457  0.7912909302514  0.2511835182817 1.0
C      1  0.7396714191446  0.5880103028472  0.8427388004807 1.0
C      1  0.7544881687374  0.1645366841023  0.3713732352946 1.0
C      1  0.9391477208523  0.3925759054776  0.4966407163684 1.0
C      1  0.9394675566984  0.6122329292072  0.3660949474288 1.0
C      1  0.9525454448783  0.5522260288772  0.6114511988426 1.0
C      1  0.4724477631280  0.9149381591369  0.6847178037681 1.0
C      1  0.4816107294972  0.1302153130620  0.7545152673731 1.0
C      1  0.4799497742620  0.4502798288198  0.0751570989567 1.0
C      1  0.5927509263207  0.3940771407705  0.6168267028880 1.0
C      1  0.6271755943529  0.4932585973369  0.3602421796856 1.0
C      1  0.5816696740538  0.6147855283886  0.5745794912233 1.0
C      1  0.6551464010493  0.9523973456812  0.3903451994426 1.0
C      1  0.6734114534136  0.3639095257135  0.9080110370921 1.0
C      1  0.6942551043574  0.2184807683146  0.1567852620369 1.0
C      1  0.8153096266304  0.5007625895929  0.5501010137923 1.0
C      1  0.8085995747052  0.4723838191106  0.4561397812228 1.0
C      1  0.8090900161275  0.5736041686012  0.4758197710877 1.0
C      1  0.1716608584873  0.3621072168757  0.6693250528044 1.0
C      1  0.1674400963092  0.4428740129132  0.3190598999301 1.0
C      1  0.1040931689040  0.6237589546642  0.6695440788119 1.0
C      1  0.4365638460080  0.3388794695390  0.7402188836494 1.0
C      1  0.4120927902501  0.2771452652764  0.2978366112001 1.0
C      1  0.4123870400296  0.7627823697883  0.4240938685800 1.0
C      1  0.2530430450852  0.1372150115253  0.3282726266242 1.0
C      1  0.2836458253387  0.8450381275397  0.2682693441166 1.0
C      1  0.3037937786763  0.4968063131477  0.9419249339355 1.0
C      1  0.3090120200806  0.2801419835746  0.4406121262475 1.0
C      1  0.3402899903920  0.6749589229706  0.2951202562813 1.0
C      1  0.3370295143923  0.5559628002118  0.7034369931865 1.0
C      1  0.2498769011213  0.5294916579935  0.6971412547983 1.0
C      1  0.2142265620871  0.3063165462111  0.4250077478283 1.0
C      1  0.2536065813626  0.6843883048710  0.3231711641061 1.0
C      1  0.8837771848295  0.7559429637518  0.3431177664725 1.0
C      1  0.8739675627598  0.5196487325716  0.7450531636489 1.0
C      1  0.9021593754337  0.2831233965786  0.3863798486057 1.0
C      1  0.3400804055791  0.5789664017988  0.3291820328437 1.0
C      1  0.3729866487040  0.6454336547586  0.6942026882452 1.0
C      1  0.3508585228611  0.2617491301759  0.5208037440837 1.0
C      1  0.3654109643173  0.2825577199581  0.1491514806575 1.0
C      1  0.3658272698049  0.9038830780324  0.5036038759103 1.0
C      1  0.3773768757848  0.2655221667812  0.8717478295496 1.0
C      1  0.7986940957447  0.2600037794976  0.6112885931981 1.0
C      1  0.8162545647464  0.5588536995590  0.2193362347277 1.0
C      1  0.7979580475716  0.7296870883547  0.6307388209853 1.0
C      1  0.6231791439637  0.1291128478580  0.2633469854340 1.0
C      1  0.5885430800150  0.8659149250075  0.2737544301754 1.0
C      1  0.5822707055853  0.5596107107053  0.9044518838978 1.0
C      1  0.6400499509512  0.4462475144762  0.0691052499539 1.0
C      1  0.6102048167702  0.8520969483505  0.6870204915681 1.0
C      1  0.6070900152131  0.1587391276378  0.6861865984581 1.0
C      1  0.4105250604058  0.0544733648185  0.5864025863825 1.0
C      1  0.4545546717716  0.6252796524240  0.1180215035745 1.0
C      1  0.4237615077335  0.7866168035601  0.8334738899859 1.0
C      1  0.5720070066871  0.1959192404425  0.6059400306630 1.0
C      1  0.5709314850068  0.5279093905108  0.1807560718014 1.0
C      1  0.5633806182455  0.7674537672674  0.6820529166894 1.0
C      1  0.4945237150932  0.5907040067988  0.2049866982733 1.0
C      1  0.4336379253736  0.6420205377637  0.7800643717085 1.0
C      1  0.4492406778792  0.2428320121683  0.5068364350871 1.0
C      1  0.8403501547074  0.3522906843480  0.7407008538807 1.0
C      1  0.8529013426672  0.3949569675417  0.2521783618366 1.0
C      1  0.8319387702581  0.8104448310022  0.4905684461170 1.0
C      1  0.3652247736681  0.8380027573657  0.2180242836012 1.0
C      1  0.3512493903447  0.5740660760819  0.9819098444338 1.0
C      1  0.3141526378995  0.0813706454270  0.3707015113270 1.0
C      1  0.7163083438535  0.2566954392003  0.3856152925119 1.0
C      1  0.7140629829285  0.7294233898899  0.3282133612649 1.0
C      1  0.6982531281890  0.5591999103831  0.7549434399036 1.0
C      1  0.0640157312058  0.4861384495687  0.7298854466419 1.0
C      1  0.0499536424308  0.2989113290963  0.4082322766829 1.0
C      1  0.1078465517282  0.6635626181820  0.3678040270358 1.0
C      1  0.2346518888215  0.2539892186458  0.7539851005466 1.0
C      1  0.2296293701644  0.4034485720374  0.1823686685896 1.0
C      1  0.2230314334656  0.8128696923568  0.5760846099840 1.0
C      1  0.4112140722883  0.6201961169584  0.3915774348020 1.0
C      1  0.4078696691977  0.4968614241093  0.7352675796120 1.0
C      1  0.4639586507439  0.3087819088949  0.4266424470370 1.0
C      1  0.7253970578214  0.2997558295136  0.5616224484489 1.0
C      1  0.7278056048942  0.5667432973910  0.2693288633184 1.0
C      1  0.7251788987073  0.6685180755972  0.6291903285439 1.0
C      1  0.5422589732880  0.4169319092361  0.5321874789652 1.0
C      1  0.5591166510995  0.5617011778343  0.3479943544003 1.0
C      1  0.5255895793942  0.6007545338749  0.6584635207019 1.0
C      1  0.0325547372609  0.3753547681645  0.4583728275406 1.0
C      1  0.0331487353781  0.6130635880438  0.3912080864225 1.0
C      1  0.0462629707863  0.5451065049724  0.6430777801373 1.0
C      1  0.8755689743402  0.7394193120562  0.4392512564143 1.0
C      1  0.8823084139354  0.4334377443191  0.6977331773839 1.0
C      1  0.8887178102282  0.3736280221230  0.3452797222933 1.0
C      1  0.3970235855235  0.4835765227272  0.1124371120757 1.0
C      1  0.3919356986654  0.8661097544610  0.6907047050461 1.0
C      1  0.4066364500333  0.1623686137664  0.7051926191628 1.0
C      1  0.7872843157753  0.2744408720545  0.7087690077443 1.0
C      1  0.8578075578423  0.4811909528059  0.2209235010899 1.0
C      1  0.7796341545004  0.8087371926137  0.5709498823135 1.0
C      1  0.5674346326190  0.7505948100910  0.3915160898333 1.0
C      1  0.5703661511586  0.4433239122660  0.7830764968874 1.0
C      1  0.5910700830498  0.3385623624220  0.2989026925690 1.0
C      1  0.4976678535758  0.5725239776040  0.4219103839515 1.0
C      1  0.4920394593721  0.5068437023755  0.6650649754652 1.0
C      1  0.5172577183711  0.3954819331236  0.4405934195162 1.0
C      1  0.3797055771696  0.4050500097820  0.7177780398104 1.0
C      1  0.3724754063727  0.3274096341706  0.3781169219161 1.0
C      1  0.3776782813068  0.6760821855157  0.4728156518829 1.0
C      1  0.3178397434368  0.4064055751893  0.9190478155614 1.0
C      1  0.2813056681969  0.1862048802029  0.2517741173125 1.0
C      1  0.2999878724250  0.8721314094186  0.3569150416408 1.0
C      1  0.8997891683326  0.2969270619822  0.4860112543837 1.0
C      1  0.8987859387927  0.6748573593161  0.2935898361044 1.0
C      1  0.8952287473942  0.5943961532895  0.6818666731972 1.0
C      1  0.2512930534450  0.5035692885638  0.2058887949626 1.0
C      1  0.2373608362517  0.7625330896564  0.6659675347623 1.0
C      1  0.2484803953569  0.2320958664866  0.6530984707335 1.0
C      1  0.7988647841267  0.8866304974705  0.4397502102617 1.0
C      1  0.8075317262033  0.3668948855972  0.8289534739964 1.0
C      1  0.8136846259836  0.3176582189845  0.2017561883007 1.0
C      1  0.1830531331079  0.4246151225828  0.4889760259297 1.0
C      1  0.1714922202161  0.6099722078684  0.4262449566044 1.0
C      1  0.1911374289173  0.4839366385513  0.5664082487031 1.0
C      1  0.2358244539082  0.5891315494137  0.3486231314604 1.0
C      1  0.1901920595835  0.6000620145267  0.6933227327517 1.0
C      1  0.1843323877233  0.3277969947115  0.5170173087523 1.0
C      1  0.5366389764988  0.6300025604579  0.7562740891220 1.0
C      1  0.4947279797449  0.1566606521328  0.4754423252572 1.0
C      1  0.5587758689605  0.6299990307136  0.2747692965293 1.0
C      1  0.5083019480756  0.3552525058758  0.5999149818293 1.0
C      1  0.5013994786250  0.4792947539329  0.3248294511311 1.0
C      1  0.4502518236358  0.6539378428875  0.6290569197786 1.0
C      1  0.3549187651781  0.8268516411448  0.7746451775632 1.0
C      1  0.3567827550939  0.1089541762011  0.6374523890892 1.0
C      1  0.3612483772593  0.5729793210777  0.0854306567598 1.0
END
