TITL C-30538-2259-24 -3.745 3375.00 -629.11835782 0 0 80 (C3) n - 1
REM
REM Run started: at 2020.12.28 07:23:24 in /rds/project/t2_vol4/rds-t2-cs072/BORA/CARBON/AIRSS/Generating-Clusters/Str-Search/Higher-Symm/C10-100
REM VASP from code version vasp.5.4.4.18Apr17-6-g9f103f2a35 (build Oct 11 2019 16:45:47) gamma-only
REM
REM
REM
REM
REM ./C.cell (f39ce9773e2efe3fa5bbdf770a4156b8)
REM AIRSS Version 0.9.1 bugfix July 2018 build 013d7b7c2542+ Fri, 06 Jul 2018 19:26:36 +0100
REM compiler GCC version 4.8.5 20150623 (Red Hat 4.8.5-39)
REM options -cpp -mtune=generic -march=x86-64 -g -O0
REM seed -1543891882 135945317 -783618244 -1871046493 1776930060 -39524474 1674488802 -1380297635 1868290441 2051811005 1451060399 -303535554
REM
REM C.POTCAR (d86ddea03c3ceb6dc662c8ad6801f873)
REM 
CELL 1.54180   15.00000   15.00000   15.00000   90.00000   90.00000   90.00000
LATT -1
SFAC C  
C      1  0.6621081620504  0.6920151410386  0.4295448293273 1.0
C      1  0.4821939684534  0.6920581908052  0.6766011439045 1.0
C      1  0.3573775182577  0.6920023081949  0.3965340188867 1.0
C      1  0.3437873050809  0.3037539632225  0.4232983822978 1.0
C      1  0.5114781014881  0.3037260770971  0.6753430246307 1.0
C      1  0.6460020766039  0.3036247864452  0.4042471469417 1.0
C      1  0.3283590052611  0.2875935151676  0.5751401609965 1.0
C      1  0.5223741555022  0.2869307081905  0.3154151263713 1.0
C      1  0.6499516237828  0.2866344815776  0.6124620841532 1.0
C      1  0.6676479600064  0.7110837549352  0.5795142151904 1.0
C      1  0.4843558748709  0.7109794239588  0.3164966643016 1.0
C      1  0.3488657694534  0.7109854638938  0.6071153779340 1.0
C      1  0.6702747805844  0.6318996484266  0.2664459359889 1.0
C      1  0.6204509091509  0.6311147586962  0.7634692517818 1.0
C      1  0.2130942823276  0.6314494407967  0.4725472099673 1.0
C      1  0.3039829735169  0.3602327553314  0.2563686215144 1.0
C      1  0.3881644754583  0.3606410115272  0.7949745872740 1.0
C      1  0.8103714732065  0.3604525266921  0.4537270783637 1.0
C      1  0.3330854857530  0.3611675661907  0.7284564199729 1.0
C      1  0.3889279375312  0.3609795732234  0.2412814038895 1.0
C      1  0.7815042936408  0.3611761691703  0.5349927145051 1.0
C      1  0.6993266080955  0.6381966461136  0.7309009500646 1.0
C      1  0.6013186518489  0.6380759293768  0.2162997467858 1.0
C      1  0.2031082065740  0.6377480210841  0.5572939801547 1.0
C      1  0.5243873264011  0.6274097636488  0.2695866674099 1.0
C      1  0.6885889329889  0.6275158954376  0.6374738797871 1.0
C      1  0.2883661997413  0.6273989148208  0.5961669090423 1.0
C      1  0.4750776409414  0.3662413450957  0.2701341531148 1.0
C      1  0.3141112021163  0.3662792956519  0.6395638488883 1.0
C      1  0.7128802477274  0.3663621991059  0.5946380330346 1.0
C      1  0.4661672789439  0.3717900970349  0.7411238021714 1.0
C      1  0.3100881229207  0.3715184367968  0.3507312180816 1.0
C      1  0.7259130242689  0.3714385496219  0.4111192969968 1.0
C      1  0.5320097697988  0.6251966058342  0.7408680699694 1.0
C      1  0.6934776483002  0.6252970846480  0.3546826588349 1.0
C      1  0.2769607046219  0.6252938038554  0.4074178763070 1.0
C      1  0.5043432449242  0.3867925426413  0.6112273007047 1.0
C      1  0.4029518862017  0.3869479943970  0.4491046894700 1.0
C      1  0.5943561078204  0.3867942745694  0.4422027088788 1.0
C      1  0.4937956212422  0.6096956433153  0.6113950195360 1.0
C      1  0.5997337120401  0.6094704910445  0.4514213208177 1.0
C      1  0.4078239583232  0.6095156070696  0.4395740168400 1.0
C      1  0.5041885812419  0.5871244508721  0.4110730882839 1.0
C      1  0.5762322678891  0.5871242585727  0.5488579242925 1.0
C      1  0.4208479584316  0.5871129556528  0.5424657836302 1.0
C      1  0.4987169064767  0.4099380735309  0.4113593224765 1.0
C      1  0.4239351093241  0.4100674093164  0.5473560128747 1.0
C      1  0.5789500285500  0.4098751061340  0.5439619015112 1.0
C      1  0.3449783186299  0.4507599542960  0.5950189676257 1.0
C      1  0.4973347011064  0.4507200082715  0.3193124890455 1.0
C      1  0.6591794188169  0.4508068818649  0.5890462731683 1.0
C      1  0.6549196514917  0.5444970753802  0.5956604253829 1.0
C      1  0.5051184731160  0.5443113395369  0.3195520826588 1.0
C      1  0.3412977846749  0.5443520460523  0.5879725335621 1.0
C      1  0.6665069282213  0.5449518772665  0.4034235336096 1.0
C      1  0.5025441811930  0.5450495648357  0.6929874931748 1.0
C      1  0.3328653467348  0.5449759884455  0.4062005703759 1.0
C      1  0.3345450879096  0.4501949492338  0.4024863461011 1.0
C      1  0.4984444815104  0.4502700841870  0.6935141807216 1.0
C      1  0.6689566155797  0.4500793182030  0.4066125425010 1.0
C      1  0.5836267072727  0.7582460961565  0.4533419780016 1.0
C      1  0.4997999929722  0.7583505089346  0.5965271867221 1.0
C      1  0.4176054450450  0.7581466480888  0.4524557206158 1.0
C      1  0.4194523542848  0.2375556423358  0.4497162254288 1.0
C      1  0.4959542860751  0.2375368687592  0.5963561427987 1.0
C      1  0.5850135130684  0.2372301665488  0.4566193227728 1.0
C      1  0.4143785420218  0.2382101421800  0.5473472299791 1.0
C      1  0.5028925418193  0.2380687993634  0.4037775102059 1.0
C      1  0.5829241993849  0.2379631195749  0.5516345730324 1.0
C      1  0.5830062816404  0.7577599047856  0.5503867846784 1.0
C      1  0.5019621455196  0.7576223780907  0.4043687029912 1.0
C      1  0.4159291045555  0.7576672285639  0.5476707388480 1.0
C      1  0.6128062698182  0.3006236827290  0.3125147733913 1.0
C      1  0.3957546367075  0.6938603099882  0.3058524357506 1.0
C      1  0.3844697149769  0.6936205599294  0.6888555554586 1.0
C      1  0.6074896084661  0.2999819652465  0.6923160889588 1.0
C      1  0.2810851970163  0.3019245679554  0.4980142517628 1.0
C      1  0.7212040293867  0.6932295495235  0.5083900000238 1.0
C      1  0.5005178270979  0.4544756873946  0.5008537923849 1.0
C      1  0.5004014341508  0.5427174264536  0.5008297701144 1.0
END
