TITL C-30580-1724-20 -7.474 3375.00 -1333.08820909 0 0 163 (Cs) n - 1
REM
REM Run started: at 2020.12.31 21:47:27 in /gpfs/home/chem/mssmkc/CARBON/AIRSS/Generating-Clusters/Str-Search/Higher-Symm/C100-200
REM VASP from code version vasp.5.4.4.18Apr17-6-g9f103f2a35 (build Oct 11 2019 16:45:47) gamma-only
REM
REM
REM
REM
REM ./C.cell (533062f00bc710175b3da973d35f2034)
REM AIRSS Version 0.9.1 bugfix July 2018 build 013d7b7c2542+ Fri, 06 Jul 2018 19:26:36 +0100
REM compiler GCC version 6.3.0
REM options -cpp -iprefix /gpfs/warwick/csc/orac/software/Core/GCCcore/6.3.0/bin/../lib/gcc/x86_64-pc-linux-gnu/6.3.0/ -mtune=generic -march=x86-64 -g -O0
REM seed 1856016284 1176038597 -185974787 -128511804 -777038949 740067239 -337559181 1710066357 1798954756 -1827754683 769765754 -197715075
REM
REM C.POTCAR (d86ddea03c3ceb6dc662c8ad6801f873)
REM 
CELL 1.54180   15.00000   15.00000   15.00000   90.00000   90.00000   90.00000
LATT -1
SFAC C  
C      1  0.5685731668227  0.7697617933850  0.7687551852811 1.0
C      1  0.5684839864268  0.2303386026868  0.7685973351164 1.0
C      1  0.3961086707969  0.3093002088882  0.3336630083153 1.0
C      1  0.3961032006014  0.6911805239355  0.3337930470925 1.0
C      1  0.1608456123270  0.3949149467748  0.4592424962578 1.0
C      1  0.1608765995746  0.6055831269627  0.4593332884539 1.0
C      1  0.2992341324176  0.4148510927985  0.5764250358909 1.0
C      1  0.2992573200678  0.5855005991018  0.5764661243443 1.0
C      1  0.4116379023928  0.5471205958479  0.0752477220961 1.0
C      1  0.4116009680683  0.4532726033592  0.0752042923815 1.0
C      1  0.4566161097628  0.8041484417041  0.5851308272782 1.0
C      1  0.4564661053080  0.1961268152726  0.5848983322250 1.0
C      1  0.5159292870971  0.5556623497098  0.8017247909771 1.0
C      1  0.5159006046334  0.4444193847126  0.8016913961528 1.0
C      1  0.8774429380122  0.5917465962033  0.5286384256920 1.0
C      1  0.8774256310205  0.4083878522493  0.5286094832194 1.0
C      1  0.7831973868550  0.6309662792428  0.3455395145348 1.0
C      1  0.7831789448224  0.3692541155727  0.3454670819538 1.0
C      1  0.5979641051310  0.1688936993838  0.4681912508624 1.0
C      1  0.5980812518902  0.8314197658947  0.4683647717974 1.0
C      1  0.1499791091161  0.4514288055312  0.5370683444328 1.0
C      1  0.1499873981786  0.5490096666342  0.5371148767716 1.0
C      1  0.6736117704039  0.3133149735720  0.2486448258523 1.0
C      1  0.6736475316049  0.6869576610613  0.2487300727237 1.0
C      1  0.3502435191022  0.3985870387558  0.3282036307793 1.0
C      1  0.3502260266505  0.6019424098857  0.3282441876875 1.0
C      1  0.6759725685205  0.2517062052097  0.6510594822940 1.0
C      1  0.6760288857526  0.7483815449557  0.6511886663437 1.0
C      1  0.4239717162113  0.3416642725728  0.4274714753712 1.0
C      1  0.4240172255597  0.6586804697463  0.4275457987599 1.0
C      1  0.2901928438110  0.8125212560175  0.5408276622721 1.0
C      1  0.2900693378853  0.1878237902124  0.5405911629816 1.0
C      1  0.4073211243482  0.2992229354285  0.7547615823758 1.0
C      1  0.4074031709479  0.7009158885782  0.7548932469869 1.0
C      1  0.2853606176135  0.4090928486362  0.2575050221023 1.0
C      1  0.2853620106435  0.5914345997218  0.2575266080809 1.0
C      1  0.8165684764037  0.2632601860381  0.5837235428609 1.0
C      1  0.8165977484720  0.7367985566035  0.5838522470811 1.0
C      1  0.4882174120356  0.7383519370074  0.7329480000685 1.0
C      1  0.4880997682887  0.2617268686818  0.7327906721098 1.0
C      1  0.7450010007854  0.4492689636455  0.3008792368184 1.0
C      1  0.7450121791671  0.5509732436421  0.3009061760644 1.0
C      1  0.8135828355685  0.6907468610087  0.4233940303938 1.0
C      1  0.8135378127182  0.3094809334740  0.4233064801233 1.0
C      1  0.9084218514387  0.5477025300465  0.6079203808453 1.0
C      1  0.9084014740242  0.4523989355901  0.6079018138441 1.0
C      1  0.3212457654815  0.7558051215021  0.3469284262565 1.0
C      1  0.3211984593105  0.2447200709823  0.3467460466185 1.0
C      1  0.5798575812870  0.1921507999748  0.1541801476430 1.0
C      1  0.5799185161235  0.8082140578917  0.1543768430578 1.0
C      1  0.2629914291046  0.5482670628101  0.7758450765225 1.0
C      1  0.2629838820285  0.4519221861353  0.7757918543193 1.0
C      1  0.7093503209199  0.4524060069018  0.7612168862615 1.0
C      1  0.7093664556450  0.5476213630221  0.7612509271123 1.0
C      1  0.2225676324784  0.6005918682029  0.7130810637338 1.0
C      1  0.2225055725056  0.3996911834192  0.7129970374255 1.0
C      1  0.7416960426263  0.2439976146952  0.4017438603410 1.0
C      1  0.7417421157608  0.7562278931972  0.4018300426190 1.0
C      1  0.4505734611875  0.5491276815090  0.7246699561663 1.0
C      1  0.4505698084604  0.4510164359002  0.7246189881692 1.0
C      1  0.6315984677765  0.6129327039565  0.4644124590235 1.0
C      1  0.6315917935802  0.3872943209524  0.4643686985682 1.0
C      1  0.4565006249854  0.1704262153769  0.3518184433644 1.0
C      1  0.4566431136529  0.8299337857157  0.3520217922873 1.0
C      1  0.2100446667427  0.2487536463206  0.5483224473372 1.0
C      1  0.2100934120141  0.7516675831400  0.5485511828824 1.0
C      1  0.2132786113748  0.5533899081210  0.6200742435562 1.0
C      1  0.2132493355588  0.4469650722342  0.6200323124925 1.0
C      1  0.7984547965970  0.5450528254973  0.4972602878988 1.0
C      1  0.7984532558099  0.4551070770258  0.4972780754792 1.0
C      1  0.4662481455826  0.7479154934624  0.2925938814782 1.0
C      1  0.4661953696469  0.2524868664014  0.2924530406418 1.0
C      1  0.4832853011634  0.3384681506827  0.4957125264400 1.0
C      1  0.4833251766537  0.6618777577900  0.4958064051757 1.0
C      1  0.3192780212149  0.4553785876246  0.4915318320456 1.0
C      1  0.3193273469438  0.5449936833652  0.4915655958315 1.0
C      1  0.2464155224795  0.2450892031736  0.4054278340287 1.0
C      1  0.2464672755158  0.7554052503362  0.4056291152016 1.0
C      1  0.6583364340757  0.4562462996926  0.5908899530351 1.0
C      1  0.6583404015162  0.5438823843586  0.5909073622290 1.0
C      1  0.3647414414241  0.8340248157578  0.3767955025488 1.0
C      1  0.3646045823018  0.1664138050281  0.3765520137711 1.0
C      1  0.1803355300994  0.7263861126776  0.6313486735244 1.0
C      1  0.1802434869190  0.2739981933792  0.6311141960466 1.0
C      1  0.7224921241711  0.2275358551522  0.5611017733710 1.0
C      1  0.7225536676559  0.7726167582040  0.5612322247685 1.0
C      1  0.3623548716927  0.7945832698776  0.6046149744872 1.0
C      1  0.3622344995329  0.2056902711747  0.6043943088870 1.0
C      1  0.6702355055781  0.4091943618660  0.2452896825337 1.0
C      1  0.6702554254385  0.5910962135922  0.2453407321521 1.0
C      1  0.3574480382071  0.6448213052278  0.6087953297534 1.0
C      1  0.3573962647791  0.3554690363172  0.6086979642080 1.0
C      1  0.2385280162828  0.3042877232524  0.6945827356994 1.0
C      1  0.2386151176620  0.6960186247415  0.6947843395059 1.0
C      1  0.7783979256977  0.6004034960454  0.7165039447681 1.0
C      1  0.7783766803659  0.3996403832563  0.7164577627415 1.0
C      1  0.4276018408472  0.5973867218447  0.1564551353341 1.0
C      1  0.4275646084949  0.4030062930244  0.1564054577724 1.0
C      1  0.6023769885392  0.4587327409112  0.4126437454301 1.0
C      1  0.6023973351330  0.5415231031725  0.4126469283579 1.0
C      1  0.3391878590775  0.2847926566859  0.6761422053732 1.0
C      1  0.3392829332205  0.7154331183432  0.6762934940468 1.0
C      1  0.2044685687337  0.5862069720140  0.2974776820500 1.0
C      1  0.2044660187807  0.4143713527509  0.2974297405581 1.0
C      1  0.5175718564944  0.1498036163867  0.4212340364366 1.0
C      1  0.5176902967342  0.8505482349486  0.4214480340059 1.0
C      1  0.8566061576033  0.6829510867134  0.5084044721091 1.0
C      1  0.8565537912090  0.3172045707594  0.5083151308070 1.0
C      1  0.4943495500661  0.4415691587012  0.6336826998587 1.0
C      1  0.4943509842402  0.5586504803341  0.6337306281030 1.0
C      1  0.5215173563094  0.2935078529952  0.2337735473625 1.0
C      1  0.5215464226025  0.7068590104945  0.2339063175102 1.0
C      1  0.5919184232141  0.3090393372624  0.6127408446752 1.0
C      1  0.5919827359224  0.6911222813143  0.6128554096241 1.0
C      1  0.5115701311854  0.8424363348961  0.5145777194765 1.0
C      1  0.5114264904486  0.1578506021044  0.5143667015333 1.0
C      1  0.5109313466770  0.6111866320370  0.2034024514999 1.0
C      1  0.5109230417313  0.3892118965662  0.2033028317857 1.0
C      1  0.4519222662285  0.3601860859513  0.5871754167011 1.0
C      1  0.4519705939557  0.6400569484755  0.5872446904366 1.0
C      1  0.3132358292050  0.5481154902254  0.0917271990332 1.0
C      1  0.3131968434489  0.4523119665345  0.0916987593105 1.0
C      1  0.1702270505462  0.4489052347330  0.3758646104656 1.0
C      1  0.1702439903377  0.5516544545742  0.3759103218358 1.0
C      1  0.5919507274479  0.5902767859830  0.6488675547567 1.0
C      1  0.5919345618364  0.4098450039241  0.6488178426241 1.0
C      1  0.5003600016329  0.7282711147137  0.6335907716840 1.0
C      1  0.5002515998991  0.2719609414697  0.6334336325591 1.0
C      1  0.5871219798395  0.4503196265760  0.2115954240478 1.0
C      1  0.5871349182382  0.5500599070676  0.2116352774245 1.0
C      1  0.8527532412379  0.5484401644678  0.6924753551215 1.0
C      1  0.8527498834082  0.4516053677420  0.6924599793334 1.0
C      1  0.6883214508564  0.8008360835842  0.4706746545106 1.0
C      1  0.6882543205232  0.1993577299232  0.4705479497658 1.0
C      1  0.7383331106587  0.6740812063222  0.5669479657739 1.0
C      1  0.7383058389998  0.3260406933760  0.5668685927455 1.0
C      1  0.7290436633666  0.7089091194383  0.3187029929365 1.0
C      1  0.7290105681890  0.2913159816195  0.3186140911235 1.0
C      1  0.4178475517461  0.6105357515871  0.7986886542095 1.0
C      1  0.4177946351326  0.3895795672016  0.7985872475326 1.0
C      1  0.3383061229497  0.5662509097227  0.8402942010855 1.0
C      1  0.3382622401026  0.4338430911987  0.8402163693969 1.0
C      1  0.7594958301777  0.3160566928952  0.6617511746971 1.0
C      1  0.7595329910234  0.6840239888902  0.6618466523436 1.0
C      1  0.7124595938354  0.4068624387838  0.5215810776667 1.0
C      1  0.7124618747413  0.5932849445175  0.5216175466543 1.0
C      1  0.3556624562694  0.5933971316282  0.4201039206300 1.0
C      1  0.3556365581732  0.4069865866856  0.4200778654103 1.0
C      1  0.6389588226781  0.2055508039314  0.7307604913608 1.0
C      1  0.6390580395290  0.7945495915281  0.7309038467565 1.0
C      1  0.6100576619598  0.7441993670016  0.2059108332045 1.0
C      1  0.6100154407675  0.2561102528811  0.2057807245231 1.0
C      1  0.5769317007520  0.6723099608087  0.5097796886598 1.0
C      1  0.5768765496520  0.3279145231931  0.5096718828794 1.0
C      1  0.1952266799198  0.2998189659061  0.4655421125283 1.0
C      1  0.1952651207278  0.7006559345526  0.4657213696578 1.0
C      1  0.6082085040198  0.5552472738426  0.7464679676803 1.0
C      1  0.6081918979668  0.4448101992782  0.7464458367272 1.0
C      1  0.3287448187497  0.3992037945775  0.1715434937494 1.0
C      1  0.3287736712718  0.6012622977802  0.1715633188679 1.0
C      1  0.2966937022621  0.8309907399479  0.4495709895832 1.0
C      1  0.2965871411267  0.1694354151421  0.4493252617710 1.0
C      1  0.3600809844534  0.4999906526915  0.9041907365668 1.0
END
