TITL C-30580-1724-13 -7.318 3375.00 -1285.44872932 0 0 154 (C1) n - 1
REM
REM Run started: at 2020.12.31 16:55:11 in /gpfs/home/chem/mssmkc/CARBON/AIRSS/Generating-Clusters/Str-Search/Higher-Symm/C100-200
REM VASP from code version vasp.5.4.4.18Apr17-6-g9f103f2a35 (build Oct 11 2019 16:45:47) gamma-only
REM
REM
REM
REM
REM ./C.cell (533062f00bc710175b3da973d35f2034)
REM AIRSS Version 0.9.1 bugfix July 2018 build 013d7b7c2542+ Fri, 06 Jul 2018 19:26:36 +0100
REM compiler GCC version 6.3.0
REM options -cpp -iprefix /gpfs/warwick/csc/orac/software/Core/GCCcore/6.3.0/bin/../lib/gcc/x86_64-pc-linux-gnu/6.3.0/ -mtune=generic -march=x86-64 -g -O0
REM seed 1453057632 16862942 47387860 89335473 1383092924 2104397532 -891758673 -693293301 1288200162 30707050 413321330 -917095586
REM
REM C.POTCAR (d86ddea03c3ceb6dc662c8ad6801f873)
REM 
CELL 1.54180   15.00000   15.00000   15.00000   90.00000   90.00000   90.00000
LATT -1
SFAC C  
C      1  0.8442061362304  0.4145826849789  0.6122408264645 1.0
C      1  0.8250157920966  0.5048807182774  0.6432359997248 1.0
C      1  0.8167259541051  0.5939527961822  0.6151038743281 1.0
C      1  0.8028011693825  0.6379735894244  0.5286272211514 1.0
C      1  0.7961742310343  0.6031900329756  0.4382471496957 1.0
C      1  0.8153973040163  0.5302627829208  0.3748243453937 1.0
C      1  0.8069438859459  0.4311078578516  0.3749692942891 1.0
C      1  0.8208267202104  0.3616691912525  0.4369311213852 1.0
C      1  0.8370400712514  0.3574471669299  0.5332696938844 1.0
C      1  0.3274979238610  0.7825552757680  0.2995448552335 1.0
C      1  0.3406093393576  0.5840123970940  0.1977223172823 1.0
C      1  0.3326779535530  0.3563045339576  0.1899538225985 1.0
C      1  0.3287676974121  0.2176600952221  0.3664081643390 1.0
C      1  0.3294440343150  0.1718127669646  0.5912221718218 1.0
C      1  0.3360295974941  0.3118934496900  0.7638238483333 1.0
C      1  0.3406846092239  0.5393949972208  0.8274677016317 1.0
C      1  0.3133066609421  0.7456227165622  0.7359414019422 1.0
C      1  0.3288078152849  0.8211655219995  0.5253049612220 1.0
C      1  0.2072662033879  0.6047009289342  0.7042799845735 1.0
C      1  0.2037386819700  0.7294053567085  0.5621245797741 1.0
C      1  0.2057104544274  0.7019745464015  0.3747201895471 1.0
C      1  0.2137159618038  0.6349611531475  0.3054099581592 1.0
C      1  0.2132922265130  0.4196987444278  0.2811022815569 1.0
C      1  0.2089254544763  0.3383384737582  0.3321973246036 1.0
C      1  0.2118644881588  0.2733321456844  0.5459793521535 1.0
C      1  0.2141117149749  0.3142178576110  0.6336765781955 1.0
C      1  0.2142641732085  0.5107502279258  0.7202211844125 1.0
C      1  0.6629117188357  0.6167172320123  0.2084960204168 1.0
C      1  0.6511982858194  0.3584125746787  0.1611646015703 1.0
C      1  0.6283319008205  0.1579474137252  0.3393819964656 1.0
C      1  0.6604994908416  0.1801115639704  0.5094482818381 1.0
C      1  0.6463254199801  0.3044178483018  0.7762400907669 1.0
C      1  0.6544368626830  0.5482200256635  0.8277469763156 1.0
C      1  0.6421032825266  0.7393737086469  0.7491106968157 1.0
C      1  0.6366106439389  0.8415087164575  0.5174279347694 1.0
C      1  0.6416932573802  0.8080505214117  0.3504636261168 1.0
C      1  0.7969396872237  0.5612037588293  0.2891125807376 1.0
C      1  0.7320769647758  0.3985846229339  0.3069968740496 1.0
C      1  0.6993530635691  0.3050103947036  0.3458252673369 1.0
C      1  0.7816555187954  0.2847287017850  0.5611858518579 1.0
C      1  0.7284139889408  0.3135150391643  0.6378119884945 1.0
C      1  0.7522319489540  0.4637817191426  0.7089838017326 1.0
C      1  0.6773729227347  0.6200876698952  0.6866120903263 1.0
C      1  0.7432888909222  0.7139540589174  0.5161193749440 1.0
C      1  0.7209010396095  0.6742986562217  0.4199621852228 1.0
C      1  0.3149921348781  0.8027091062781  0.6655407201915 1.0
C      1  0.3275217006109  0.8131885689160  0.4357054551667 1.0
C      1  0.3330554333338  0.7199556034903  0.2327253706636 1.0
C      1  0.3403465595599  0.4957208200076  0.1863178466618 1.0
C      1  0.3280017264123  0.2789543661717  0.2400233646227 1.0
C      1  0.3308009544645  0.1928213018490  0.4523948694822 1.0
C      1  0.3313594891439  0.2058991297423  0.6750060305343 1.0
C      1  0.3409751650128  0.3997570719617  0.7974071384354 1.0
C      1  0.3306085264155  0.6297599665431  0.8115820792350 1.0
C      1  0.6297693261451  0.1374827491099  0.4340264626554 1.0
C      1  0.6626774127377  0.2651394752777  0.6940825637283 1.0
C      1  0.6521673246003  0.3918880285469  0.8170499318845 1.0
C      1  0.6407588186273  0.6424121912338  0.7816318663172 1.0
C      1  0.6472527069271  0.7813588302311  0.6577802020719 1.0
C      1  0.6303935446074  0.8593842619805  0.4247346627552 1.0
C      1  0.6516811358701  0.6959285544978  0.2566425586139 1.0
C      1  0.6597057624642  0.4515305678438  0.1481747733663 1.0
C      1  0.6464900264616  0.2356047893793  0.2932623383440 1.0
C      1  0.1845398398656  0.3603308990478  0.5030659233078 1.0
C      1  0.1867735096202  0.4014388982353  0.5939297083743 1.0
C      1  0.1847418814448  0.4865409502648  0.6307656144802 1.0
C      1  0.1745073531063  0.5840572553272  0.6101491820082 1.0
C      1  0.1733394726405  0.6443712388986  0.5367691943085 1.0
C      1  0.1736205643533  0.6347609248184  0.4397508742656 1.0
C      1  0.1841648210852  0.5639679511022  0.3711599960365 1.0
C      1  0.1855438248579  0.4729429379427  0.3609623319137 1.0
C      1  0.1834916116170  0.3875165403192  0.4153795748865 1.0
C      1  0.4249971951747  0.5769682211324  0.6240302078515 1.0
C      1  0.4330979906105  0.6347118203943  0.5422584084733 1.0
C      1  0.4355555559230  0.6314364914233  0.4527679582403 1.0
C      1  0.4380626635033  0.5644922643040  0.3802658723114 1.0
C      1  0.4368631560612  0.4759240204859  0.3686060915211 1.0
C      1  0.4326316541397  0.3948085117446  0.4229976855372 1.0
C      1  0.4302946591802  0.3719861736839  0.5086270312310 1.0
C      1  0.4264825949040  0.4079701986454  0.6018030834468 1.0
C      1  0.4126615543196  0.4877474549066  0.6489918196298 1.0
C      1  0.5125757879074  0.6615221397064  0.1961236428271 1.0
C      1  0.5107104602326  0.4166019861046  0.1634581574203 1.0
C      1  0.4898281595234  0.2081620241352  0.2848309654612 1.0
C      1  0.5007991105927  0.1544149142919  0.5189026771313 1.0
C      1  0.5086382271495  0.2455695610849  0.7337861670285 1.0
C      1  0.5065991466478  0.4645233959382  0.8539036029842 1.0
C      1  0.4910596552229  0.7072994037726  0.7958083125569 1.0
C      1  0.4936781048264  0.8445652431683  0.6054398532627 1.0
C      1  0.4886806272165  0.8450846718813  0.3594858473041 1.0
C      1  0.2714527220678  0.6444882958661  0.2330099502410 1.0
C      1  0.2713550942245  0.4282596087475  0.2066260418986 1.0
C      1  0.2632946049426  0.2652234837749  0.3100656887683 1.0
C      1  0.2644890137897  0.1994331838272  0.5245068137658 1.0
C      1  0.2702859027135  0.2770448769069  0.7031587894212 1.0
C      1  0.2798425655721  0.4768469264553  0.7815137964388 1.0
C      1  0.2592792103757  0.6656752012583  0.7562951022400 1.0
C      1  0.2549473039022  0.7965842663099  0.5866154684881 1.0
C      1  0.2620912599460  0.7786912960971  0.3714231439430 1.0
C      1  0.5296560182250  0.1449413646648  0.3411152093739 1.0
C      1  0.5793115374159  0.1833096650639  0.5742948503756 1.0
C      1  0.5515428085263  0.2962445900399  0.7989377782271 1.0
C      1  0.5588139929161  0.5448016734295  0.8491656354057 1.0
C      1  0.5494948861997  0.7694974977956  0.7556851453312 1.0
C      1  0.5429970910527  0.8688298272705  0.5289383488766 1.0
C      1  0.5560479619385  0.8064240892211  0.3000609560175 1.0
C      1  0.5742002013943  0.5887948062018  0.1747603469785 1.0
C      1  0.5622939867997  0.3333838292512  0.1823874306596 1.0
C      1  0.4315234455335  0.6379239995829  0.3173047656680 1.0
C      1  0.4311376419225  0.4184400939100  0.2904671180929 1.0
C      1  0.4277485282626  0.3417987871270  0.3405069283310 1.0
C      1  0.4253849212651  0.2833694183179  0.5466894887825 1.0
C      1  0.4255992076019  0.3175871210032  0.6329561802498 1.0
C      1  0.3793998245558  0.4749069967610  0.7393767500402 1.0
C      1  0.4183985951978  0.6565316005201  0.6769459090697 1.0
C      1  0.4223897682359  0.7110406168302  0.6012425106834 1.0
C      1  0.4287945814871  0.7012797039831  0.3836618741332 1.0
C      1  0.5811311785194  0.2207412763613  0.6635021108625 1.0
C      1  0.5579256895358  0.3864999998536  0.8420463173332 1.0
C      1  0.5465135000351  0.6337331441518  0.8164173764901 1.0
C      1  0.5547229334825  0.8157859140470  0.6715539542408 1.0
C      1  0.5338732776806  0.8813256080083  0.4329167268740 1.0
C      1  0.5630546277998  0.7334662341739  0.2394715094439 1.0
C      1  0.5722061777559  0.4932346970122  0.1535479443430 1.0
C      1  0.5610602585843  0.2586925154551  0.2439971200563 1.0
C      1  0.5336747246550  0.1258149235616  0.4357244432519 1.0
C      1  0.4023360981514  0.2505699990142  0.3040007755573 1.0
C      1  0.4058414582664  0.1878534969351  0.5246960827135 1.0
C      1  0.4100050933868  0.2605960424564  0.7136863778529 1.0
C      1  0.4099091308023  0.4666775591568  0.8369330498034 1.0
C      1  0.3957901107602  0.6923728681101  0.7692283152234 1.0
C      1  0.3977160352245  0.8086342527640  0.6000497037275 1.0
C      1  0.4015615150236  0.7981115793468  0.3683710512568 1.0
C      1  0.4132128593815  0.6527733893864  0.2198566074255 1.0
C      1  0.4130679175763  0.4236517236694  0.1926859062284 1.0
C      1  0.7655891415223  0.2810552144745  0.4151304137225 1.0
C      1  0.7411802586398  0.2336348125219  0.4943420359451 1.0
C      1  0.7926284777299  0.3758246449318  0.6822520631347 1.0
C      1  0.6999830600375  0.4726546101519  0.7965751768642 1.0
C      1  0.7629865906404  0.6419320495594  0.6750676178580 1.0
C      1  0.6856799718689  0.7758294845466  0.5681791533040 1.0
C      1  0.6905454626549  0.7273698487654  0.3370236171303 1.0
C      1  0.7444577999536  0.5778472431161  0.2267279464915 1.0
C      1  0.7158203448345  0.4036108235951  0.2088162136062 1.0
C      1  0.6742110392888  0.4677727260605  0.6419198915167 1.0
C      1  0.6407463531080  0.5555823163565  0.6235742087467 1.0
C      1  0.6185747382788  0.5655209908834  0.5324535586356 1.0
C      1  0.6517348217399  0.6028870036095  0.4431266943507 1.0
C      1  0.6263038138542  0.5204335995572  0.3988489157412 1.0
C      1  0.6507957819810  0.4427202652998  0.3527477865507 1.0
C      1  0.6382702740303  0.3655930926424  0.4069687581138 1.0
C      1  0.6285178457115  0.3962419891912  0.5017155711048 1.0
C      1  0.6673626128334  0.3884044086376  0.5896485499542 1.0
C      1  0.6017862756193  0.4854981202658  0.4863029710390 1.0
END
