TITL C-30544-8579-26 -4.126 3375.00 -717.46972140 0 0 86 (C1) n - 1
REM
REM Run started: at 2020.12.28 10:03:19 in /rds/project/t2_vol4/rds-t2-cs072/BORA/CARBON/AIRSS/Generating-Clusters/Str-Search/Higher-Symm/C10-100
REM VASP from code version vasp.5.4.4.18Apr17-6-g9f103f2a35 (build Oct 11 2019 16:45:47) gamma-only
REM
REM
REM
REM
REM ./C.cell (f39ce9773e2efe3fa5bbdf770a4156b8)
REM AIRSS Version 0.9.1 bugfix July 2018 build 013d7b7c2542+ Fri, 06 Jul 2018 19:26:36 +0100
REM compiler GCC version 4.8.5 20150623 (Red Hat 4.8.5-39)
REM options -cpp -mtune=generic -march=x86-64 -g -O0
REM seed 1445625954 -691991920 -884549496 565938229 -371061435 1062300997 -808685447 875734038 2036375569 -1115327724 382618882 864683524
REM
REM C.POTCAR (d86ddea03c3ceb6dc662c8ad6801f873)
REM 
CELL 1.54180   15.00000   15.00000   15.00000   90.00000   90.00000   90.00000
LATT -1
SFAC C  
C      1  0.6397572911650  0.5182228846162  0.4878686498207 1.0
C      1  0.4416267266546  0.5520107050329  0.4210393115795 1.0
C      1  0.4668554226721  0.5593326568333  0.6087054259151 1.0
C      1  0.4375868315542  0.3700384013142  0.4451392661423 1.0
C      1  0.4129632118243  0.3943153806788  0.6006616590628 1.0
C      1  0.5933815723185  0.3619977215238  0.4701744749141 1.0
C      1  0.7420609627876  0.5046182147494  0.4915293909343 1.0
C      1  0.4147458608205  0.5896865719220  0.3355848002567 1.0
C      1  0.4038775586101  0.6034836427662  0.6614462748740 1.0
C      1  0.6642289112207  0.6087338449195  0.2275394895727 1.0
C      1  0.1990968193100  0.5807127523314  0.4802385614517 1.0
C      1  0.6390352934573  0.5948743955521  0.7809119829094 1.0
C      1  0.5391376275770  0.2657455527926  0.6071923190956 1.0
C      1  0.5220816911956  0.2855625432500  0.3424126332720 1.0
C      1  0.4040945155683  0.3255686710208  0.5308098783112 1.0
C      1  0.3733221323635  0.3611366747466  0.6845098789299 1.0
C      1  0.6859253209905  0.3421745909604  0.4929896262898 1.0
C      1  0.4367208962963  0.3114517093724  0.3027299723198 1.0
C      1  0.5753780509310  0.4342025697917  0.7813795179824 1.0
C      1  0.6943049729151  0.4378515725877  0.2687527769381 1.0
C      1  0.2354458850819  0.4150109616698  0.4390372727568 1.0
C      1  0.3373057570150  0.4360003420807  0.3213539191491 1.0
C      1  0.4231682747837  0.4663815245459  0.7940901321000 1.0
C      1  0.7646977913583  0.4618503203501  0.4051375191605 1.0
C      1  0.4336429769007  0.7444061057430  0.5834326936751 1.0
C      1  0.5937424297126  0.7457762110686  0.5074337286778 1.0
C      1  0.4560900966842  0.7171973303278  0.4244342025081 1.0
C      1  0.4716352860406  0.4651483171060  0.4680657691129 1.0
C      1  0.4492329051229  0.4725944305269  0.5703831249844 1.0
C      1  0.5730045580646  0.4510562884169  0.4721972124707 1.0
C      1  0.7435210956535  0.5024160976697  0.3210481859542 1.0
C      1  0.2657791439080  0.4778888272090  0.3720716253054 1.0
C      1  0.5129152967833  0.5020761411613  0.8131075052196 1.0
C      1  0.4014174429501  0.4553343253990  0.2535713470141 1.0
C      1  0.3469094866563  0.5092022487495  0.7645655356405 1.0
C      1  0.7651763021591  0.4473534988978  0.5703840259311 1.0
C      1  0.2839549069354  0.3592844546104  0.6702691087644 1.0
C      1  0.7109337786410  0.3705725647404  0.5815088240642 1.0
C      1  0.4588361659607  0.3794530493348  0.2396822128886 1.0
C      1  0.7271997086372  0.3716301422018  0.4068154362405 1.0
C      1  0.3671212114193  0.3520898388580  0.3686572083574 1.0
C      1  0.4355057514881  0.3767161596237  0.7563232619377 1.0
C      1  0.3038933082483  0.7029562453130  0.5040473284120 1.0
C      1  0.5940400221674  0.7018506169574  0.6667531066477 1.0
C      1  0.5871689757881  0.7078549355565  0.3348847489167 1.0
C      1  0.5552686052389  0.3837192547096  0.2274556365498 1.0
C      1  0.2529249686809  0.3617163608525  0.5831551447811 1.0
C      1  0.6554400292558  0.3716027642338  0.6613010144937 1.0
C      1  0.5315376687976  0.7210585177910  0.5859303800205 1.0
C      1  0.5549715423051  0.7410332261014  0.4224550381743 1.0
C      1  0.3923728375204  0.7449108672863  0.4974726997634 1.0
C      1  0.6673094542180  0.6842046108684  0.5292636816346 1.0
C      1  0.4316158507673  0.6850707055366  0.3330986749701 1.0
C      1  0.3763247480990  0.6926512303025  0.6394958371657 1.0
C      1  0.6814056345111  0.3584701695297  0.3207367883664 1.0
C      1  0.2869665595514  0.3326215501753  0.4309550209396 1.0
C      1  0.5272479598116  0.3572428344387  0.7496112452221 1.0
C      1  0.5210506902260  0.6201989649515  0.5495509026976 1.0
C      1  0.6159131770896  0.5999619160576  0.5153765962965 1.0
C      1  0.4705617477212  0.6251073562604  0.4672358974150 1.0
C      1  0.2370244962110  0.5660194144450  0.3969909746210 1.0
C      1  0.5506518311987  0.5878949173660  0.8092918114574 1.0
C      1  0.7260009607824  0.5916394178086  0.2952316902110 1.0
C      1  0.5770495511665  0.3162699502467  0.6755002523482 1.0
C      1  0.5948775513076  0.3228745937659  0.2935095864563 1.0
C      1  0.3067331747630  0.3070165160261  0.5175445515287 1.0
C      1  0.7247871693793  0.5875545563154  0.6502213845075 1.0
C      1  0.5099219419792  0.5922637129399  0.2246389387123 1.0
C      1  0.2550951327488  0.5849106957219  0.6251622518041 1.0
C      1  0.6661752726171  0.6680668646747  0.3006467145547 1.0
C      1  0.2520132005332  0.6498699940491  0.4463442038851 1.0
C      1  0.5816013136918  0.6622470944350  0.7504338539461 1.0
C      1  0.4327529938124  0.5449813421424  0.2521689446488 1.0
C      1  0.3219271614759  0.5544966928431  0.6923931826401 1.0
C      1  0.7715950788889  0.5362565195028  0.5844432100745 1.0
C      1  0.6542905401382  0.4465316570118  0.7276950049433 1.0
C      1  0.6135584481093  0.4579396801692  0.2160750996481 1.0
C      1  0.2151570945185  0.4351598058400  0.5334503889892 1.0
C      1  0.5110081695972  0.6777291673867  0.2821345927302 1.0
C      1  0.2919280976411  0.6713424709616  0.5956178693369 1.0
C      1  0.6762014401481  0.6692315272265  0.6248924678519 1.0
C      1  0.2088915558107  0.5296531732915  0.5596917628145 1.0
C      1  0.6895331121582  0.5374371965300  0.7257681192049 1.0
C      1  0.5934008490845  0.5520166045252  0.2008070636767 1.0
C      1  0.5191944331515  0.3052976899026  0.4398372711070 1.0
C      1  0.4899101269008  0.2627676808973  0.5349323233493 1.0
END
