TITL C-30446-5047-5 -5.421 3375.00 -914.93592452 0 0 113 (C2) n - 1
REM
REM Run started: at 2020.12.20 15:54:30 in /gpfs/home/chem/mssmkc/CARBON/AIRSS/Generating-Clusters/Str-Search/Higher-Symm/C100-200
REM VASP from code version vasp.5.4.4.18Apr17-6-g9f103f2a35 (build Oct 11 2019 16:45:47) gamma-only
REM
REM
REM
REM
REM ./C.cell (533062f00bc710175b3da973d35f2034)
REM AIRSS Version 0.9.1 bugfix July 2018 build 013d7b7c2542+ Fri, 06 Jul 2018 19:26:36 +0100
REM compiler GCC version 6.3.0
REM options -cpp -iprefix /gpfs/warwick/csc/orac/software/Core/GCCcore/6.3.0/bin/../lib/gcc/x86_64-pc-linux-gnu/6.3.0/ -mtune=generic -march=x86-64 -g -O0
REM seed -919135698 32749359 54856278 1453300991 -899424126 -1266197366 -2078050989 -131084502 -538124649 1776064237 1719176335 -596830806
REM
REM C.POTCAR (d86ddea03c3ceb6dc662c8ad6801f873)
REM 
CELL 1.54180   15.00000   15.00000   15.00000   90.00000   90.00000   90.00000
LATT -1
SFAC C  
C      1  0.4252852257590  0.6864182344751  0.6710289886905 1.0
C      1  0.5753329290819  0.3127752558090  0.6712501116756 1.0
C      1  0.5670048693787  0.6779935349503  0.3343735582370 1.0
C      1  0.4338259079687  0.3213163317215  0.3343274402875 1.0
C      1  0.6296637567361  0.7262897220442  0.3959956847160 1.0
C      1  0.3711165563098  0.2728909360665  0.3958099967900 1.0
C      1  0.3615514801100  0.7368502080156  0.6088956760268 1.0
C      1  0.6393571178903  0.2624152409977  0.6091732115522 1.0
C      1  0.4898963192827  0.8422392998747  0.5512537128943 1.0
C      1  0.5109667936886  0.1572593023657  0.5512635648964 1.0
C      1  0.5065056376829  0.8407452685249  0.4547717557361 1.0
C      1  0.4944949595459  0.1588897313679  0.4547728901557 1.0
C      1  0.7392411186917  0.2654777528426  0.2662449038783 1.0
C      1  0.2619546418340  0.7341564471302  0.2664770042891 1.0
C      1  0.2679995749841  0.2676892989276  0.7299916434942 1.0
C      1  0.7324097819061  0.7315903150636  0.7301498800167 1.0
C      1  0.2907721604913  0.3584322567495  0.7064897562165 1.0
C      1  0.7097100206046  0.6408433451969  0.7066396693345 1.0
C      1  0.7127507824844  0.3560279559226  0.2888527145604 1.0
C      1  0.2879934707603  0.6434261913907  0.2886938684329 1.0
C      1  0.3490516690394  0.4565540668114  0.5795196553957 1.0
C      1  0.6514908173568  0.5426697661252  0.5797323796304 1.0
C      1  0.6425965466498  0.4403141586015  0.4237597532783 1.0
C      1  0.3580218601018  0.5587825558853  0.4234362491964 1.0
C      1  0.7652615518809  0.6542690072723  0.4837208404292 1.0
C      1  0.2352870865666  0.3448828142340  0.4835541305239 1.0
C      1  0.2289531050849  0.6643502025241  0.5142288945197 1.0
C      1  0.7722016195421  0.3347409876938  0.5143259491123 1.0
C      1  0.3862009341004  0.4437990888989  0.2409280538236 1.0
C      1  0.6145153698231  0.5555387643602  0.2409492112972 1.0
C      1  0.6086183695818  0.4462019907515  0.7576967087138 1.0
C      1  0.3917595729816  0.5530213681807  0.7574660490954 1.0
C      1  0.8313550353519  0.5456155418703  0.3877199089206 1.0
C      1  0.1693079284159  0.4537157080629  0.3875312658027 1.0
C      1  0.1554702259203  0.5532381645806  0.6042742528303 1.0
C      1  0.8452924471250  0.4459451885980  0.6043394661108 1.0
C      1  0.6369575831955  0.2122708221300  0.4777962486660 1.0
C      1  0.3640505333216  0.7871197876234  0.4775500137030 1.0
C      1  0.3731912516208  0.2250926936073  0.5283067692404 1.0
C      1  0.6273834629998  0.7739053069179  0.5284899409057 1.0
C      1  0.1830168202995  0.6308768587517  0.5884985692092 1.0
C      1  0.8182970243049  0.3681192591183  0.5885553284039 1.0
C      1  0.8020906064880  0.6227290330737  0.4038166530875 1.0
C      1  0.1985461950246  0.3766124956424  0.4036962121986 1.0
C      1  0.5126551132540  0.6973789767748  0.7106715427357 1.0
C      1  0.4878375433361  0.3018081258915  0.7106432006494 1.0
C      1  0.4784604685085  0.6999175035227  0.2976080837556 1.0
C      1  0.5224697181473  0.2995486966700  0.2977288745212 1.0
C      1  0.4288960422325  0.8093770260580  0.4099084136588 1.0
C      1  0.5721763425362  0.1901576025999  0.4100373731040 1.0
C      1  0.5640519103089  0.8031736996907  0.5956235568175 1.0
C      1  0.4366044279780  0.1959665876858  0.5955282966019 1.0
C      1  0.3441934304250  0.2781469715315  0.3012082074976 1.0
C      1  0.6567688514390  0.7209958666631  0.3014493659012 1.0
C      1  0.6721301521645  0.2995929866083  0.6958718140410 1.0
C      1  0.3283884642627  0.6995966510713  0.6954636739977 1.0
C      1  0.5824761851841  0.5799271466835  0.3321030402062 1.0
C      1  0.4182553880652  0.4193850171242  0.3320940833061 1.0
C      1  0.3701045775147  0.6043807596294  0.6758708845214 1.0
C      1  0.6305478353727  0.3947886773626  0.6761834327559 1.0
C      1  0.6342264087136  0.4464437401808  0.5902867539355 1.0
C      1  0.3664437763029  0.5527032358553  0.5900600879206 1.0
C      1  0.4087419456817  0.4689941036582  0.4217404697468 1.0
C      1  0.5915533308348  0.5301903586931  0.4218059870789 1.0
C      1  0.3992249400764  0.8135282347105  0.5620986239518 1.0
C      1  0.6016752151728  0.1858252874259  0.5622661922678 1.0
C      1  0.5924435354520  0.8017808482860  0.4457879575286 1.0
C      1  0.4083609689734  0.1974325082189  0.4456458866713 1.0
C      1  0.1604649442349  0.4824566952488  0.5421375122192 1.0
C      1  0.8402430619232  0.5167918050027  0.5422887252126 1.0
C      1  0.8356109934452  0.4763833630620  0.4508961985536 1.0
C      1  0.1652029448219  0.5228614511086  0.4508107941672 1.0
C      1  0.6345518350792  0.3960756782733  0.5080889909738 1.0
C      1  0.3665186015525  0.6031408909248  0.5077957063768 1.0
C      1  0.3722039006755  0.4106278674273  0.5014241990437 1.0
C      1  0.6284033659605  0.5884755764251  0.5016281917693 1.0
C      1  0.3430895165780  0.2316975421208  0.7185416902798 1.0
C      1  0.6573207585194  0.7676274593986  0.7188704971563 1.0
C      1  0.6653425074899  0.2294498847797  0.2859837373628 1.0
C      1  0.3358249955126  0.7703865992309  0.2857033645714 1.0
C      1  0.6675785323625  0.6846222830682  0.4850502839798 1.0
C      1  0.3329745121371  0.3144619091437  0.4848803081294 1.0
C      1  0.3257807965476  0.6983428589856  0.5185394591503 1.0
C      1  0.6753276861050  0.3009179912625  0.5188273333550 1.0
C      1  0.5705257553270  0.7685510348233  0.6860863029393 1.0
C      1  0.4299509530846  0.2306940903364  0.6859106383710 1.0
C      1  0.4219714620160  0.7724122525889  0.3208019873459 1.0
C      1  0.5791393303040  0.2271841531438  0.3209693717806 1.0
C      1  0.4476463702116  0.6210299845307  0.2519510818188 1.0
C      1  0.5531762545026  0.3784947756248  0.2520965823525 1.0
C      1  0.5456451708302  0.6181990478708  0.7572217170344 1.0
C      1  0.4547534382705  0.3809676828235  0.7572161230076 1.0
C      1  0.6386562109042  0.5983231106134  0.7609396417128 1.0
C      1  0.3617578293359  0.4008930980105  0.7608458706084 1.0
C      1  0.3569043468555  0.5999449565539  0.2340686475768 1.0
C      1  0.6439093188960  0.3996031555485  0.2342040920771 1.0
C      1  0.4864656098451  0.4506267654016  0.2578783761284 1.0
C      1  0.5142509702882  0.5488000822450  0.2578208126591 1.0
C      1  0.5152418850514  0.4538602262898  0.7785838750841 1.0
C      1  0.4850927248612  0.5453497383850  0.7784862670502 1.0
C      1  0.2050292037675  0.3975714671996  0.5573196383108 1.0
C      1  0.7955194230420  0.6015667612663  0.5574766386244 1.0
C      1  0.7917155219401  0.3903986025820  0.4396116924078 1.0
C      1  0.2091711870165  0.6088154732809  0.4395243977174 1.0
C      1  0.7258379536288  0.5929928907687  0.6291550196318 1.0
C      1  0.2747242286852  0.4062583275602  0.6289748507084 1.0
C      1  0.2816961399162  0.6002943958077  0.3710138122567 1.0
C      1  0.7189419335764  0.3989684868435  0.3713250692882 1.0
C      1  0.3369205007182  0.5108589849346  0.2187615581035 1.0
C      1  0.6640165843266  0.4886476464578  0.2187682924741 1.0
C      1  0.6673300293686  0.5119055255027  0.7778217517306 1.0
C      1  0.3330382725567  0.4873241503593  0.7775925961682 1.0
C      1  0.4997027440233  0.5008741038361  0.4583973635819 1.0
END
