TITL C-30580-1724-54 -7.246 3375.00 -1274.64401447 0 0 154 (C1) n - 1
REM
REM Run started: at 2021.01.01 23:23:33 in /gpfs/home/chem/mssmkc/CARBON/AIRSS/Generating-Clusters/Str-Search/Higher-Symm/C100-200
REM VASP from code version vasp.5.4.4.18Apr17-6-g9f103f2a35 (build Oct 11 2019 16:45:47) gamma-only
REM
REM
REM
REM
REM ./C.cell (533062f00bc710175b3da973d35f2034)
REM AIRSS Version 0.9.1 bugfix July 2018 build 013d7b7c2542+ Fri, 06 Jul 2018 19:26:36 +0100
REM compiler GCC version 6.3.0
REM options -cpp -iprefix /gpfs/warwick/csc/orac/software/Core/GCCcore/6.3.0/bin/../lib/gcc/x86_64-pc-linux-gnu/6.3.0/ -mtune=generic -march=x86-64 -g -O0
REM seed -695756711 -211803615 -577838228 47951998 -997762079 494162177 -681141627 -358425507 1250732829 1175785615 -1537878383 -1618130269
REM
REM C.POTCAR (d86ddea03c3ceb6dc662c8ad6801f873)
REM 
CELL 1.54180   15.00000   15.00000   15.00000   90.00000   90.00000   90.00000
LATT -1
SFAC C  
C      1  0.3199800490094  0.2640777908805  0.3460077459173 1.0
C      1  0.4807961971642  0.1839011020976  0.2739920401806 1.0
C      1  0.6186566182049  0.2426529527131  0.3078472623698 1.0
C      1  0.7127063960331  0.2506846614484  0.4346279803028 1.0
C      1  0.7182636066490  0.2479027965110  0.5890273367254 1.0
C      1  0.5941731674045  0.1786118820990  0.7127850512560 1.0
C      1  0.4551593554012  0.2362598300998  0.7373994584213 1.0
C      1  0.3193174088947  0.2750380110831  0.6290391390304 1.0
C      1  0.2728099865602  0.2490896874418  0.4896008208746 1.0
C      1  0.5593380034901  0.1868886748293  0.6246427068621 1.0
C      1  0.4652413928208  0.2068419585372  0.6395200855514 1.0
C      1  0.3883147282928  0.2183354935654  0.5866991951314 1.0
C      1  0.3588989594903  0.2065947365316  0.4932677536808 1.0
C      1  0.3888027103083  0.2085307034372  0.4039458486073 1.0
C      1  0.4757394585089  0.1904399975530  0.3685245881533 1.0
C      1  0.5647206051525  0.2153534334412  0.3937032553673 1.0
C      1  0.6208980549022  0.2256745535679  0.4673165082855 1.0
C      1  0.6251966170071  0.2149562993530  0.5606958807636 1.0
C      1  0.6600284688062  0.4500964644899  0.8737865407090 1.0
C      1  0.3791118121138  0.4547426672251  0.8733278930199 1.0
C      1  0.1845228797896  0.4433192030887  0.7095071865275 1.0
C      1  0.1256671541788  0.4334685637904  0.4410735422500 1.0
C      1  0.2256536089711  0.4510432085215  0.1861950896945 1.0
C      1  0.4700967449643  0.4515720012821  0.0926063062254 1.0
C      1  0.7346617360749  0.4533757081619  0.1969493451144 1.0
C      1  0.8669874872539  0.4404964848414  0.4150070054384 1.0
C      1  0.8573316254462  0.4461286188131  0.7021427296905 1.0
C      1  0.8777309782899  0.4351513375671  0.6152780981427 1.0
C      1  0.7426416377958  0.4583993116742  0.8414393005492 1.0
C      1  0.4674825180613  0.4490908144258  0.8845140701294 1.0
C      1  0.2306957228675  0.4548104743803  0.7851763964780 1.0
C      1  0.1267259926058  0.4349902918492  0.5335065102187 1.0
C      1  0.1774873821962  0.4417782471552  0.2607797779880 1.0
C      1  0.3809946809062  0.4584066216291  0.0937786218925 1.0
C      1  0.6539259258453  0.4468340829216  0.1597449036231 1.0
C      1  0.8467074583143  0.4513060496044  0.3288965178568 1.0
C      1  0.6530428985824  0.7663329478241  0.4245656574671 1.0
C      1  0.6873770710156  0.7736109618859  0.5159477696329 1.0
C      1  0.6454969845047  0.7775678846638  0.5991203408995 1.0
C      1  0.5531466936985  0.7790426026870  0.6195539680006 1.0
C      1  0.4648663067404  0.7942690091153  0.5943931049012 1.0
C      1  0.4203436945072  0.8350606080876  0.5261995501670 1.0
C      1  0.3177030349761  0.7658662308131  0.4024467621677 1.0
C      1  0.3713307881096  0.7661404328855  0.3235959099252 1.0
C      1  0.4553133749006  0.7745981524088  0.2943598437261 1.0
C      1  0.4829344822905  0.6110572598393  0.1344171431144 1.0
C      1  0.7147900301319  0.6142086288443  0.2289786424291 1.0
C      1  0.8475541162456  0.6032930477096  0.4372529847716 1.0
C      1  0.8234312778971  0.6061951290998  0.6800143711618 1.0
C      1  0.6319276427348  0.6097339885796  0.8355440726418 1.0
C      1  0.3841040223971  0.6144817297337  0.8579835573130 1.0
C      1  0.2059828080902  0.6021320957000  0.6771100122437 1.0
C      1  0.1318473684164  0.5960682101793  0.4412993682967 1.0
C      1  0.2579458948607  0.6061007115575  0.2269988856085 1.0
C      1  0.6830137563684  0.7111691894177  0.3611428406567 1.0
C      1  0.7284890004785  0.6828952047574  0.5359512746814 1.0
C      1  0.6896331881601  0.6858521885269  0.6315480618633 1.0
C      1  0.5055586212593  0.6821478762846  0.7439255040683 1.0
C      1  0.4116473240739  0.6892547917345  0.7233728999665 1.0
C      1  0.2722736380955  0.6727911889735  0.5347643650875 1.0
C      1  0.2545131862448  0.6999954208498  0.4358485059673 1.0
C      1  0.3999658606735  0.6716588708922  0.2957377104706 1.0
C      1  0.5053383623821  0.6896975565280  0.2763249464330 1.0
C      1  0.6102794526016  0.5278526569570  0.1333028331476 1.0
C      1  0.8362921156793  0.5371126200835  0.2868545626260 1.0
C      1  0.8904672684702  0.5130157460973  0.5598223043245 1.0
C      1  0.7786628087602  0.5400725134183  0.8089376910593 1.0
C      1  0.5179900003927  0.5276032236356  0.9023264729085 1.0
C      1  0.2536043577419  0.5393072451628  0.8205237307108 1.0
C      1  0.1148681880710  0.5167804650884  0.5809206569106 1.0
C      1  0.1473769746361  0.5201156860046  0.3081809846493 1.0
C      1  0.3333294529412  0.5405394468197  0.1068080449222 1.0
C      1  0.5443942475007  0.6539876237864  0.8223380804125 1.0
C      1  0.3452003757157  0.6569913747509  0.7787746221764 1.0
C      1  0.2021991553473  0.6430461127726  0.5869690645026 1.0
C      1  0.1908175511522  0.6487815940044  0.3871830921843 1.0
C      1  0.3454070895207  0.6433830858343  0.2202915983283 1.0
C      1  0.5443666492606  0.6546332861103  0.1939019783316 1.0
C      1  0.7455385367877  0.6624220802062  0.3079840053452 1.0
C      1  0.8175245868263  0.6452044433681  0.5170385272917 1.0
C      1  0.7451895618833  0.6549699960888  0.7082707362053 1.0
C      1  0.8403082621282  0.5327949087083  0.7410190985772 1.0
C      1  0.6091992280206  0.5301867156378  0.8848498020916 1.0
C      1  0.3306286621252  0.5369969689799  0.8735443553438 1.0
C      1  0.1534979843068  0.5216553922763  0.6656523596030 1.0
C      1  0.1123331586348  0.5143691687014  0.3939125061952 1.0
C      1  0.2554009693461  0.5369676589944  0.1563504410484 1.0
C      1  0.5253015029194  0.5301109225803  0.0998414216770 1.0
C      1  0.7753244580164  0.5379949928188  0.2181099670254 1.0
C      1  0.8875797078211  0.5167640265844  0.4682496150914 1.0
C      1  0.7046491743838  0.4370633746512  0.6290095641326 1.0
C      1  0.6487078481976  0.4594716734602  0.6984160283472 1.0
C      1  0.4364980150312  0.4727291417766  0.7054418645722 1.0
C      1  0.3525688423345  0.4801227570737  0.6614843860607 1.0
C      1  0.2838574332672  0.4352316996353  0.4847234162417 1.0
C      1  0.3451228212219  0.4658207789368  0.3060705168250 1.0
C      1  0.4247769072391  0.4529656487447  0.2608955523750 1.0
C      1  0.6393323619185  0.4892805401775  0.3311479992042 1.0
C      1  0.6970588764200  0.4862598672991  0.4025366522402 1.0
C      1  0.4762536808967  0.6107897553799  0.8766062618122 1.0
C      1  0.2593651877956  0.6114165273048  0.7557292420546 1.0
C      1  0.1310145620935  0.5986569933838  0.5341639518077 1.0
C      1  0.1964448269243  0.6034691883648  0.2989176730581 1.0
C      1  0.3892759919540  0.6120527122286  0.1429380255721 1.0
C      1  0.6302855495648  0.6090463948848  0.1859804010861 1.0
C      1  0.8204531234350  0.6137147971928  0.3461861092642 1.0
C      1  0.8529493170215  0.5973174830912  0.5918715373353 1.0
C      1  0.7160059238160  0.6153203539583  0.7912464737667 1.0
C      1  0.6044086736983  0.6253960142754  0.6093315539584 1.0
C      1  0.5316504443086  0.6848730050356  0.6474659178872 1.0
C      1  0.4275378173568  0.6995006930651  0.6257419859397 1.0
C      1  0.3731556186085  0.6442285050199  0.5565428368816 1.0
C      1  0.4045545407875  0.6775302897044  0.4662002429102 1.0
C      1  0.4199486687833  0.6226373082227  0.3863109007404 1.0
C      1  0.5328091403646  0.6329463284579  0.3654802700183 1.0
C      1  0.6055406668828  0.6749841431628  0.4198459108993 1.0
C      1  0.6408756937882  0.6226957943186  0.5007068024575 1.0
C      1  0.3899553626617  0.5306404753293  0.5745499974162 1.0
C      1  0.3593804521489  0.4871418417667  0.4828818592016 1.0
C      1  0.3926227612811  0.5196906215419  0.3870949492936 1.0
C      1  0.4760700903018  0.4918771612971  0.3288883510214 1.0
C      1  0.5551286129760  0.5374342874017  0.3396927266867 1.0
C      1  0.6669638589727  0.5282714471777  0.4853074289821 1.0
C      1  0.6565704283454  0.4844674638190  0.5638534542404 1.0
C      1  0.5897659965411  0.5236871784464  0.6334592320201 1.0
C      1  0.4883819977608  0.5082760381776  0.6355324368343 1.0
C      1  0.6300960119976  0.2454887026929  0.7664949591869 1.0
C      1  0.5402238652950  0.2145619213231  0.7806329169526 1.0
C      1  0.3744117519139  0.2424092252304  0.8019626485868 1.0
C      1  0.2511298786071  0.2956974792969  0.5661869613559 1.0
C      1  0.2535862130643  0.2917371592685  0.4080600162060 1.0
C      1  0.4660396952253  0.2493329793445  0.2098235172158 1.0
C      1  0.5567269602403  0.2167506909874  0.2324669408321 1.0
C      1  0.7239516412625  0.2273673613437  0.3298363815210 1.0
C      1  0.7724526399991  0.2513908928588  0.5124865737254 1.0
C      1  0.3310801501407  0.3323828886649  0.7011481860796 1.0
C      1  0.2132506291153  0.3792517571742  0.4346099868784 1.0
C      1  0.3266099811556  0.3152825474891  0.2654835319995 1.0
C      1  0.4018083815151  0.3148855742072  0.2023025685730 1.0
C      1  0.6589762439164  0.3329861384805  0.3094079105013 1.0
C      1  0.7217691727182  0.3325248848980  0.3785846001988 1.0
C      1  0.7423661297788  0.3023764007321  0.6679075642260 1.0
C      1  0.6901523802533  0.3132022740269  0.7493082957547 1.0
C      1  0.4079473281431  0.3259956250971  0.7627134984421 1.0
C      1  0.4356842092671  0.4179896782764  0.7935538408142 1.0
C      1  0.2818608919517  0.4194515710339  0.7031156028644 1.0
C      1  0.2136882363326  0.3816836614729  0.5373633182512 1.0
C      1  0.2727258027134  0.4058973063019  0.2656034651045 1.0
C      1  0.4251095777741  0.4073391014417  0.1714562265639 1.0
C      1  0.6591115565342  0.4191834079359  0.2577753977988 1.0
C      1  0.7717564437985  0.4173895905141  0.3910694726639 1.0
C      1  0.7913431131763  0.3901073853678  0.6467709381790 1.0
C      1  0.6747359546947  0.4078949645995  0.7831527325966 1.0
C      1  0.3892608261137  0.7757262545159  0.4676919344017 1.0
END
