TITL C-30446-5047-46 -8.582 3375.00 -1512.49389982 0 0 184 (C1) n - 1
REM
REM Run started: at 2020.12.22 00:34:40 in /gpfs/home/chem/mssmkc/CARBON/AIRSS/Generating-Clusters/Str-Search/Higher-Symm/C100-200
REM VASP from code version vasp.5.4.4.18Apr17-6-g9f103f2a35 (build Oct 11 2019 16:45:47) gamma-only
REM
REM
REM
REM
REM ./C.cell (533062f00bc710175b3da973d35f2034)
REM AIRSS Version 0.9.1 bugfix July 2018 build 013d7b7c2542+ Fri, 06 Jul 2018 19:26:36 +0100
REM compiler GCC version 6.3.0
REM options -cpp -iprefix /gpfs/warwick/csc/orac/software/Core/GCCcore/6.3.0/bin/../lib/gcc/x86_64-pc-linux-gnu/6.3.0/ -mtune=generic -march=x86-64 -g -O0
REM seed -19268382 -1945979122 699500527 1837105516 -1545180181 738923920 1679200820 1427985672 -721187208 807144662 461148898 1099529273
REM
REM C.POTCAR (d86ddea03c3ceb6dc662c8ad6801f873)
REM 
CELL 1.54180   15.00000   15.00000   15.00000   90.00000   90.00000   90.00000
LATT -1
SFAC C  
C      1  0.2675556952490  0.7468800674078  0.4580683192494 1.0
C      1  0.2471686365189  0.3072208476025  0.7465951488921 1.0
C      1  0.6583029029195  0.8810852443874  0.6356706069938 1.0
C      1  0.3672020440105  0.6112184222744  0.5146227585592 1.0
C      1  0.5957578944082  0.3897534522275  0.6243906772313 1.0
C      1  0.3243537461989  0.7202353779668  0.2413910272176 1.0
C      1  0.4915519743083  0.3940973445682  0.6379145724311 1.0
C      1  0.3451247196146  0.1951889035878  0.3540194583150 1.0
C      1  0.5625586730466  0.3463507967409  0.1903943332120 1.0
C      1  0.5578575239970  0.1624792504336  0.6242232730087 1.0
C      1  0.4049094147869  0.4247326614243  0.7674790598686 1.0
C      1  0.8980165329926  0.5694615804292  0.6344345152621 1.0
C      1  0.6443852160079  0.5144019736864  0.8247592748927 1.0
C      1  0.5617327413268  0.4779738826729  0.8617985844643 1.0
C      1  0.2108970119679  0.7000310955643  0.3889918088655 1.0
C      1  0.6164144358014  0.5224886248504  0.7238498497010 1.0
C      1  0.7180579785268  0.6026474443768  0.5776867303672 1.0
C      1  0.7466057572623  0.2791593326428  0.3764770093589 1.0
C      1  0.1730595604424  0.5199598394360  0.2865405642547 1.0
C      1  0.3184530004676  0.5819333516920  0.7737242244317 1.0
C      1  0.2706026931374  0.2388113186508  0.4077457540448 1.0
C      1  0.1964486582056  0.2172487960245  0.2506855733398 1.0
C      1  0.4193693935766  0.5422766564998  0.1199310052760 1.0
C      1  0.5165577732306  0.9159245678106  0.7274125938446 1.0
C      1  0.2327122112550  0.3615755053818  0.5069119821116 1.0
C      1  0.5694918129042  0.4996025292778  0.3325776350991 1.0
C      1  0.3169232901339  0.1286101180220  0.5407272582408 1.0
C      1  0.5577835219989  0.8451187764033  0.2992728674897 1.0
C      1  0.4701176021384  0.3187199360529  0.1805719061359 1.0
C      1  0.3631802254014  0.7154316395763  0.5003176918886 1.0
C      1  0.6570296119306  0.0847402196455  0.5100554903881 1.0
C      1  0.4637242458240  0.5720468416424  0.4799905457190 1.0
C      1  0.1555364497620  0.6125474904584  0.5161127995904 1.0
C      1  0.1385431576241  0.5483934065530  0.3719424791201 1.0
C      1  0.6373970314217  0.2597685853598  0.7349755736038 1.0
C      1  0.7210929381555  0.1921618233106  0.6048738571220 1.0
C      1  0.6071161952086  0.5868045737537  0.1079202528336 1.0
C      1  0.4768721571483  0.6939286613765  0.1896441582220 1.0
C      1  0.8005728964159  0.5937221585793  0.4184878384150 1.0
C      1  0.8336514182187  0.5669492600115  0.7052321921214 1.0
C      1  0.3118029042481  0.5328576073895  0.6849657644786 1.0
C      1  0.6879521510275  0.1221057866889  0.4407901266017 1.0
C      1  0.6015944790184  0.5974885829653  0.3561766930548 1.0
C      1  0.3578700416517  0.7486070395278  0.5988581613515 1.0
C      1  0.8907283393608  0.6104130765520  0.5466492553351 1.0
C      1  0.4712444437797  0.8359782487464  0.2678398094714 1.0
C      1  0.5064014429368  0.1976272141227  0.3804817165224 1.0
C      1  0.4824198487714  0.4666746927797  0.3465165444443 1.0
C      1  0.8151694248289  0.3339316467417  0.4257551115857 1.0
C      1  0.7802774304351  0.4546976780930  0.2298240453364 1.0
C      1  0.4564992807830  0.6146155260500  0.6502906489580 1.0
C      1  0.8209045887971  0.5115763618160  0.2976309748888 1.0
C      1  0.2887505770496  0.8054996972868  0.6082254732005 1.0
C      1  0.2106387395312  0.2785767572100  0.5654140289342 1.0
C      1  0.7107504549732  0.4028269924509  0.2804298467053 1.0
C      1  0.4941420155089  0.7732674048051  0.6861203293393 1.0
C      1  0.1209464528590  0.6581141637161  0.6760290878430 1.0
C      1  0.3564610525822  0.1817588865547  0.6752690767800 1.0
C      1  0.4570965293733  0.8455332976390  0.7373361605474 1.0
C      1  0.2347686076732  0.8745557816732  0.5779222818926 1.0
C      1  0.6375932771600  0.6452654300418  0.1746023776181 1.0
C      1  0.1708086586163  0.3947872412039  0.4321001841111 1.0
C      1  0.7352157435150  0.5125920053554  0.8275484699746 1.0
C      1  0.6086303371872  0.6724084106808  0.6400543485007 1.0
C      1  0.5293921569056  0.6456304749270  0.5854864766535 1.0
C      1  0.8056432949372  0.5238154536574  0.7813524173509 1.0
C      1  0.5006506297680  0.1679510824846  0.5404016705152 1.0
C      1  0.8733374903240  0.3533176903927  0.5726495633341 1.0
C      1  0.7179138917106  0.5732481166548  0.4803872628947 1.0
C      1  0.3143010757166  0.3215966633135  0.4525318752164 1.0
C      1  0.7743742739230  0.5968199998773  0.3113736385073 1.0
C      1  0.4635678773994  0.4590121621441  0.7092833357058 1.0
C      1  0.7678798237268  0.7227706725559  0.6842211730492 1.0
C      1  0.6106214486764  0.6905388365438  0.8550226466600 1.0
C      1  0.4966302975188  0.5599489471542  0.8282046375487 1.0
C      1  0.4195515023740  0.7591374037792  0.7669474132467 1.0
C      1  0.5444151159783  0.2149666675338  0.4683829043951 1.0
C      1  0.3995596844186  0.6013899537337  0.8230321547252 1.0
C      1  0.6857889854064  0.7227430567909  0.8341102079466 1.0
C      1  0.6081870891006  0.7770192836231  0.3447245346830 1.0
C      1  0.6014576529335  0.2914029675257  0.2635724217179 1.0
C      1  0.8541082676868  0.4225699288489  0.4360877473699 1.0
C      1  0.3316550722456  0.6631221313150  0.1692996910329 1.0
C      1  0.2557600143276  0.6724542626118  0.3029127624478 1.0
C      1  0.2107818885115  0.2721153446901  0.3321228376978 1.0
C      1  0.6261972936087  0.3542183025313  0.7716611876459 1.0
C      1  0.5649080766470  0.6825790493089  0.2202386211944 1.0
C      1  0.6750613372544  0.6956280054660  0.5682406042516 1.0
C      1  0.6437429314720  0.1353622667012  0.5888833289118 1.0
C      1  0.4157916487445  0.3957059974956  0.3143615241377 1.0
C      1  0.2176311561082  0.5301908466196  0.5030738613378 1.0
C      1  0.3277988450535  0.5136282040304  0.1385143795268 1.0
C      1  0.4188265728437  0.1669388530731  0.4020602933812 1.0
C      1  0.6536489996970  0.4710556045536  0.3095287648948 1.0
C      1  0.5698922375384  0.4343185278990  0.1420094032195 1.0
C      1  0.4472479812054  0.2466941913578  0.2375502293375 1.0
C      1  0.7164024803622  0.6043232731035  0.2191952748527 1.0
C      1  0.6249211605113  0.3388074948030  0.5582676565272 1.0
C      1  0.5270860362761  0.6541290319272  0.8553349082597 1.0
C      1  0.4218306213337  0.6385517691457  0.1400922394639 1.0
C      1  0.6536706025828  0.8141143896633  0.7091257958378 1.0
C      1  0.3820149905557  0.2156384521170  0.7636303625436 1.0
C      1  0.5095995535063  0.9230678298296  0.2686289247453 1.0
C      1  0.7604339889573  0.6222357674256  0.6687770400017 1.0
C      1  0.2995348673141  0.5625868796637  0.4485032544158 1.0
C      1  0.6607884760622  0.7780539555334  0.4208103395104 1.0
C      1  0.2549916829117  0.4627110470218  0.6590066314578 1.0
C      1  0.3210046798757  0.1138779286295  0.6299755622896 1.0
C      1  0.6397039117069  0.4989494752080  0.1311027961118 1.0
C      1  0.3244072256811  0.4199722659563  0.1596972551190 1.0
C      1  0.4355196419335  0.5333121957311  0.3986824741760 1.0
C      1  0.4169005148846  0.3896240146042  0.1453053631752 1.0
C      1  0.4383041595735  0.6879238112920  0.8342345078547 1.0
C      1  0.3580736671982  0.3953265938218  0.3985118450443 1.0
C      1  0.7712670581436  0.2200214156704  0.5259650930497 1.0
C      1  0.1230203029350  0.6421186567583  0.5926242157272 1.0
C      1  0.1490068460124  0.6365256703814  0.4181531263133 1.0
C      1  0.8439046121126  0.5022562151752  0.3865244608892 1.0
C      1  0.1569066195055  0.4849106989755  0.4390239133674 1.0
C      1  0.7119667620479  0.8482284699709  0.5656734509155 1.0
C      1  0.4836015515367  0.3257031279528  0.8259558158041 1.0
C      1  0.1750905256988  0.3624128536583  0.3437432045531 1.0
C      1  0.6812438983882  0.5651774756254  0.3059532441029 1.0
C      1  0.3750015866117  0.5600106477861  0.6061587240307 1.0
C      1  0.2601102451758  0.3796415248124  0.2147550390118 1.0
C      1  0.7998087747454  0.7492451811291  0.5038593797202 1.0
C      1  0.5721130451738  0.3053814522984  0.4936730587088 1.0
C      1  0.4223724098358  0.7490136848561  0.2614541958672 1.0
C      1  0.3572082302810  0.2355684093232  0.2688172425147 1.0
C      1  0.3263560921596  0.2837953414636  0.7965966111944 1.0
C      1  0.4751534399823  0.4623886302508  0.1230929333583 1.0
C      1  0.4758300751016  0.2574672795511  0.7500306455655 1.0
C      1  0.2727879735305  0.2848222612777  0.2456317103303 1.0
C      1  0.6331898045204  0.4222903081998  0.7058437875259 1.0
C      1  0.3702000430564  0.4663107524073  0.5433063814827 1.0
C      1  0.6233284455467  0.7081258438018  0.4831425493837 1.0
C      1  0.7361855984730  0.2003873568535  0.4354378457431 1.0
C      1  0.5832697619842  0.7528034273400  0.6896304323380 1.0
C      1  0.2241918333415  0.3837444276969  0.6999289157720 1.0
C      1  0.4176180889688  0.7124943654274  0.6713952592101 1.0
C      1  0.3886658689978  0.3567617944443  0.8226013390896 1.0
C      1  0.2403446419864  0.6281324320888  0.7861726090603 1.0
C      1  0.1686500996576  0.6526207432221  0.7486457528969 1.0
C      1  0.5253999603138  0.7186864992136  0.5059354028664 1.0
C      1  0.4607223462092  0.3766112500135  0.3940076599543 1.0
C      1  0.8421917589375  0.6633941913283  0.4817941730316 1.0
C      1  0.3565184876281  0.2552373564788  0.5246726192577 1.0
C      1  0.2633144687712  0.4503229473168  0.5594779333736 1.0
C      1  0.3841831708868  0.2610996610530  0.6189039570967 1.0
C      1  0.1916574603677  0.4245327294888  0.2712656915286 1.0
C      1  0.7272151691160  0.5121689017220  0.1758795358203 1.0
C      1  0.5095962028315  0.5455155939541  0.7246889907696 1.0
C      1  0.2749608397773  0.5862103842475  0.1704747138080 1.0
C      1  0.7975775707755  0.2922712071698  0.7015774245130 1.0
C      1  0.6627282755394  0.5911116293215  0.6670525606460 1.0
C      1  0.6895974568793  0.3108176580065  0.3047447903855 1.0
C      1  0.9115964421239  0.5179386988718  0.5578744244295 1.0
C      1  0.4963661690243  0.3657604367057  0.4797613285303 1.0
C      1  0.3586215172268  0.4840443637199  0.4423017675415 1.0
C      1  0.4518378122521  0.4080872499101  0.5495093840885 1.0
C      1  0.7224202457715  0.7620552137733  0.7561142560186 1.0
C      1  0.2322118852777  0.8050635314060  0.5178742458199 1.0
C      1  0.4047170112741  0.6125290839363  0.3483247394675 1.0
C      1  0.2609502210084  0.2068446887144  0.5111900229577 1.0
C      1  0.6252839384360  0.6032100795353  0.4539025004066 1.0
C      1  0.8289003019985  0.2938224000043  0.5120158554135 1.0
C      1  0.2182430664039  0.5929056059278  0.2439775926260 1.0
C      1  0.5462359872642  0.5775725118042  0.5154440578382 1.0
C      1  0.5608935386913  0.6868258987391  0.3215680351509 1.0
C      1  0.3151155534088  0.6115607526271  0.3589709487395 1.0
C      1  0.7193544599813  0.2437367383216  0.6883359705239 1.0
C      1  0.8587051175864  0.3310127131970  0.6614594772279 1.0
C      1  0.8920176107842  0.4326307787682  0.5242410345125 1.0
C      1  0.2122256740478  0.2984764467170  0.6553620589586 1.0
C      1  0.5876049848902  0.9265115896221  0.6802531692307 1.0
C      1  0.7526986961127  0.7606612578370  0.5925109624528 1.0
C      1  0.4068587246262  0.1608671781025  0.5001644099210 1.0
C      1  0.4474487600366  0.3081928280817  0.6629689794487 1.0
C      1  0.4593215458306  0.6972700359490  0.3464309487684 1.0
C      1  0.7370482570851  0.8195702352708  0.4709120241101 1.0
C      1  0.5586116068311  0.3826699091574  0.8401033207490 1.0
C      1  0.4525847284745  0.7317685070226  0.4491537479933 1.0
C      1  0.5577480216244  0.2140632945528  0.7078226230496 1.0
C      1  0.5254518781807  0.2334685008883  0.2948224528641 1.0
END
