TITL C-30446-5047-16 -6.747 3375.00 -1175.83132299 0 0 142 (C1) n - 1
REM
REM Run started: at 2020.12.21 02:50:27 in /gpfs/home/chem/mssmkc/CARBON/AIRSS/Generating-Clusters/Str-Search/Higher-Symm/C100-200
REM VASP from code version vasp.5.4.4.18Apr17-6-g9f103f2a35 (build Oct 11 2019 16:45:47) gamma-only
REM
REM
REM
REM
REM ./C.cell (533062f00bc710175b3da973d35f2034)
REM AIRSS Version 0.9.1 bugfix July 2018 build 013d7b7c2542+ Fri, 06 Jul 2018 19:26:36 +0100
REM compiler GCC version 6.3.0
REM options -cpp -iprefix /gpfs/warwick/csc/orac/software/Core/GCCcore/6.3.0/bin/../lib/gcc/x86_64-pc-linux-gnu/6.3.0/ -mtune=generic -march=x86-64 -g -O0
REM seed 1994498506 -361327426 511876868 1606330840 166438556 -1581878353 -807485639 1125821710 2135721410 -545195021 -1555299851 -1466718318
REM
REM C.POTCAR (d86ddea03c3ceb6dc662c8ad6801f873)
REM 
CELL 1.54180   15.00000   15.00000   15.00000   90.00000   90.00000   90.00000
LATT -1
SFAC C  
C      1  0.5140885046432  0.2076279240695  0.3553195057282 1.0
C      1  0.2888159388695  0.7847301371828  0.6224582809082 1.0
C      1  0.7550674176249  0.3559549028335  0.6410214536501 1.0
C      1  0.6674499944283  0.4269600658348  0.5298628600394 1.0
C      1  0.6566574112366  0.4092170833583  0.3334385878518 1.0
C      1  0.4777006340437  0.6928242803413  0.7857066258612 1.0
C      1  0.3925338823039  0.5851802945624  0.4038311611525 1.0
C      1  0.2482411607478  0.5844051267363  0.6165481790086 1.0
C      1  0.5542275140053  0.1943179689170  0.4372055839206 1.0
C      1  0.4728780624329  0.6987657890539  0.4867662024644 1.0
C      1  0.3357506475458  0.2032280513435  0.5451313818709 1.0
C      1  0.1363336075802  0.5678582477946  0.5010407387084 1.0
C      1  0.6995702451494  0.2143542350328  0.3763396554979 1.0
C      1  0.5143620896835  0.4411818175113  0.6847927870019 1.0
C      1  0.6295007255353  0.7274086239865  0.2243842919396 1.0
C      1  0.4011096622961  0.5972995659789  0.2367229401910 1.0
C      1  0.4137379249728  0.3089672211643  0.2473095662528 1.0
C      1  0.1259271571334  0.5089533389432  0.4250813446507 1.0
C      1  0.7344364220157  0.5524010998044  0.4124410135659 1.0
C      1  0.7602324582473  0.5450462769179  0.2729765884665 1.0
C      1  0.2806552689903  0.7714959843600  0.5206217445160 1.0
C      1  0.2904760933122  0.4578638195917  0.7153433743141 1.0
C      1  0.7539921126246  0.7427904243273  0.4362564448594 1.0
C      1  0.3314150961911  0.4156173912355  0.5684773350477 1.0
C      1  0.7625952901882  0.4151782992106  0.7220277027000 1.0
C      1  0.5115110891371  0.3073002335227  0.7233980889753 1.0
C      1  0.2570069445547  0.2561238953647  0.5754209835511 1.0
C      1  0.6113673856626  0.6073424941324  0.5412074699940 1.0
C      1  0.1533058672513  0.3776053596577  0.5183145944481 1.0
C      1  0.7331275307894  0.4745802971972  0.3404266826521 1.0
C      1  0.5928843001145  0.7677694528861  0.6815393814177 1.0
C      1  0.3676420916898  0.8379980433073  0.6083988547693 1.0
C      1  0.2530246827798  0.7006939034215  0.4641018587437 1.0
C      1  0.6582034836891  0.2515988083109  0.2954086585738 1.0
C      1  0.5874597631001  0.6072182119559  0.2932153659475 1.0
C      1  0.7203172347899  0.4034181538640  0.8031343367425 1.0
C      1  0.4170045527166  0.6853525215454  0.2543012939256 1.0
C      1  0.4548397062946  0.5415745728932  0.1785096563492 1.0
C      1  0.7589290549540  0.5924571210836  0.6478015466749 1.0
C      1  0.4216129436561  0.1717966004969  0.6840688888351 1.0
C      1  0.6589689553740  0.3470539090131  0.4874178955193 1.0
C      1  0.3525080864258  0.2598978108217  0.2994780155554 1.0
C      1  0.4289508263974  0.4253569091806  0.3917139489265 1.0
C      1  0.8566045313687  0.4744242925094  0.4819990960116 1.0
C      1  0.4560865812152  0.6136401066773  0.8300351542131 1.0
C      1  0.1640767481566  0.3549790403971  0.3659338681481 1.0
C      1  0.1834703704242  0.5734062129776  0.3748251280308 1.0
C      1  0.5012579455633  0.3574809960290  0.4313524556520 1.0
C      1  0.6433447734902  0.5631213444867  0.8114274560262 1.0
C      1  0.4212529561714  0.4413712049908  0.8106381860288 1.0
C      1  0.4863761262628  0.3865586128405  0.5344272718273 1.0
C      1  0.7640920382291  0.6127232375135  0.3367582425472 1.0
C      1  0.4237587592608  0.2553194740968  0.7228823212627 1.0
C      1  0.4108477085441  0.7338153596216  0.7142696391700 1.0
C      1  0.7693889870335  0.3786552965512  0.3316711394960 1.0
C      1  0.6066505190704  0.8343011101401  0.4622814177542 1.0
C      1  0.4746574928135  0.6494512306968  0.3987535477906 1.0
C      1  0.5197713010588  0.3671409266790  0.6319267238794 1.0
C      1  0.4212708465730  0.5004991333978  0.4559100036424 1.0
C      1  0.3822979583145  0.4495933174198  0.3162710764776 1.0
C      1  0.6791555105982  0.7406779400986  0.6492832439610 1.0
C      1  0.1700331642463  0.5310703243393  0.5813913316049 1.0
C      1  0.5612069550258  0.2484378993024  0.2802372257769 1.0
C      1  0.5906072149576  0.4677665128153  0.1526648559118 1.0
C      1  0.4467857360707  0.7214372641389  0.3299171872955 1.0
C      1  0.3226391682466  0.6292851276250  0.4624581547452 1.0
C      1  0.6000244628292  0.4744513593657  0.4719669248149 1.0
C      1  0.7053259258221  0.6580673355287  0.6927454746545 1.0
C      1  0.3516469919369  0.5478791103324  0.3137183384287 1.0
C      1  0.6832075290620  0.4756197306891  0.1541962420458 1.0
C      1  0.5246775301615  0.5638101569721  0.5732264116948 1.0
C      1  0.3466773117055  0.4020805798192  0.7625409676764 1.0
C      1  0.6184521097718  0.7951515657189  0.2930874130028 1.0
C      1  0.7552806003129  0.7080823113913  0.3479921607103 1.0
C      1  0.4359432461845  0.0869106040860  0.6474409959955 1.0
C      1  0.5063427357478  0.4853696175171  0.5117642806729 1.0
C      1  0.5301927750048  0.8163099631313  0.6261856256588 1.0
C      1  0.5363561488929  0.8308414609608  0.5278252349817 1.0
C      1  0.2136294922299  0.4663977816360  0.2716833303954 1.0
C      1  0.3112208661603  0.5525282415783  0.6991729496987 1.0
C      1  0.6937540780688  0.8052569031986  0.4839974190149 1.0
C      1  0.5985192654883  0.3888577524139  0.4144105830817 1.0
C      1  0.6566633300754  0.2461578611030  0.6754541437063 1.0
C      1  0.2538287065792  0.4040794664142  0.6396971528080 1.0
C      1  0.5877311729228  0.4055726065069  0.8312631149274 1.0
C      1  0.7749464688411  0.7018016629622  0.5236492059041 1.0
C      1  0.4769449132833  0.2585426031779  0.4364408784891 1.0
C      1  0.6446519799959  0.1945799569975  0.4535650935291 1.0
C      1  0.5894037970707  0.6341337460074  0.2096599596344 1.0
C      1  0.4874786506131  0.5266293047878  0.6575402584808 1.0
C      1  0.5691547016358  0.7097191151670  0.7565469176820 1.0
C      1  0.7880734782408  0.6156142132093  0.5560594722471 1.0
C      1  0.6415754990012  0.6419435262077  0.7649119810220 1.0
C      1  0.4435398967236  0.4462096711655  0.1775051819366 1.0
C      1  0.6544063919487  0.4777511321354  0.8311729359450 1.0
C      1  0.7593218763316  0.4975623667003  0.6638590839903 1.0
C      1  0.5058068811224  0.3996369987159  0.7772226218257 1.0
C      1  0.4295283080516  0.6605463665337  0.6480215227363 1.0
C      1  0.2160309126799  0.2849520417542  0.4069869114783 1.0
C      1  0.3497834951254  0.4943836132249  0.5267742011366 1.0
C      1  0.5258523350203  0.3963099067347  0.1719173528555 1.0
C      1  0.7686707673775  0.2558154421300  0.4294569893615 1.0
C      1  0.5456264644019  0.5577455605682  0.1588244837685 1.0
C      1  0.3076094448300  0.7208811415145  0.6914021102488 1.0
C      1  0.6301974213863  0.5671190704102  0.4475244196031 1.0
C      1  0.2048354448222  0.2943811969369  0.5051416424415 1.0
C      1  0.4536503160047  0.7988897085477  0.4748487073159 1.0
C      1  0.2479567445147  0.5427242561392  0.3114159666717 1.0
C      1  0.4314744468988  0.5318012842186  0.8317672342229 1.0
C      1  0.6463786830011  0.3358348948249  0.8099663250719 1.0
C      1  0.2719097163480  0.3069465334874  0.6574897184456 1.0
C      1  0.3644779831063  0.8213278070794  0.5138024588144 1.0
C      1  0.5087935206477  0.3084880289885  0.2238512484118 1.0
C      1  0.3799567449323  0.1434520189716  0.5993758107858 1.0
C      1  0.1751608106269  0.4355031957866  0.5887125909215 1.0
C      1  0.5670536988239  0.6064812088140  0.3781583060132 1.0
C      1  0.7197712809248  0.7653020285117  0.5694523844682 1.0
C      1  0.7330581768665  0.4366729306751  0.5961709415710 1.0
C      1  0.7169120529861  0.2701157877160  0.6130370543400 1.0
C      1  0.1748239063194  0.3926419052291  0.2807524529187 1.0
C      1  0.3850808298880  0.4003704256956  0.2343120521130 1.0
C      1  0.4771931322687  0.6525553161814  0.5661440367780 1.0
C      1  0.6967705402033  0.3387025628715  0.2836856084862 1.0
C      1  0.2890729132319  0.2566206478744  0.3544008231716 1.0
C      1  0.1797906208425  0.6407390005190  0.4467031974929 1.0
C      1  0.7025739520788  0.2586037926296  0.5109923774728 1.0
C      1  0.3931911017750  0.3504936171464  0.5348637911460 1.0
C      1  0.5683139004692  0.8240073303174  0.3696001288662 1.0
C      1  0.6074007983082  0.2740108061299  0.7463422136149 1.0
C      1  0.8032440066328  0.5477818587623  0.4881802446562 1.0
C      1  0.4411679712162  0.8152203821495  0.6606188814235 1.0
C      1  0.8629924703186  0.3950562581964  0.4552163564605 1.0
C      1  0.6993362016546  0.7498910458890  0.2836791936726 1.0
C      1  0.8168508890590  0.3339962269532  0.4037453809731 1.0
C      1  0.4775736401632  0.8030279870121  0.3761502309039 1.0
C      1  0.1286819034879  0.4152719399807  0.4333077186233 1.0
C      1  0.3947802486672  0.2640233021206  0.4967259937152 1.0
C      1  0.3095766586732  0.5780361988446  0.5381623400866 1.0
C      1  0.4082135092390  0.5723590943833  0.6771277178518 1.0
C      1  0.7460916178270  0.5238884246606  0.1831280382346 1.0
C      1  0.2620157642725  0.6388783561073  0.6972723979341 1.0
C      1  0.3437424263877  0.3106785570886  0.7220107890417 1.0
END
