TITL C-30580-1724-33 -7.228 3375.00 -1270.70773982 0 0 159 (C1) n - 1
REM
REM Run started: at 2021.01.01 09:32:50 in /gpfs/home/chem/mssmkc/CARBON/AIRSS/Generating-Clusters/Str-Search/Higher-Symm/C100-200
REM VASP from code version vasp.5.4.4.18Apr17-6-g9f103f2a35 (build Oct 11 2019 16:45:47) gamma-only
REM
REM
REM
REM
REM ./C.cell (533062f00bc710175b3da973d35f2034)
REM AIRSS Version 0.9.1 bugfix July 2018 build 013d7b7c2542+ Fri, 06 Jul 2018 19:26:36 +0100
REM compiler GCC version 6.3.0
REM options -cpp -iprefix /gpfs/warwick/csc/orac/software/Core/GCCcore/6.3.0/bin/../lib/gcc/x86_64-pc-linux-gnu/6.3.0/ -mtune=generic -march=x86-64 -g -O0
REM seed 1097301068 948076895 -1086081256 -713706038 35820670 1543330079 1913826586 1038781062 254099196 -164668909 1592050988 1781864317
REM
REM C.POTCAR (d86ddea03c3ceb6dc662c8ad6801f873)
REM 
CELL 1.54180   15.00000   15.00000   15.00000   90.00000   90.00000   90.00000
LATT -1
SFAC C  
C      1  0.6479654032900  0.7068038444944  0.7518960336711 1.0
C      1  0.6911724727164  0.6214837050271  0.2090340581889 1.0
C      1  0.6410234938827  0.1800056173266  0.5644712598282 1.0
C      1  0.3087896575921  0.7116376390845  0.7320458094215 1.0
C      1  0.3640064348263  0.6107848221300  0.1803620733844 1.0
C      1  0.3233406528934  0.1886596640611  0.5404083096511 1.0
C      1  0.6407280467563  0.2769095002316  0.7439277668610 1.0
C      1  0.6873847894995  0.4234202887851  0.2083882278321 1.0
C      1  0.6495439449288  0.8171618079909  0.5795404528860 1.0
C      1  0.3043100818264  0.2817091720846  0.7195800684738 1.0
C      1  0.3646253715796  0.4106460609538  0.1755326938867 1.0
C      1  0.3279045388092  0.8129864002311  0.5576307574480 1.0
C      1  0.7220245769894  0.2390933245319  0.6966835895731 1.0
C      1  0.7287487951812  0.7970995009368  0.6383262387967 1.0
C      1  0.7592578888417  0.4845256928623  0.2203606629616 1.0
C      1  0.2306096944969  0.2500627516082  0.6605968345011 1.0
C      1  0.2427145451630  0.7953672230789  0.6072400089807 1.0
C      1  0.2883459142382  0.4692879232236  0.1599600308411 1.0
C      1  0.7269794112722  0.7461293117498  0.7045323398114 1.0
C      1  0.7197916399098  0.1974809691418  0.6242998125556 1.0
C      1  0.7735705700323  0.5666800032086  0.2162960108695 1.0
C      1  0.2344908908835  0.7469645348179  0.6750099842079 1.0
C      1  0.2382035691023  0.2043145389408  0.5909520105371 1.0
C      1  0.2881549373480  0.5521756652679  0.1625379233159 1.0
C      1  0.2090801124748  0.3240589274502  0.3958867893494 1.0
C      1  0.1738501738988  0.5473476748595  0.6353820655169 1.0
C      1  0.2097175099362  0.6503144830940  0.3207110095875 1.0
C      1  0.7899848914692  0.3053793345974  0.4612199072841 1.0
C      1  0.7776116591965  0.5339497086301  0.7165773059074 1.0
C      1  0.8045669451062  0.6423754532498  0.3841738938993 1.0
C      1  0.2129905391649  0.6888177030628  0.4072590611522 1.0
C      1  0.1726923854282  0.4520800149076  0.6329970554340 1.0
C      1  0.2067147869507  0.3676889261600  0.3116909797253 1.0
C      1  0.7882453247517  0.6848144558205  0.4672894834133 1.0
C      1  0.7720825140257  0.4419524388440  0.7071574234755 1.0
C      1  0.7937527926113  0.3553940097691  0.3818389848095 1.0
C      1  0.5729406494367  0.5457986688822  0.5998368254379 1.0
C      1  0.5866042563916  0.5569070091073  0.4192383910416 1.0
C      1  0.5754889706228  0.3980259093878  0.4975966048986 1.0
C      1  0.4075317340941  0.5491804147886  0.5867204375218 1.0
C      1  0.4164866163288  0.5569227254838  0.4043872308444 1.0
C      1  0.4044139664250  0.4029659963785  0.4876537793011 1.0
C      1  0.5710141258454  0.4462033008729  0.5919784186966 1.0
C      1  0.5851186914384  0.4514982875593  0.4134931302836 1.0
C      1  0.5786896587552  0.6014580302193  0.5097495418658 1.0
C      1  0.4058491071287  0.4493321638876  0.5827056141392 1.0
C      1  0.4155558973855  0.4524175425297  0.4010024025173 1.0
C      1  0.4070451331030  0.6007831553986  0.4945677495428 1.0
C      1  0.5659147567551  0.0359186737779  0.3491170272717 1.0
C      1  0.6174278812008  0.3520433637042  0.8987345642668 1.0
C      1  0.5472019271697  0.9101230615777  0.4501595664550 1.0
C      1  0.4354097385935  0.0990391517743  0.3274597833739 1.0
C      1  0.6108355484737  0.3958143084610  0.9845166512615 1.0
C      1  0.4467455002359  0.8908355146478  0.4419494755315 1.0
C      1  0.5686016941264  0.9429697090415  0.3573076144402 1.0
C      1  0.6701752447429  0.4170631307391  0.8529214128766 1.0
C      1  0.5413908921356  0.0813558636649  0.4350688837903 1.0
C      1  0.4385405506701  0.8773847348650  0.3479309142235 1.0
C      1  0.6777356480623  0.5032525827979  0.8861758393910 1.0
C      1  0.4420431792885  0.1021516855879  0.4228400746163 1.0
C      1  0.3402798278827  0.6212887442500  0.6989243716386 1.0
C      1  0.3752054107887  0.6303292099169  0.2815087184519 1.0
C      1  0.3440057672392  0.2709263022437  0.4812028130872 1.0
C      1  0.6278548618125  0.6082339165854  0.7256073400718 1.0
C      1  0.6519759362746  0.6288801081526  0.3058115376198 1.0
C      1  0.6277636802547  0.2596964334074  0.4981960283467 1.0
C      1  0.3379052061098  0.3724079430899  0.6906431547795 1.0
C      1  0.3733673852649  0.3857483477636  0.2750175274869 1.0
C      1  0.3489310817675  0.7334287127352  0.4950034662329 1.0
C      1  0.6221910289192  0.3705168888819  0.7043217855219 1.0
C      1  0.6514777361180  0.3860043985859  0.2964619974402 1.0
C      1  0.6347368196548  0.7368738682134  0.5164177757093 1.0
C      1  0.3794025069142  0.1688195004814  0.6268216374195 1.0
C      1  0.3853534548022  0.7747324209286  0.7157200790198 1.0
C      1  0.4453635820384  0.5591104535915  0.1428739488581 1.0
C      1  0.5699609949394  0.1695237407370  0.6407647040485 1.0
C      1  0.5723731575015  0.7675243724416  0.7236003327067 1.0
C      1  0.6465451331597  0.5906601122417  0.1278144346060 1.0
C      1  0.3849011327584  0.8285253754451  0.6432773214035 1.0
C      1  0.3811372118778  0.2177221139273  0.7031523210151 1.0
C      1  0.4459615146856  0.4650750300748  0.1424806646125 1.0
C      1  0.5806511738729  0.8268010443904  0.6552227216416 1.0
C      1  0.5673933164409  0.2133996096035  0.7184048351043 1.0
C      1  0.6671092951317  0.5166347928158  0.0696262600560 1.0
C      1  0.6819252722196  0.4329388362076  0.7595046719537 1.0
C      1  0.7026302393230  0.7348150429380  0.4400514765592 1.0
C      1  0.7053150473073  0.3139656557351  0.3447293848551 1.0
C      1  0.2664699444826  0.4481567993021  0.6720799981427 1.0
C      1  0.3006720163496  0.7376384727759  0.4041661194029 1.0
C      1  0.3062672478321  0.3195470082981  0.3110798066878 1.0
C      1  0.6849116241139  0.5378115506604  0.7800545638598 1.0
C      1  0.6959863575034  0.2649614763734  0.4223378392047 1.0
C      1  0.7095626043598  0.6921253012200  0.3592499014907 1.0
C      1  0.2673613968617  0.5482938228175  0.6751505497050 1.0
C      1  0.2952423189433  0.2729886822330  0.3906272959041 1.0
C      1  0.3099576975791  0.6957600185954  0.3217746887857 1.0
C      1  0.3865081960536  0.1129754086315  0.4978483408822 1.0
C      1  0.3414135089287  0.7336901252207  0.8299533391318 1.0
C      1  0.4047399124798  0.6813347967463  0.1173810365139 1.0
C      1  0.5837275229746  0.0996464534966  0.5176462349111 1.0
C      1  0.6038419744865  0.7325567803489  0.8445741617565 1.0
C      1  0.6542051190631  0.7097579258647  0.1512414405446 1.0
C      1  0.3922655561902  0.8876609277561  0.5173750240759 1.0
C      1  0.3343745002157  0.2495133881924  0.8133859716422 1.0
C      1  0.4073858137090  0.3456010886896  0.1079477525449 1.0
C      1  0.5906478038257  0.8960752039298  0.5321924387336 1.0
C      1  0.5920886682608  0.2820021876389  0.8384036046403 1.0
C      1  0.6455574874159  0.4376749206287  0.1267472400692 1.0
C      1  0.3199574096724  0.5937864983285  0.6050575383558 1.0
C      1  0.3340477684061  0.5576584532310  0.3429516621732 1.0
C      1  0.3073206586347  0.3681311035649  0.5079103160018 1.0
C      1  0.6609904868187  0.5867221886612  0.6314540071757 1.0
C      1  0.6787941110119  0.5547729568966  0.3753718322017 1.0
C      1  0.6617154326484  0.3529599261453  0.5279419668392 1.0
C      1  0.3172884958260  0.4059195120178  0.5986563688963 1.0
C      1  0.3331716154471  0.4562289048609  0.3398429701639 1.0
C      1  0.3105014080535  0.6361727974460  0.5162848092874 1.0
C      1  0.6582132053935  0.3984917186042  0.6155514336283 1.0
C      1  0.6781745928022  0.4541592696528  0.3719242587378 1.0
C      1  0.6653988586790  0.6415486015644  0.5466015328631 1.0
C      1  0.2357227446633  0.4531159237225  0.3687023237524 1.0
C      1  0.1713769756636  0.4571043546155  0.5272711243463 1.0
C      1  0.2248741025806  0.6065257134612  0.4669001320497 1.0
C      1  0.7655202099460  0.4462560839838  0.4250046117445 1.0
C      1  0.7510250626563  0.4407251128451  0.6067018728992 1.0
C      1  0.7581434249033  0.6034896047079  0.5220258745489 1.0
C      1  0.2367458468293  0.5608788606486  0.3720803110824 1.0
C      1  0.1724359903429  0.5486464321226  0.5300627791144 1.0
C      1  0.2225037544151  0.4022492084030  0.4604508637671 1.0
C      1  0.7668664192950  0.5543943606433  0.4290971852939 1.0
C      1  0.7528536809148  0.5452244859412  0.6141005091599 1.0
C      1  0.7572749347916  0.3907168521436  0.5120995566697 1.0
C      1  0.5323215878891  0.3060896765754  0.4881964789791 1.0
C      1  0.5303311373254  0.5866282541181  0.6840173971495 1.0
C      1  0.5542366542970  0.6105483484346  0.3387715019649 1.0
C      1  0.4412035418783  0.3091161125941  0.4839984426042 1.0
C      1  0.4392501981239  0.5898369547337  0.6756700049807 1.0
C      1  0.4642615877697  0.6105285917504  0.3314624486805 1.0
C      1  0.5373746114553  0.6943730412669  0.5045232625897 1.0
C      1  0.5277678114707  0.3983596454270  0.6708667414988 1.0
C      1  0.5528981773988  0.4044459248067  0.3294626000456 1.0
C      1  0.4461221978060  0.6937180557568  0.4975133032084 1.0
C      1  0.4369285352997  0.4015234235140  0.6673793681313 1.0
C      1  0.4627423414659  0.4025696411737  0.3250012821451 1.0
C      1  0.5237990151006  0.1050053314704  0.5897310340115 1.0
C      1  0.5223077720089  0.7545116803977  0.8044890184394 1.0
C      1  0.5821325286675  0.6603181552363  0.1190137004130 1.0
C      1  0.4313833714450  0.1060910040692  0.5810172227046 1.0
C      1  0.4269594028774  0.7578453239466  0.8000516661113 1.0
C      1  0.4888593550917  0.6422708919787  0.1170985764427 1.0
C      1  0.5319311577247  0.8906181914440  0.6071825311790 1.0
C      1  0.5185807122039  0.2319568388646  0.7998496015550 1.0
C      1  0.5803571097506  0.3859236274143  0.0729664986383 1.0
C      1  0.4388848371110  0.8914287373104  0.6005369527229 1.0
C      1  0.4233868171751  0.2327507231832  0.7887892256607 1.0
C      1  0.4905061820275  0.3860615842495  0.1069090122799 1.0
C      1  0.6564530164419  0.4893952387758  0.9803636179629 1.0
C      1  0.5057389280030  0.8955913344751  0.2985421805454 1.0
C      1  0.5024301496250  0.0712513506664  0.2832622780985 1.0
END
