TITL C-30538-2259-12 -1.808 3375.00 -297.63579161 0 0 37 (Cs) n - 1
REM
REM Run started: at 2020.12.28 04:24:51 in /rds/project/t2_vol4/rds-t2-cs072/BORA/CARBON/AIRSS/Generating-Clusters/Str-Search/Higher-Symm/C10-100
REM VASP from code version vasp.5.4.4.18Apr17-6-g9f103f2a35 (build Oct 11 2019 16:45:47) gamma-only
REM
REM
REM
REM
REM ./C.cell (f39ce9773e2efe3fa5bbdf770a4156b8)
REM AIRSS Version 0.9.1 bugfix July 2018 build 013d7b7c2542+ Fri, 06 Jul 2018 19:26:36 +0100
REM compiler GCC version 4.8.5 20150623 (Red Hat 4.8.5-39)
REM options -cpp -mtune=generic -march=x86-64 -g -O0
REM seed -470060832 -1494559686 -329906904 -1622192475 -548354369 1657051229 1800252926 -1203156845 484112347 1763145388 -1196572584 -2078525290
REM
REM C.POTCAR (d86ddea03c3ceb6dc662c8ad6801f873)
REM 
CELL 1.54180   15.00000   15.00000   15.00000   90.00000   90.00000   90.00000
LATT -1
SFAC C  
C      1  0.5989554514945  0.4503046861473  0.2990726727089 1.0
C      1  0.5873633904328  0.3122401908123  0.5444326433263 1.0
C      1  0.6089021360767  0.5510138832967  0.7047021554026 1.0
C      1  0.5978613073496  0.6951035948925  0.4538862961209 1.0
C      1  0.5858964544519  0.5458559056199  0.3113552300271 1.0
C      1  0.6082984416750  0.7061379700042  0.5501417736523 1.0
C      1  0.5985865692529  0.4547338395881  0.6933945193671 1.0
C      1  0.6004442282364  0.2997606815906  0.4489411619165 1.0
C      1  0.5141080660232  0.5580608016568  0.7220968112411 1.0
C      1  0.5034537056796  0.7117276009622  0.4568033587140 1.0
C      1  0.5031585661908  0.4364371578807  0.2819442339215 1.0
C      1  0.4916607178324  0.3068389753012  0.5309585428431 1.0
C      1  0.5042432264550  0.4578913406112  0.7097678897336 1.0
C      1  0.5045692370197  0.2827537568619  0.4350312160937 1.0
C      1  0.4903300810367  0.5324946361289  0.3057947629700 1.0
C      1  0.5134956411068  0.7234458458102  0.5570498563983 1.0
C      1  0.4428622683694  0.4247832002649  0.6486970104546 1.0
C      1  0.4541014684001  0.6824409945862  0.6137231848815 1.0
C      1  0.4358613422461  0.5730120430340  0.3702131222463 1.0
C      1  0.4497104581283  0.2935035372535  0.3640552166608 1.0
C      1  0.4544914886203  0.6145932739309  0.6813097073501 1.0
C      1  0.4368003418158  0.3712113269988  0.5711168743015 1.0
C      1  0.4488469190243  0.3651008642955  0.2928892708179 1.0
C      1  0.4422129445985  0.6504136870353  0.4239073616623 1.0
C      1  0.6516479960210  0.3825082689516  0.4480192997616 1.0
C      1  0.6525407411509  0.4552700360769  0.6110977567650 1.0
C      1  0.6581322854191  0.6205717172315  0.5531713278540 1.0
C      1  0.6467671212805  0.5474586485507  0.3899948985276 1.0
C      1  0.6516746900284  0.6126946844221  0.4541476088287 1.0
C      1  0.6584781356526  0.5544003176039  0.6191234998614 1.0
C      1  0.6480339613729  0.3910194300080  0.5460185778698 1.0
C      1  0.6508345677894  0.4494514663502  0.3813515019091 1.0
C      1  0.3952662907471  0.6086856341401  0.6079326648085 1.0
C      1  0.3906692606957  0.4539001159597  0.5747815343674 1.0
C      1  0.3901987027231  0.5763264725696  0.4530661690822 1.0
C      1  0.3844828494518  0.2987004108715  0.2984072538079 1.0
C      1  0.3753481461510  0.5421228027005  0.5411116337450 1.0
END
