TITL C-30446-5047-59 -5.744 3375.00 -986.16272557 0 0 121 (C1) n - 1
REM
REM Run started: at 2020.12.22 10:38:32 in /gpfs/home/chem/mssmkc/CARBON/AIRSS/Generating-Clusters/Str-Search/Higher-Symm/C100-200
REM VASP from code version vasp.5.4.4.18Apr17-6-g9f103f2a35 (build Oct 11 2019 16:45:47) gamma-only
REM
REM
REM
REM
REM ./C.cell (533062f00bc710175b3da973d35f2034)
REM AIRSS Version 0.9.1 bugfix July 2018 build 013d7b7c2542+ Fri, 06 Jul 2018 19:26:36 +0100
REM compiler GCC version 6.3.0
REM options -cpp -iprefix /gpfs/warwick/csc/orac/software/Core/GCCcore/6.3.0/bin/../lib/gcc/x86_64-pc-linux-gnu/6.3.0/ -mtune=generic -march=x86-64 -g -O0
REM seed -1342259652 583576705 323334247 890429114 -1615480646 986156224 -887188425 789404059 -848271964 -815731691 802222753 -1893669323
REM
REM C.POTCAR (d86ddea03c3ceb6dc662c8ad6801f873)
REM 
CELL 1.54180   15.00000   15.00000   15.00000   90.00000   90.00000   90.00000
LATT -1
SFAC C  
C      1  0.4198764924205  0.3554134924765  0.6380640873476 1.0
C      1  0.5265148887909  0.8089600558152  0.3601313793929 1.0
C      1  0.5311061279894  0.5013327815803  0.2721723903450 1.0
C      1  0.4209620989343  0.5434491132034  0.1495123721684 1.0
C      1  0.5436505281421  0.6647919794757  0.2036689230043 1.0
C      1  0.5349797393228  0.3000880462277  0.4313642558902 1.0
C      1  0.5480630849650  0.4149991616363  0.4556828807884 1.0
C      1  0.3664514697819  0.2621642161551  0.6247316027299 1.0
C      1  0.7553932351273  0.6181849329911  0.6135861623988 1.0
C      1  0.3150017371958  0.5296487987777  0.2713642766125 1.0
C      1  0.7513104385045  0.7101230924345  0.5747468941051 1.0
C      1  0.7793930910648  0.5607051465002  0.3785684974703 1.0
C      1  0.7130169446733  0.4244250968196  0.4285586298156 1.0
C      1  0.7811305899191  0.3155600268645  0.3737334644549 1.0
C      1  0.5778936712059  0.4175948701860  0.2252829536811 1.0
C      1  0.7147045138018  0.3244049002553  0.4569365356620 1.0
C      1  0.2793215477114  0.6708132140662  0.3585249011405 1.0
C      1  0.6153132870404  0.2344598961428  0.2617515097625 1.0
C      1  0.3008921110529  0.7588841066672  0.3367385833918 1.0
C      1  0.7975014933998  0.4725264416749  0.4158034736061 1.0
C      1  0.5352951761674  0.6084493991157  0.4030468453774 1.0
C      1  0.4120890396193  0.4141833624584  0.8014210812413 1.0
C      1  0.4026757281032  0.2343326151584  0.5334666136651 1.0
C      1  0.2346435615228  0.4944089127390  0.5367200983240 1.0
C      1  0.3485785965691  0.4848452759855  0.7911937675249 1.0
C      1  0.7438372985243  0.5421585521724  0.2892266054865 1.0
C      1  0.1811934855721  0.3842558961442  0.3935130703850 1.0
C      1  0.7431424840564  0.4496789046534  0.2676526382972 1.0
C      1  0.7614898194920  0.3734119050905  0.6249797096406 1.0
C      1  0.2942113812705  0.7257838498579  0.5944792220987 1.0
C      1  0.4549093489937  0.6844655701168  0.7065955684309 1.0
C      1  0.6317526057422  0.2692208814520  0.4226528285699 1.0
C      1  0.3470837677332  0.4621278044277  0.3353607403841 1.0
C      1  0.6048939547408  0.4841945225497  0.5887510739701 1.0
C      1  0.5425457847356  0.5242700309062  0.8884698332051 1.0
C      1  0.3767326753248  0.2402640447871  0.3714357222865 1.0
C      1  0.3894998083959  0.7174976985925  0.6339795078019 1.0
C      1  0.7051403259703  0.2975587579137  0.6456554193789 1.0
C      1  0.3443308079420  0.3684431315471  0.2960056512611 1.0
C      1  0.6067322696609  0.8059318903449  0.3966324305479 1.0
C      1  0.7368027724430  0.3204465376701  0.5551395148092 1.0
C      1  0.6737763936885  0.6091430434952  0.6669710256426 1.0
C      1  0.6374688541358  0.5387263419426  0.5100600576242 1.0
C      1  0.2075228407296  0.6000107052919  0.7472422415264 1.0
C      1  0.6242748234973  0.8032234840058  0.5631572992459 1.0
C      1  0.5183019285824  0.3318048703027  0.7782788863083 1.0
C      1  0.2283331823887  0.3028944489998  0.3921271138372 1.0
C      1  0.5305685707639  0.4405085600854  0.9219825771296 1.0
C      1  0.5675278192914  0.6107865971139  0.4953236219712 1.0
C      1  0.2694018051288  0.3988810582202  0.6581951148725 1.0
C      1  0.7009283256921  0.5285967001706  0.8153643822791 1.0
C      1  0.4424836799135  0.3623209346054  0.2905767496139 1.0
C      1  0.4270495239321  0.6466232696664  0.2745689738576 1.0
C      1  0.5290729952983  0.5947275666213  0.8294029118789 1.0
C      1  0.2497644641349  0.6900159337016  0.5107382994090 1.0
C      1  0.5212009259579  0.6523256309049  0.5625679011854 1.0
C      1  0.4447817052186  0.7896032216993  0.5771437368109 1.0
C      1  0.6881666807078  0.2955562161649  0.2368666853433 1.0
C      1  0.7431084857874  0.2609714227283  0.3125465064540 1.0
C      1  0.4333961816042  0.6874542849501  0.5488792092872 1.0
C      1  0.7323624312372  0.7143138006736  0.4803015983762 1.0
C      1  0.6359518457338  0.6919066614507  0.6784072382787 1.0
C      1  0.6831125643344  0.7537406672349  0.6213100340165 1.0
C      1  0.3727869584319  0.4629943209706  0.4396604718174 1.0
C      1  0.5281919971583  0.2593155775712  0.2588212315530 1.0
C      1  0.3455807931654  0.2220953028002  0.4583168212651 1.0
C      1  0.4102821290819  0.2403077915949  0.7126443914019 1.0
C      1  0.3054662196568  0.2946660923355  0.3331247932154 1.0
C      1  0.6595152627497  0.2229059165365  0.3478674530170 1.0
C      1  0.2807588027608  0.6237320689617  0.7822738519774 1.0
C      1  0.5390245010945  0.7887189195047  0.5994129850476 1.0
C      1  0.4908403770482  0.1950627094792  0.7228259883932 1.0
C      1  0.2684760352367  0.2995103390622  0.6264368524610 1.0
C      1  0.2315608830344  0.6311711652697  0.4389452922648 1.0
C      1  0.4731012498256  0.7282729143236  0.2269797727007 1.0
C      1  0.2010722465329  0.5413623772482  0.4549787262060 1.0
C      1  0.5659826799409  0.2563549477271  0.7373023968687 1.0
C      1  0.6488765305844  0.2570835396786  0.6997822003228 1.0
C      1  0.2188033890650  0.2791556396823  0.5552086532583 1.0
C      1  0.4838341402432  0.2801221870538  0.5168839264262 1.0
C      1  0.4621784108327  0.4523277284475  0.4226559455658 1.0
C      1  0.3513712260589  0.5144399534641  0.1861709062535 1.0
C      1  0.4498273253168  0.6271988327707  0.7796335379483 1.0
C      1  0.2040927757006  0.5159461134847  0.7065979161623 1.0
C      1  0.7738671362866  0.4624695030230  0.6585458511697 1.0
C      1  0.6616922379519  0.5922841240105  0.2804307527363 1.0
C      1  0.4041536271615  0.7635359146289  0.4905149520782 1.0
C      1  0.6175217313991  0.5598144790821  0.8371835075364 1.0
C      1  0.7579113581546  0.6250063887175  0.4458617083354 1.0
C      1  0.2507797999683  0.2535768477392  0.4704349660786 1.0
C      1  0.5910771859986  0.5446188531902  0.3461586738525 1.0
C      1  0.5142585373953  0.3477207910485  0.2256047097038 1.0
C      1  0.6362306630193  0.5180973896194  0.6705873061010 1.0
C      1  0.5414284621443  0.7031444552848  0.6565215856998 1.0
C      1  0.4561933805177  0.4546747442395  0.3255054329802 1.0
C      1  0.4999040220701  0.3445322284006  0.5833279253116 1.0
C      1  0.3065205695534  0.7637779245536  0.5105057378654 1.0
C      1  0.3519552641980  0.4182729957011  0.6044390769055 1.0
C      1  0.6293511659117  0.6538295141665  0.2265198673479 1.0
C      1  0.3822663126860  0.7936875139198  0.3287420762816 1.0
C      1  0.7871109242834  0.4075471366436  0.3451049080105 1.0
C      1  0.6585301399676  0.7858701016484  0.4683564503577 1.0
C      1  0.6722970058231  0.3916582015208  0.2288457305028 1.0
C      1  0.4970362042069  0.3940045951305  0.8468590672769 1.0
C      1  0.4645529549823  0.8092639503168  0.2757975727180 1.0
C      1  0.2034859707165  0.4687527899426  0.6213163874534 1.0
C      1  0.4686229894815  0.6617655144511  0.3666611493191 1.0
C      1  0.7376420046591  0.5666298494285  0.5252101483936 1.0
C      1  0.3317290652417  0.6195763793565  0.2969384517913 1.0
C      1  0.4870699979767  0.5797152632027  0.2157704540735 1.0
C      1  0.4463447857167  0.7565837847296  0.3996868907197 1.0
C      1  0.3619169425432  0.5827430801011  0.8001936169072 1.0
C      1  0.1749314899620  0.4677141564933  0.4028502255026 1.0
C      1  0.4270876901840  0.3405631887158  0.7384335217257 1.0
C      1  0.5579435650929  0.4118296807476  0.5554814415433 1.0
C      1  0.6258600908927  0.4769291099985  0.4244837747770 1.0
C      1  0.2712700249007  0.4564680298356  0.7416125928419 1.0
C      1  0.7973874726706  0.5310509517404  0.5967175396699 1.0
C      1  0.4707906823236  0.2759334914392  0.3452620771391 1.0
C      1  0.7081126783736  0.4882133817101  0.7336432736541 1.0
C      1  0.3249284206830  0.4568050238921  0.5240529001095 1.0
END
