TITL C-30538-2259-18 -2.675 3375.00 -469.69596006 0 0 55 (C1) n - 1
REM
REM Run started: at 2020.12.28 05:30:50 in /rds/project/t2_vol4/rds-t2-cs072/BORA/CARBON/AIRSS/Generating-Clusters/Str-Search/Higher-Symm/C10-100
REM VASP from code version vasp.5.4.4.18Apr17-6-g9f103f2a35 (build Oct 11 2019 16:45:47) gamma-only
REM
REM
REM
REM
REM ./C.cell (f39ce9773e2efe3fa5bbdf770a4156b8)
REM AIRSS Version 0.9.1 bugfix July 2018 build 013d7b7c2542+ Fri, 06 Jul 2018 19:26:36 +0100
REM compiler GCC version 4.8.5 20150623 (Red Hat 4.8.5-39)
REM options -cpp -mtune=generic -march=x86-64 -g -O0
REM seed -48682258 413490783 1051605184 -135392631 117614878 610341687 168423347 1159029618 -1801371142 1955109051 -1771644415 -1251303149
REM
REM C.POTCAR (d86ddea03c3ceb6dc662c8ad6801f873)
REM 
CELL 1.54180   15.00000   15.00000   15.00000   90.00000   90.00000   90.00000
LATT -1
SFAC C  
C      1  0.5678580231386  0.6795642022116  0.5498986153993 1.0
C      1  0.5378121783695  0.5352245447086  0.7690820509661 1.0
C      1  0.5671216911178  0.3132814737563  0.5892922944171 1.0
C      1  0.5610368494848  0.3663506128468  0.3298612014345 1.0
C      1  0.5426549236564  0.6229193469977  0.2674372610346 1.0
C      1  0.5681936880250  0.6779609478391  0.4525391045918 1.0
C      1  0.5395778860619  0.5314913438744  0.2358586400619 1.0
C      1  0.5611375578622  0.2979242888203  0.3967695180284 1.0
C      1  0.5642676895323  0.3745527161265  0.6637333796794 1.0
C      1  0.5401508478507  0.6259385860755  0.7350094680828 1.0
C      1  0.6341232065501  0.6209190008531  0.4062483944397 1.0
C      1  0.6252870661616  0.6090644004426  0.6896657845902 1.0
C      1  0.6335277394084  0.4438458318732  0.6668677944339 1.0
C      1  0.6398463946689  0.2708395626766  0.4422384091175 1.0
C      1  0.6236087102727  0.5105819394068  0.2831878721274 1.0
C      1  0.6349653758784  0.6255329098778  0.5980521727354 1.0
C      1  0.6251706740685  0.6031024735848  0.3155655462231 1.0
C      1  0.6312969332456  0.4364130780199  0.3401916510650 1.0
C      1  0.6383569231727  0.3203925906198  0.5226064792029 1.0
C      1  0.6227913381603  0.5170106825093  0.7235781971696 1.0
C      1  0.4010359292326  0.3055474948360  0.4110234435114 1.0
C      1  0.3839354750540  0.5264213404570  0.2716143759308 1.0
C      1  0.4080729759735  0.7085069670406  0.4536039048893 1.0
C      1  0.3863917168307  0.6146951684279  0.6966009707088 1.0
C      1  0.4025969171268  0.3598010182633  0.6651943086928 1.0
C      1  0.4053110777000  0.3058529772301  0.5879423016046 1.0
C      1  0.3837965036611  0.5256701508064  0.7289561049215 1.0
C      1  0.4073945566986  0.7086735815489  0.5469560569067 1.0
C      1  0.3873749140104  0.6157262572171  0.3032187656438 1.0
C      1  0.3977962654404  0.3583052524227  0.3326866269502 1.0
C      1  0.3247259098415  0.4143202443706  0.3715280949858 1.0
C      1  0.3219479200724  0.5963094286962  0.3747920543125 1.0
C      1  0.3286661923882  0.6474346541314  0.5499662858841 1.0
C      1  0.3200906876137  0.4997450666891  0.6575648574098 1.0
C      1  0.3308237710335  0.3565221999541  0.5460493741652 1.0
C      1  0.3266371893032  0.4133188159396  0.6283523861681 1.0
C      1  0.3215010379215  0.5951206837577  0.6247224257772 1.0
C      1  0.3288062617352  0.6480766407966  0.4496850629656 1.0
C      1  0.3195295631878  0.5009832268520  0.3422777785527 1.0
C      1  0.3292952074583  0.3573500354300  0.4543793651696 1.0
C      1  0.4869829364021  0.6974653669554  0.4031003620447 1.0
C      1  0.4689660859787  0.6617605203185  0.6867981683838 1.0
C      1  0.4793410827853  0.3947237800435  0.7066517639518 1.0
C      1  0.4820493791436  0.2801973600598  0.4499879525618 1.0
C      1  0.4637139628589  0.4789998452523  0.2493804451436 1.0
C      1  0.4857970051688  0.6985012937669  0.5981166146111 1.0
C      1  0.4709048050886  0.6605843860553  0.3142220182304 1.0
C      1  0.4756922807430  0.3926129535951  0.2921978331901 1.0
C      1  0.4862119455071  0.2815899941773  0.5470399815524 1.0
C      1  0.4644163742819  0.4799108516338  0.7522268067414 1.0
C      1  0.6766910202999  0.4059897609657  0.5096245345143 1.0
C      1  0.6736683645819  0.4572454625592  0.4264139515935 1.0
C      1  0.6752151316031  0.5495564958103  0.4552965097648 1.0
C      1  0.6774547302692  0.5544208613932  0.5500654192193 1.0
C      1  0.6770791263180  0.4651495294255  0.5840792585460 1.0
END
