TITL C-30174-3500-10 -3.742 3375.00 -594.01076313 0 0 75 (C1) n - 1
REM
REM Run started: at 2020.12.28 04:16:57 in /rds/project/t2_vol4/rds-t2-cs072/BORA/CARBON/AIRSS/Generating-Clusters/Str-Search/Higher-Symm/C10-100
REM VASP from code version vasp.5.4.4.18Apr17-6-g9f103f2a35 (build Oct 11 2019 16:45:47) gamma-only
REM
REM
REM
REM
REM ./C.cell (f39ce9773e2efe3fa5bbdf770a4156b8)
REM AIRSS Version 0.9.1 bugfix July 2018 build 013d7b7c2542+ Fri, 06 Jul 2018 19:26:36 +0100
REM compiler GCC version 4.8.5 20150623 (Red Hat 4.8.5-39)
REM options -cpp -mtune=generic -march=x86-64 -g -O0
REM seed -1003103875 -1678923124 1772293950 -2100443414 -1154734875 1044980794 1817377905 1433809768 901665216 1170904292 -334101197 1553687638
REM
REM C.POTCAR (d86ddea03c3ceb6dc662c8ad6801f873)
REM 
CELL 1.54180   15.00000   15.00000   15.00000   90.00000   90.00000   90.00000
LATT -1
SFAC C  
C      1  0.3598508680778  0.6725331582670  0.2391551827663 1.0
C      1  0.3578713561220  0.2525946961716  0.2799043167276 1.0
C      1  0.3456850524134  0.2834486094516  0.7194854743737 1.0
C      1  0.3701002880709  0.7169510194694  0.6826012382574 1.0
C      1  0.6122983127213  0.6868210990830  0.7237288015227 1.0
C      1  0.6370443237041  0.3082691317472  0.6589509186008 1.0
C      1  0.6678492743916  0.3106831631961  0.2646054296111 1.0
C      1  0.6535426474962  0.7337712822699  0.2950583172975 1.0
C      1  0.4776776475816  0.6135446587325  0.3054049404791 1.0
C      1  0.4734820614810  0.3199991314701  0.3543825701741 1.0
C      1  0.4510645770164  0.3779340762398  0.6676532249317 1.0
C      1  0.4784950949489  0.6628330756426  0.5907243985653 1.0
C      1  0.5074823166064  0.5953948198931  0.6463466174469 1.0
C      1  0.5068139495385  0.3417419660204  0.6030764422020 1.0
C      1  0.5328069413358  0.3695694078444  0.3103867450561 1.0
C      1  0.5265393305459  0.6752638472548  0.3505559117263 1.0
C      1  0.4009606410757  0.7031531233088  0.4635456307354 1.0
C      1  0.4092941689567  0.4800928685858  0.2495609459979 1.0
C      1  0.3766168076614  0.2855621089649  0.4787486722023 1.0
C      1  0.3918236631357  0.4985878834705  0.7548056788205 1.0
C      1  0.6100088822551  0.7193750494639  0.4833043358722 1.0
C      1  0.6211089441110  0.5181860312598  0.7435104630646 1.0
C      1  0.5895352611064  0.2929866696777  0.4790789088163 1.0
C      1  0.6182428957724  0.5017098291312  0.2816546076537 1.0
C      1  0.4647527726006  0.5228862975568  0.6041649463546 1.0
C      1  0.5501114643017  0.6573608336968  0.4418100037136 1.0
C      1  0.5494029585756  0.4636861230277  0.3496658852847 1.0
C      1  0.5246432877535  0.3687650047198  0.5025834500200 1.0
C      1  0.4550963705158  0.5130407807262  0.3350523612992 1.0
C      1  0.4707854030615  0.6301485328535  0.4950139037490 1.0
C      1  0.4225819085348  0.4666470715722  0.6653292910300 1.0
C      1  0.4353041318997  0.3616885198199  0.4407602549626 1.0
C      1  0.6545240616272  0.6950639447231  0.5644562296166 1.0
C      1  0.6697993116097  0.5737870889398  0.2812162422917 1.0
C      1  0.6598233637316  0.2875645367542  0.4250701089941 1.0
C      1  0.6763283076413  0.4740586657178  0.6800501462863 1.0
C      1  0.3427458949309  0.7047489272398  0.3963107713393 1.0
C      1  0.3284078230384  0.5749167276792  0.7768461647412 1.0
C      1  0.3290345886745  0.2782266438849  0.5536855376870 1.0
C      1  0.3540969433821  0.4112867970964  0.2376083778482 1.0
C      1  0.4110961201823  0.4139825057764  0.8157467728487 1.0
C      1  0.4290264360051  0.7826063211326  0.5211831598522 1.0
C      1  0.4501661154098  0.5360423783874  0.1750456655434 1.0
C      1  0.4200916996624  0.2034209732652  0.4350887105532 1.0
C      1  0.5944140243978  0.4503726220158  0.1963156010007 1.0
C      1  0.5722963716786  0.8000412910754  0.4328008372649 1.0
C      1  0.5501533456944  0.5286031334240  0.7982055768424 1.0
C      1  0.5569156781467  0.2146447142421  0.5350789764747 1.0
C      1  0.5790086757907  0.7624202363802  0.3365610297928 1.0
C      1  0.5977202629185  0.3578126602031  0.2336781094347 1.0
C      1  0.5642964781232  0.2624302955654  0.6215220271154 1.0
C      1  0.5610763291148  0.6029339353768  0.7303522095018 1.0
C      1  0.4265393932683  0.7392702448041  0.6121185340530 1.0
C      1  0.4090157167366  0.3383666845529  0.7522798279585 1.0
C      1  0.4226412758140  0.2344679973528  0.3398560898987 1.0
C      1  0.4323156436264  0.6249771233386  0.2157181807199 1.0
C      1  0.3392276549715  0.3270246959940  0.2390598342054 1.0
C      1  0.3222799427744  0.2640088894183  0.6380195244234 1.0
C      1  0.3451133942214  0.6558882721908  0.7340673938486 1.0
C      1  0.3260550463657  0.7054304272938  0.3122770400479 1.0
C      1  0.6743316498423  0.3804994338443  0.6788275050268 1.0
C      1  0.6864126878293  0.2813473334144  0.3439620832813 1.0
C      1  0.6865054345530  0.6576525044825  0.2704666097436 1.0
C      1  0.6375519292826  0.7255783514810  0.6539531919809 1.0
C      1  0.4694717233359  0.4821756595141  0.8159617939939 1.0
C      1  0.4992844928534  0.8222726439501  0.4805185150469 1.0
C      1  0.5274388356922  0.4951409951200  0.1581299586105 1.0
C      1  0.4878070749693  0.1821006879182  0.4893027116703 1.0
C      1  0.4300872601955  0.4684030193648  0.4305225530496 1.0
C      1  0.5348959293233  0.4631040045750  0.4566058100849 1.0
C      1  0.2169038385277  0.5442282057284  0.9103114999893 1.0
C      1  0.6884317749878  0.6074156510019  0.5746324937849 1.0
C      1  0.2653257089828  0.5601917510371  0.8416725986171 1.0
C      1  0.7026765646582  0.5343559200606  0.6122205568275 1.0
C      1  0.4669295920592  0.5268809340935  0.5035166687924 1.0
END
