TITL C-30513-3949-10 -6.088 3375.00 -1083.18150822 0 0 133 (C2) n - 1
REM
REM Run started: at 2020.12.22 03:23:41 in /gpfs/home/chem/mssmkc/CARBON/AIRSS/Generating-Clusters/Str-Search/Higher-Symm/C100-200
REM VASP from code version vasp.5.4.4.18Apr17-6-g9f103f2a35 (build Oct 11 2019 16:45:47) gamma-only
REM
REM
REM
REM
REM ./C.cell (533062f00bc710175b3da973d35f2034)
REM AIRSS Version 0.9.1 bugfix July 2018 build 013d7b7c2542+ Fri, 06 Jul 2018 19:26:36 +0100
REM compiler GCC version 6.3.0
REM options -cpp -iprefix /gpfs/warwick/csc/orac/software/Core/GCCcore/6.3.0/bin/../lib/gcc/x86_64-pc-linux-gnu/6.3.0/ -mtune=generic -march=x86-64 -g -O0
REM seed -20387335 870349519 -1595819726 1108623610 -659913453 733107320 -1256712277 -2102403361 -2068627902 509138615 1467459037 209374292
REM
REM C.POTCAR (d86ddea03c3ceb6dc662c8ad6801f873)
REM 
CELL 1.54180   15.00000   15.00000   15.00000   90.00000   90.00000   90.00000
LATT -1
SFAC C  
C      1  0.5058847819272  0.3065891455992  0.7710968820985 1.0
C      1  0.7431162704457  0.3090966882101  0.3662492171130 1.0
C      1  0.2579726308667  0.3082563723032  0.3498621842532 1.0
C      1  0.4951188197826  0.6922406364527  0.2232235158961 1.0
C      1  0.7509315055775  0.6923834964389  0.6355887927177 1.0
C      1  0.2622780907498  0.6936968710249  0.6303214693253 1.0
C      1  0.4396072352605  0.3870907384442  0.4502413034107 1.0
C      1  0.4862312603602  0.3450040020594  0.6092657606074 1.0
C      1  0.5909970623061  0.3866196393135  0.4914907859554 1.0
C      1  0.4126098314970  0.6553951441233  0.5669904335214 1.0
C      1  0.4624770250025  0.6139857230846  0.4175926529949 1.0
C      1  0.5738365927476  0.6137104022509  0.5280645228711 1.0
C      1  0.4063932597940  0.3847736103224  0.2340870229692 1.0
C      1  0.3135327960279  0.3912213707103  0.7049445049268 1.0
C      1  0.7911632455295  0.3806644348883  0.5504554343882 1.0
C      1  0.4156058277546  0.6089341211920  0.7640639130205 1.0
C      1  0.3107828722396  0.6205122569243  0.2736475496206 1.0
C      1  0.7775191704083  0.6166862401543  0.4487963871384 1.0
C      1  0.5085590636998  0.1841360787463  0.5561757482361 1.0
C      1  0.5468940228197  0.2031356948799  0.4751922218451 1.0
C      1  0.4487035839942  0.2298368936102  0.4875195350772 1.0
C      1  0.4985630599214  0.7976598539132  0.4478878082652 1.0
C      1  0.5366097274982  0.7709435440756  0.5391555749629 1.0
C      1  0.4472750206945  0.8163691756771  0.5213495802191 1.0
C      1  0.6230250519822  0.3932073280805  0.8036127665216 1.0
C      1  0.6981766901940  0.4014373560707  0.2615279390576 1.0
C      1  0.1802788012792  0.4033058729261  0.4349917686961 1.0
C      1  0.6083631714827  0.6001099349129  0.2096834327437 1.0
C      1  0.7165807707700  0.5968830033709  0.7453452436612 1.0
C      1  0.1759424322872  0.6071810705225  0.5449225453385 1.0
C      1  0.6946228350428  0.6975896498644  0.7105265452063 1.0
C      1  0.5864444256659  0.6986321213366  0.2410836011595 1.0
C      1  0.2244307757326  0.7105005764620  0.5475252677899 1.0
C      1  0.6821514020704  0.3026716406638  0.2959601419375 1.0
C      1  0.5965360156710  0.2899915103659  0.7626284152882 1.0
C      1  0.2212779224020  0.3028761485653  0.4362732023001 1.0
C      1  0.2907394215703  0.7627988264306  0.4957493393003 1.0
C      1  0.6138083060768  0.7423574952300  0.6779176743233 1.0
C      1  0.5975504053203  0.7468874556840  0.3262569166002 1.0
C      1  0.2898849202175  0.2582790871451  0.4898764917158 1.0
C      1  0.6028488152173  0.2541918311790  0.3286772560359 1.0
C      1  0.6088238159970  0.2377424540946  0.6793479195293 1.0
C      1  0.3762916101194  0.5229563839546  0.1415947160019 1.0
C      1  0.2569136820370  0.5296960001782  0.7837035371972 1.0
C      1  0.8783828385311  0.5238023594298  0.5624477602340 1.0
C      1  0.3753024499985  0.4704049074017  0.8522107283928 1.0
C      1  0.2564412947111  0.4775301307286  0.2038900492678 1.0
C      1  0.8728859699449  0.4787469098331  0.4274787434607 1.0
C      1  0.1108944183573  0.4667703217295  0.4704191599879 1.0
C      1  0.6915127209420  0.4564586752514  0.8414509506102 1.0
C      1  0.7002401769279  0.4617265113133  0.1833052268082 1.0
C      1  0.1092544614226  0.5438533300703  0.5039968333706 1.0
C      1  0.6755357464060  0.5401452516181  0.1692651942587 1.0
C      1  0.7201012122443  0.5334113386081  0.8233033273875 1.0
C      1  0.3923385464387  0.6497486273242  0.4704840177206 1.0
C      1  0.5122276720571  0.6756249245619  0.5781637060019 1.0
C      1  0.5505835188095  0.6130954035975  0.4386400590971 1.0
C      1  0.4268638443978  0.3250009491406  0.5285144043003 1.0
C      1  0.5286971146853  0.3876114504021  0.4256421003887 1.0
C      1  0.5800731990898  0.3507287176920  0.5786908970184 1.0
C      1  0.6269555813080  0.7758678415647  0.5884069272338 1.0
C      1  0.5095816484554  0.7770450551582  0.3548004686958 1.0
C      1  0.3612760778433  0.7941322719121  0.5560951726876 1.0
C      1  0.6220877444662  0.2238999990445  0.4192034148104 1.0
C      1  0.5213537735163  0.2063888449159  0.6480404788785 1.0
C      1  0.3609896666250  0.2251044008906  0.4336950742251 1.0
C      1  0.7107173781804  0.7374479877605  0.5542388472424 1.0
C      1  0.4398732375392  0.7383297498086  0.2908634365715 1.0
C      1  0.3602945654436  0.7221454015616  0.6346110151974 1.0
C      1  0.7122523479490  0.2626674719897  0.4477192727314 1.0
C      1  0.4536424299160  0.2781571453739  0.6881567318895 1.0
C      1  0.3486091587754  0.2634412044486  0.3440184614270 1.0
C      1  0.4201508293358  0.2976431529255  0.2869102662702 1.0
C      1  0.3514394587805  0.3093200595964  0.6704499058235 1.0
C      1  0.7353002442306  0.2958423025239  0.5343624913753 1.0
C      1  0.4266576326092  0.6909706781654  0.7143180945272 1.0
C      1  0.3532111948080  0.7051046389335  0.3140228776889 1.0
C      1  0.7244965519654  0.7034040502255  0.4638424052261 1.0
C      1  0.4689636659233  0.4334338118386  0.6472143682969 1.0
C      1  0.6696339979164  0.4300550001443  0.4865330873475 1.0
C      1  0.3974806880638  0.4295585809866  0.3804668091393 1.0
C      1  0.4274782977283  0.5711683220520  0.3465919010469 1.0
C      1  0.6552628612271  0.5711153637014  0.5297153470565 1.0
C      1  0.3883561723439  0.5669500198156  0.6009269364676 1.0
C      1  0.7133956704108  0.4409143013880  0.5787923420601 1.0
C      1  0.4612974338644  0.4421820907057  0.2946181774026 1.0
C      1  0.2816609894535  0.4461490734638  0.6291864924442 1.0
C      1  0.6979141773241  0.5590343764069  0.4314222939060 1.0
C      1  0.4972518493437  0.5541580393581  0.7538731155381 1.0
C      1  0.3258507532896  0.5599270364604  0.3547841933018 1.0
C      1  0.5280576334797  0.6862543962575  0.6791353672099 1.0
C      1  0.6608933510924  0.7025810797424  0.3863784908122 1.0
C      1  0.3239938226596  0.7068737310596  0.4172902242074 1.0
C      1  0.5190356277875  0.2985173514268  0.3034679175856 1.0
C      1  0.6603781529714  0.2937713395494  0.6114203136566 1.0
C      1  0.3314216136345  0.3142135069733  0.5650892228699 1.0
C      1  0.2251859886035  0.4042762121607  0.3380143422041 1.0
C      1  0.5140171047260  0.3960238231426  0.8138930483072 1.0
C      1  0.7667017918986  0.4066140142068  0.3427272485705 1.0
C      1  0.2210491301745  0.6042669168380  0.6445202277271 1.0
C      1  0.5035371647258  0.5948333911650  0.1907278694510 1.0
C      1  0.7779430747376  0.5963498159882  0.6574838680061 1.0
C      1  0.6952173840845  0.4624005081057  0.3991984078868 1.0
C      1  0.3064486273337  0.4617639734197  0.3795353302350 1.0
C      1  0.5123538416222  0.4574529808427  0.7321570619305 1.0
C      1  0.7014759128337  0.5389821788287  0.6081954975624 1.0
C      1  0.2930588885276  0.5429523915551  0.6054627309092 1.0
C      1  0.4904654690667  0.5389235279919  0.2808611985167 1.0
C      1  0.3026699709375  0.4420386476457  0.7888771265214 1.0
C      1  0.8655584489360  0.4354319671630  0.5208629191589 1.0
C      1  0.3480869443072  0.4353591532139  0.1759890242687 1.0
C      1  0.2986106760729  0.5659952052443  0.1942641516061 1.0
C      1  0.8570486288045  0.5661173719483  0.4695401381845 1.0
C      1  0.3480478041903  0.5581611817867  0.8151782490911 1.0
C      1  0.6276698524669  0.6046821303626  0.3781627597125 1.0
C      1  0.3072833488382  0.6089055936393  0.4393977039182 1.0
C      1  0.5596106473069  0.5971289337818  0.7068680435132 1.0
C      1  0.6494201615510  0.3916579349815  0.6370888477800 1.0
C      1  0.2917591323799  0.4033692081542  0.5516408627252 1.0
C      1  0.5425287986209  0.3964196729341  0.3286059420345 1.0
C      1  0.1974175943139  0.5643379802408  0.7295420386084 1.0
C      1  0.8623788434854  0.5523083477988  0.6441930704264 1.0
C      1  0.4574195727807  0.5499156271394  0.1194741874387 1.0
C      1  0.1938927105592  0.4492956301726  0.2590045003311 1.0
C      1  0.8513731971053  0.4517861002526  0.3461515271411 1.0
C      1  0.4518519146643  0.4355304552920  0.8766152018055 1.0
C      1  0.5938028237923  0.5485030568482  0.3002894619372 1.0
C      1  0.2584358224530  0.5539475924613  0.5075113276345 1.0
C      1  0.6417970265787  0.5435023142926  0.6922961553731 1.0
C      1  0.6145347583816  0.4464967522288  0.7134697541673 1.0
C      1  0.2634036471707  0.4570091110546  0.4732176173236 1.0
C      1  0.6267566367346  0.4528152864810  0.3193100434052 1.0
C      1  0.4431150659677  0.5000980423686  0.5986134915932 1.0
END
