TITL C-30544-8579-33 -1.439 3375.00 -227.86393377 0 0 29 (C1) n - 1
REM
REM Run started: at 2020.12.28 11:25:42 in /rds/project/t2_vol4/rds-t2-cs072/BORA/CARBON/AIRSS/Generating-Clusters/Str-Search/Higher-Symm/C10-100
REM VASP from code version vasp.5.4.4.18Apr17-6-g9f103f2a35 (build Oct 11 2019 16:45:47) gamma-only
REM
REM
REM
REM
REM ./C.cell (f39ce9773e2efe3fa5bbdf770a4156b8)
REM AIRSS Version 0.9.1 bugfix July 2018 build 013d7b7c2542+ Fri, 06 Jul 2018 19:26:36 +0100
REM compiler GCC version 4.8.5 20150623 (Red Hat 4.8.5-39)
REM options -cpp -mtune=generic -march=x86-64 -g -O0
REM seed -119920352 167246931 1653076778 1567784227 -1881223167 -1216598568 1305536380 -1873033354 -2055641864 314282056 2040923546 -1023538891
REM
REM C.POTCAR (d86ddea03c3ceb6dc662c8ad6801f873)
REM 
CELL 1.54180   15.00000   15.00000   15.00000   90.00000   90.00000   90.00000
LATT -1
SFAC C  
C      1  0.5520017488255  0.6573854743378  0.4808764721175 1.0
C      1  0.4802070331327  0.3701710074508  0.3525720779281 1.0
C      1  0.4829356249775  0.3443546177000  0.5318540745573 1.0
C      1  0.6104977730603  0.5890715771153  0.5059591488138 1.0
C      1  0.4264936368029  0.6596678555715  0.4259742233493 1.0
C      1  0.5192459420116  0.5926501700277  0.3206942971709 1.0
C      1  0.4705882433077  0.4566748417585  0.3144692789287 1.0
C      1  0.3869851693310  0.5210450107037  0.6780064751169 1.0
C      1  0.6404219017821  0.5147854786423  0.5581885411999 1.0
C      1  0.6585523322494  0.4169147625872  0.7145055601454 1.0
C      1  0.3942012621109  0.6039454867347  0.6499019600921 1.0
C      1  0.5399448044909  0.4226504698692  0.6605529233756 1.0
C      1  0.4252455124383  0.6656683227443  0.6000877780942 1.0
C      1  0.5689045907558  0.3682861655094  0.3963706115887 1.0
C      1  0.5726605733213  0.4534338759488  0.7459142978248 1.0
C      1  0.4639199759952  0.3904526828391  0.6082528911408 1.0
C      1  0.5163941200828  0.6543118282714  0.3880759256933 1.0
C      1  0.5505135574497  0.3020084092637  0.4699218588858 1.0
C      1  0.6387347354247  0.5072287968645  0.4659340575695 1.0
C      1  0.4620481725414  0.6762944277890  0.5182367357626 1.0
C      1  0.3520203937949  0.4809742939914  0.5291001754676 1.0
C      1  0.3781027031196  0.5812514845769  0.3970794608497 1.0
C      1  0.3896682165198  0.4545853467358  0.6113661041989 1.0
C      1  0.4634077163649  0.3311817631289  0.4396507054314 1.0
C      1  0.6089397755117  0.4569822105344  0.3914566376878 1.0
C      1  0.3376384762471  0.5259744114502  0.4615359923913 1.0
C      1  0.5558814631145  0.5037105053700  0.3270250941459 1.0
C      1  0.6234683386465  0.4550520240360  0.6315000581586 1.0
C      1  0.4303762065895  0.5432863984475  0.3249366823137 1.0
END
