TITL C-30219-7198-7 -2.958 3375.00 -510.74986325 0 0 62 (C1) n - 1
REM
REM Run started: at 2020.12.17 06:07:56 in /rds/project/t2_vol4/rds-t2-cs072/BORA/CARBON/AIRSS/Generating-Clusters/Str-Search/Higher-Symm/C10-100
REM VASP from code version vasp.5.4.4.18Apr17-6-g9f103f2a35 (build Oct 11 2019 16:45:47) gamma-only
REM
REM
REM
REM
REM ./C.cell (f39ce9773e2efe3fa5bbdf770a4156b8)
REM AIRSS Version 0.9.1 bugfix July 2018 build 013d7b7c2542+ Fri, 06 Jul 2018 19:26:36 +0100
REM compiler GCC version 4.8.5 20150623 (Red Hat 4.8.5-39)
REM options -cpp -mtune=generic -march=x86-64 -g -O0
REM seed -511448810 1620615598 -301634061 -275733428 -1732702111 710307032 -964430208 -262138396 1293859638 -475155208 642024947 1034321280
REM
REM C.POTCAR (d86ddea03c3ceb6dc662c8ad6801f873)
REM 
CELL 1.54180   15.00000   15.00000   15.00000   90.00000   90.00000   90.00000
LATT -1
SFAC C  
C      1  0.3272759813257  0.6252545605540  0.3934132845460 1.0
C      1  0.3414462252790  0.4359180650045  0.3486661355428 1.0
C      1  0.3229489271010  0.3369727931949  0.5173193916706 1.0
C      1  0.3224117861584  0.4588150037140  0.6629030929330 1.0
C      1  0.3455973478910  0.6409301321013  0.5889016130433 1.0
C      1  0.6675621467699  0.4391460921781  0.6543948789292 1.0
C      1  0.6993475590082  0.5663547661554  0.5667981477049 1.0
C      1  0.6993832618507  0.5606309131715  0.4286318649486 1.0
C      1  0.7033879512053  0.4318638323061  0.3429900063206 1.0
C      1  0.7182968402673  0.4070457316935  0.5020109030571 1.0
C      1  0.3779741156436  0.6955257817947  0.4330486306440 1.0
C      1  0.3789346714538  0.5048207880023  0.2887624353686 1.0
C      1  0.3691180048295  0.2992252478724  0.4432418880412 1.0
C      1  0.3722028246338  0.3753832387781  0.6718173599553 1.0
C      1  0.3815037382059  0.6173442583346  0.6778523435002 1.0
C      1  0.3799448469951  0.3457376474704  0.3603587793275 1.0
C      1  0.3744781578088  0.3208038097211  0.5969367700231 1.0
C      1  0.3707689500404  0.5263837088398  0.7064553397644 1.0
C      1  0.3881529984879  0.7046963078368  0.5275625299655 1.0
C      1  0.3705131816235  0.5957141168776  0.3152645138216 1.0
C      1  0.5149133485788  0.2680005877719  0.4042806379270 1.0
C      1  0.5255801335813  0.3240974363965  0.6900547835409 1.0
C      1  0.5123868689437  0.5720443273626  0.7641593175396 1.0
C      1  0.5248365679673  0.7373840633618  0.4487772367193 1.0
C      1  0.5104990316036  0.5910350948340  0.2380011525971 1.0
C      1  0.4660218092964  0.6458344401825  0.7189076882943 1.0
C      1  0.4602563096774  0.7144892627024  0.3806036528218 1.0
C      1  0.4640683063418  0.5041245128072  0.2396329547375 1.0
C      1  0.4548076765308  0.2581141776020  0.4754592870690 1.0
C      1  0.4573855754138  0.3839569031635  0.7205985310213 1.0
C      1  0.6049474905496  0.3610948936890  0.6390545037081 1.0
C      1  0.5813405165798  0.5787721562336  0.6825179222817 1.0
C      1  0.6036757097303  0.6976703048844  0.5005526999725 1.0
C      1  0.5906768489937  0.5412605375936  0.2968531615973 1.0
C      1  0.5923893300059  0.3403853241049  0.3988768331576 1.0
C      1  0.4591983812897  0.4885262834944  0.7353799535015 1.0
C      1  0.4766570631071  0.7439736393863  0.5329400784714 1.0
C      1  0.4585839912446  0.6440933158750  0.3082018630968 1.0
C      1  0.4692506249985  0.3175075432724  0.3330760839850 1.0
C      1  0.4633785153351  0.2911070503746  0.5697312991369 1.0
C      1  0.2895482726147  0.4685877206965  0.4240744020040 1.0
C      1  0.2802530116937  0.4199195082830  0.5068740929768 1.0
C      1  0.2823363586956  0.4824414526688  0.5808381489573 1.0
C      1  0.2925739102711  0.5718239532898  0.5455503116373 1.0
C      1  0.2868623753917  0.5623041094785  0.4492972236679 1.0
C      1  0.5124145867794  0.5110222932449  0.6513691897750 1.0
C      1  0.5505387039528  0.7133798385379  0.5837862128392 1.0
C      1  0.5264794810032  0.5841510671619  0.3631736111724 1.0
C      1  0.5432094775571  0.3743547898713  0.3156966254463 1.0
C      1  0.5293827575273  0.3681262851203  0.5649646318206 1.0
C      1  0.5053067094755  0.4632177572235  0.5773485622552 1.0
C      1  0.5438655275783  0.6675156540345  0.6626961921808 1.0
C      1  0.5004502670585  0.5539246057597  0.4397262779416 1.0
C      1  0.5406029725158  0.4574391136685  0.2749846127006 1.0
C      1  0.5562057051538  0.3950482202052  0.4726114022734 1.0
C      1  0.6784448309739  0.5238083794272  0.3435001275756 1.0
C      1  0.6921250938665  0.3729208935636  0.4126835865278 1.0
C      1  0.6936482889733  0.3770321452888  0.5922680934865 1.0
C      1  0.6643103306739  0.5356896429336  0.6477400868125 1.0
C      1  0.6687907806625  0.6311254603771  0.4949980623351 1.0
C      1  0.7297737012861  0.5025528288912  0.4997759341435 1.0
C      1  0.5257153399469  0.4815932295804  0.4859884611866 1.0
END
