TITL C-30346-9193-29 -2.844 3375.00 -485.93666078 0 0 58 (C1) n - 1
REM
REM Run started: at 2020.12.17 10:43:06 in /rds/project/t2_vol4/rds-t2-cs072/BORA/CARBON/AIRSS/Generating-Clusters/Str-Search/Higher-Symm/C10-100
REM VASP from code version vasp.5.4.4.18Apr17-6-g9f103f2a35 (build Oct 11 2019 16:45:47) gamma-only
REM
REM
REM
REM
REM ./C.cell (f39ce9773e2efe3fa5bbdf770a4156b8)
REM AIRSS Version 0.9.1 bugfix July 2018 build 013d7b7c2542+ Fri, 06 Jul 2018 19:26:36 +0100
REM compiler GCC version 4.8.5 20150623 (Red Hat 4.8.5-39)
REM options -cpp -mtune=generic -march=x86-64 -g -O0
REM seed 2085052587 -1637887657 1314634592 774909814 -1155024188 -1610334804 426044353 -1813340958 622294578 -66602977 148960098 1514540573
REM
REM C.POTCAR (d86ddea03c3ceb6dc662c8ad6801f873)
REM 
CELL 1.54180   15.00000   15.00000   15.00000   90.00000   90.00000   90.00000
LATT -1
SFAC C  
C      1  0.4224008990390  0.6351418993901  0.6182773622857 1.0
C      1  0.5058468986835  0.6749113327131  0.6244240133145 1.0
C      1  0.6022364777737  0.6397362267866  0.6284131351257 1.0
C      1  0.6561851608908  0.5640181874421  0.6285533462010 1.0
C      1  0.6623318847411  0.4610751762869  0.6283632991949 1.0
C      1  0.6193326641441  0.3785901438326  0.6285430862305 1.0
C      1  0.5307224053074  0.3260248240006  0.6291448672754 1.0
C      1  0.4383076304761  0.3285067247453  0.6317557047792 1.0
C      1  0.3546070785404  0.3877190372103  0.6347022375490 1.0
C      1  0.3413389700003  0.4801677164097  0.6296216614814 1.0
C      1  0.4200006887830  0.5380181741578  0.6342745564469 1.0
C      1  0.6258126274571  0.7072170690428  0.4017628168830 1.0
C      1  0.7358315637909  0.5654973711720  0.4028640409433 1.0
C      1  0.7422255476558  0.4713175872940  0.4020786751900 1.0
C      1  0.6517016467812  0.3169537032739  0.4001773063073 1.0
C      1  0.5678565092408  0.2737835254830  0.3999989904482 1.0
C      1  0.3907801391882  0.2878445847370  0.4046259615856 1.0
C      1  0.3139444621060  0.3436227785056  0.4085143139871 1.0
C      1  0.2479544033585  0.5097734967632  0.4154914561383 1.0
C      1  0.2913206355784  0.6470036335490  0.3723117979921 1.0
C      1  0.3650416692384  0.7014186326256  0.3892697953417 1.0
C      1  0.5354926318828  0.7358251263505  0.3999748046784 1.0
C      1  0.6974697929104  0.3375009675567  0.4806486232289 1.0
C      1  0.5259462620030  0.2439759280656  0.4794894432461 1.0
C      1  0.4306431596001  0.2495844783822  0.4811139438662 1.0
C      1  0.2735911237293  0.3676818107308  0.4908883677289 1.0
C      1  0.2478845296660  0.4585178133143  0.4958561110338 1.0
C      1  0.2488512539320  0.6012623689744  0.4413215038027 1.0
C      1  0.3936056984469  0.7201243143637  0.4775109543552 1.0
C      1  0.4852441366943  0.7497038693249  0.4792519801390 1.0
C      1  0.6732662933293  0.6919923578423  0.4823941242915 1.0
C      1  0.7312035698500  0.6157964496000  0.4832863999606 1.0
C      1  0.7439257283192  0.4207072017144  0.4822288298483 1.0
C      1  0.6712976161997  0.4633677856108  0.3329253367034 1.0
C      1  0.6229358511882  0.3846605273865  0.3340185299275 1.0
C      1  0.5294910133812  0.3399509674043  0.3370009268143 1.0
C      1  0.4361102903567  0.3478987626339  0.3398238888207 1.0
C      1  0.3523201751939  0.4073822084913  0.3448122325459 1.0
C      1  0.3169106969334  0.4956608474612  0.3445451413724 1.0
C      1  0.3452696013487  0.5863666403965  0.3180404106959 1.0
C      1  0.4224182091487  0.6523065544366  0.3231402104763 1.0
C      1  0.5124954190562  0.6706127567589  0.3292221698280 1.0
C      1  0.6087909692438  0.6383196757030  0.3328021756411 1.0
C      1  0.6651645598452  0.5652187070457  0.3335860162353 1.0
C      1  0.2825308191597  0.6068390804894  0.5323824986987 1.0
C      1  0.3567538120265  0.6653330950767  0.5502873952068 1.0
C      1  0.5341605851113  0.7405262197863  0.5591528151528 1.0
C      1  0.6243264361421  0.7096325653927  0.5615782848486 1.0
C      1  0.7308911248141  0.5644587408778  0.5630397874997 1.0
C      1  0.7364917198790  0.4706070471146  0.5625627676444 1.0
C      1  0.6519139937509  0.3136522952188  0.5604494364787 1.0
C      1  0.5705127772378  0.2667033465388  0.5600295887994 1.0
C      1  0.3907066417870  0.2746025346238  0.5636338851790 1.0
C      1  0.3135881136355  0.3302079480845  0.5681569054809 1.0
C      1  0.2751709853594  0.5161842224671  0.5688059800293 1.0
C      1  0.5063806461998  0.4951626322277  0.4076959052381 1.0
C      1  0.5065754249255  0.4910490906784  0.4942356896251 1.0
C      1  0.4799125749381  0.5047324364541  0.5756052101772 1.0
END
