TITL C-30544-8579-6 -1.75 3375.00 -276.35814638 0 0 37 (Cs) n - 1
REM
REM Run started: at 2020.12.28 02:58:39 in /rds/project/t2_vol4/rds-t2-cs072/BORA/CARBON/AIRSS/Generating-Clusters/Str-Search/Higher-Symm/C10-100
REM VASP from code version vasp.5.4.4.18Apr17-6-g9f103f2a35 (build Oct 11 2019 16:45:47) gamma-only
REM
REM
REM
REM
REM ./C.cell (f39ce9773e2efe3fa5bbdf770a4156b8)
REM AIRSS Version 0.9.1 bugfix July 2018 build 013d7b7c2542+ Fri, 06 Jul 2018 19:26:36 +0100
REM compiler GCC version 4.8.5 20150623 (Red Hat 4.8.5-39)
REM options -cpp -mtune=generic -march=x86-64 -g -O0
REM seed -494752449 2144120365 1691861866 990751800 -1148576798 1128168316 -177694149 -1204534071 -2036155688 -407884052 313822709 -1411186556
REM
REM C.POTCAR (d86ddea03c3ceb6dc662c8ad6801f873)
REM 
CELL 1.54180   15.00000   15.00000   15.00000   90.00000   90.00000   90.00000
LATT -1
SFAC C  
C      1  0.3738901060729  0.5592767404829  0.6416140597480 1.0
C      1  0.3735772612033  0.4497183867337  0.6411357925240 1.0
C      1  0.5639974773332  0.5939211577731  0.5570006104307 1.0
C      1  0.5639101340160  0.4154335692693  0.5566894429493 1.0
C      1  0.2029930358865  0.4215689866388  0.5014678655061 1.0
C      1  0.2043553379038  0.5900120912115  0.5014272903340 1.0
C      1  0.2496375278754  0.4253879944859  0.4294369826269 1.0
C      1  0.2506800950682  0.5848919091430  0.4292603373765 1.0
C      1  0.5605678580855  0.6767804801599  0.5989804830940 1.0
C      1  0.5592070501690  0.3318515897931  0.5972717138164 1.0
C      1  0.4282651331904  0.4466599519933  0.2880792892762 1.0
C      1  0.4285122434226  0.5622399977338  0.2883227341913 1.0
C      1  0.6614827186541  0.4508592337746  0.3131912495007 1.0
C      1  0.6618798640438  0.5567622613134  0.3134295907602 1.0
C      1  0.6011543882899  0.3396045172574  0.5153983912936 1.0
C      1  0.6006896587628  0.6702299358282  0.5160135147817 1.0
C      1  0.7158246746954  0.5029492096082  0.4645599392968 1.0
C      1  0.5297967816047  0.5038894650140  0.3953598906125 1.0
C      1  0.4673597759142  0.5043470810538  0.4686968031013 1.0
C      1  0.5666600725401  0.5026251198756  0.7488222334075 1.0
C      1  0.5118969325988  0.5041668028326  0.2985238461723 1.0
C      1  0.6423895268239  0.5024899763699  0.7082645820837 1.0
C      1  0.2286622893904  0.5055634058789  0.5400588287629 1.0
C      1  0.5216531140165  0.5046144195952  0.5550955904756 1.0
C      1  0.3755027369290  0.5044838123809  0.4793239599895 1.0
C      1  0.3066531514238  0.5047107548590  0.4011773582117 1.0
C      1  0.6968366465636  0.5026104914992  0.6393046428020 1.0
C      1  0.6307308229795  0.5034839917197  0.4000564486533 1.0
C      1  0.7160291415419  0.5027288013326  0.5565562053498 1.0
C      1  0.4798318511246  0.5034056228502  0.7288163168518 1.0
C      1  0.6006121453039  0.5040470248641  0.2535153336556 1.0
C      1  0.3743403383532  0.5039125188410  0.7301454991643 1.0
C      1  0.3642972869700  0.5044740251100  0.3218005439925 1.0
C      1  0.4569880640626  0.5042906215636  0.6335205282213 1.0
C      1  0.7470371842180  0.5034355535614  0.3214840002398 1.0
C      1  0.7865540320410  0.5029331196019  0.4029665320203 1.0
C      1  0.3264987409275  0.5047839779965  0.5693067687258 1.0
END
