TITL C-30538-2259-10 -1.908 3375.00 -318.43821359 0 0 40 (C1) n - 1
REM
REM Run started: at 2020.12.28 04:10:51 in /rds/project/t2_vol4/rds-t2-cs072/BORA/CARBON/AIRSS/Generating-Clusters/Str-Search/Higher-Symm/C10-100
REM VASP from code version vasp.5.4.4.18Apr17-6-g9f103f2a35 (build Oct 11 2019 16:45:47) gamma-only
REM
REM
REM
REM
REM ./C.cell (f39ce9773e2efe3fa5bbdf770a4156b8)
REM AIRSS Version 0.9.1 bugfix July 2018 build 013d7b7c2542+ Fri, 06 Jul 2018 19:26:36 +0100
REM compiler GCC version 4.8.5 20150623 (Red Hat 4.8.5-39)
REM options -cpp -mtune=generic -march=x86-64 -g -O0
REM seed -778248366 1842229134 -385884057 371071802 985432623 871356534 -356377373 -1674007567 1652941697 -1585007888 662363377 -330358888
REM
REM C.POTCAR (d86ddea03c3ceb6dc662c8ad6801f873)
REM 
CELL 1.54180   15.00000   15.00000   15.00000   90.00000   90.00000   90.00000
LATT -1
SFAC C  
C      1  0.5698793326824  0.6923728337029  0.5926545722081 1.0
C      1  0.5683530504549  0.4840949852816  0.2816752750695 1.0
C      1  0.5711612475847  0.3129055653415  0.6186641314900 1.0
C      1  0.4205795087175  0.7110508208114  0.5754118320887 1.0
C      1  0.4209413190168  0.4639764526716  0.2812668298436 1.0
C      1  0.4228627486466  0.3260368729285  0.6360351911722 1.0
C      1  0.3864131674829  0.5664165374424  0.6277705027114 1.0
C      1  0.4002024363808  0.5818309616132  0.3831688367982 1.0
C      1  0.3993761939863  0.3546457944683  0.4842280570286 1.0
C      1  0.6234504257956  0.5370254221430  0.6257189990453 1.0
C      1  0.6155894802458  0.5961716707738  0.3932627811963 1.0
C      1  0.6147847678342  0.3572250850411  0.4671035248730 1.0
C      1  0.5523614289531  0.3933048548672  0.3158942706223 1.0
C      1  0.5538885814882  0.3917879176846  0.6758776350082 1.0
C      1  0.5560993602576  0.7089431608634  0.4987209545327 1.0
C      1  0.4591894163126  0.3840038566170  0.3234038551984 1.0
C      1  0.4600318139298  0.4004887244342  0.6865359766208 1.0
C      1  0.4626724833169  0.7079652328260  0.4849381690666 1.0
C      1  0.3748235823263  0.3821360078701  0.5745815223239 1.0
C      1  0.3692926935191  0.6333962239797  0.5552110886264 1.0
C      1  0.3758399938854  0.4880052989200  0.3629356296233 1.0
C      1  0.6296984424322  0.3652542628235  0.5630962341840 1.0
C      1  0.6351180891958  0.6180582533740  0.5720059615883 1.0
C      1  0.6257869513808  0.5055701019316  0.3577298432263 1.0
C      1  0.6262129593293  0.4434451165688  0.6272941786769 1.0
C      1  0.6258164976563  0.6385661822786  0.4774524531977 1.0
C      1  0.6178206003448  0.4127438932403  0.3898610035775 1.0
C      1  0.4025696338354  0.4643883378160  0.6257428645999 1.0
C      1  0.3979310331364  0.6363644243419  0.4581812585211 1.0
C      1  0.4002226251490  0.3999800393242  0.4032770422160 1.0
C      1  0.5459748286695  0.6437717076083  0.3502008600079 1.0
C      1  0.5454619404270  0.2960720569926  0.4470504040052 1.0
C      1  0.5305228779734  0.5485740342580  0.6505022962882 1.0
C      1  0.4722862529405  0.6033811558425  0.3168879688021 1.0
C      1  0.4712401575393  0.2856798999512  0.4979168596612 1.0
C      1  0.4632926155448  0.6082932993542  0.6817769208533 1.0
C      1  0.4883395467029  0.2716300259060  0.5916076608315 1.0
C      1  0.4866411196891  0.6943062754156  0.6436497286042 1.0
C      1  0.4876165893927  0.5289596161581  0.2577947729409 1.0
C      1  0.4710228058435  0.5219416365330  0.5797775530703 1.0
END
