TITL C-30105-6208-1 -7.092 3375.00 -1197.96164897 0 0 147 (C3h) n - 1
REM
REM Run started: at 2021.01.04 05:20:47 in /gpfs/home/chem/mssmkc/CARBON/AIRSS/Generating-Clusters/Str-Search/Higher-Symm/C100-200
REM VASP from code version vasp.5.4.4.18Apr17-6-g9f103f2a35 (build Oct 11 2019 16:45:47) gamma-only
REM
REM
REM
REM
REM ./C.cell (533062f00bc710175b3da973d35f2034)
REM AIRSS Version 0.9.1 bugfix July 2018 build 013d7b7c2542+ Fri, 06 Jul 2018 19:26:36 +0100
REM compiler GCC version 6.3.0
REM options -cpp -iprefix /gpfs/warwick/csc/orac/software/Core/GCCcore/6.3.0/bin/../lib/gcc/x86_64-pc-linux-gnu/6.3.0/ -mtune=generic -march=x86-64 -g -O0
REM seed 82681108 -618406908 -2005584884 -1853015549 867781335 -949583353 1122576820 1881069853 -881905377 1279717262 -375975709 1158714245
REM
REM C.POTCAR (d86ddea03c3ceb6dc662c8ad6801f873)
REM 
CELL 1.54180   15.00000   15.00000   15.00000   90.00000   90.00000   90.00000
LATT -1
SFAC C  
C      1  0.2976058356281  0.3740845462168  0.7669572723971 1.0
C      1  0.2973195609038  0.3318795407393  0.2568520740406 1.0
C      1  0.2975672867370  0.7945391704109  0.4756217075949 1.0
C      1  0.7010229776840  0.3743071157638  0.7669044977607 1.0
C      1  0.7012079096367  0.3316607150924  0.2570886257152 1.0
C      1  0.7011696647281  0.7943971206107  0.4754009031329 1.0
C      1  0.5462860080140  0.6523749833177  0.1602389061001 1.0
C      1  0.5463214803581  0.7186817875161  0.8017275016315 1.0
C      1  0.5462962775386  0.1292357445603  0.5382471098099 1.0
C      1  0.4524689761155  0.6525605690179  0.1604197484785 1.0
C      1  0.4524813698104  0.7184506519831  0.8017784968228 1.0
C      1  0.4524812372313  0.1293636353015  0.5378779331992 1.0
C      1  0.1889892539200  0.4889095857883  0.6076898482491 1.0
C      1  0.1891365928280  0.4119532006851  0.4367220466105 1.0
C      1  0.1894310872816  0.5987374055793  0.4555072988771 1.0
C      1  0.8095118557720  0.4889386476735  0.6076453999753 1.0
C      1  0.8092753606297  0.4118657715491  0.4367454402715 1.0
C      1  0.8090961188064  0.5986208275415  0.4554426415177 1.0
C      1  0.6414303883082  0.4862680356121  0.6051388374067 1.0
C      1  0.6412086004364  0.4158359974687  0.4358996260165 1.0
C      1  0.6412532022125  0.5972739633402  0.4594866569199 1.0
C      1  0.3570810364081  0.4862297693029  0.6051061318033 1.0
C      1  0.3572384615781  0.4159432864839  0.4358455926498 1.0
C      1  0.3572525087744  0.5972917627523  0.4595944305366 1.0
C      1  0.8442435532747  0.5468816657299  0.7401434372026 1.0
C      1  0.8442689329824  0.2681651543448  0.4204763382282 1.0
C      1  0.8442646793287  0.6845191214041  0.3392376442012 1.0
C      1  0.1546840578883  0.5468629520070  0.7402063553793 1.0
C      1  0.1545413643525  0.2682042538754  0.4204059138300 1.0
C      1  0.1546521743360  0.6846994726177  0.3392462498358 1.0
C      1  0.3721150700437  0.4012092004823  0.8179901291397 1.0
C      1  0.3720476040511  0.2744934670167  0.2544956692152 1.0
C      1  0.3722075472282  0.8253368506936  0.4269003778255 1.0
C      1  0.6267635367449  0.4018747557458  0.8180589127062 1.0
C      1  0.6267742245144  0.2739076003914  0.2551570308298 1.0
C      1  0.6267210501399  0.8250946617607  0.4263356435480 1.0
C      1  0.4450923360884  0.4386852372775  0.2839672311948 1.0
C      1  0.4452026919791  0.7175300264610  0.5546896324391 1.0
C      1  0.4452048958711  0.3437273864164  0.6610833529204 1.0
C      1  0.5533659092716  0.4384858526235  0.2839617534455 1.0
C      1  0.5534250358254  0.7175884127212  0.5545721663254 1.0
C      1  0.5533322694396  0.3437815324615  0.6612248825206 1.0
C      1  0.3964952239820  0.5662598894616  0.1527358556545 1.0
C      1  0.3965183746370  0.7681272531792  0.7310109898208 1.0
C      1  0.3964353530636  0.1657749333238  0.6164098088684 1.0
C      1  0.6018662765588  0.5659298152044  0.1524586180293 1.0
C      1  0.6020171429712  0.7684775152949  0.7309154060055 1.0
C      1  0.6018981831122  0.1655908437877  0.6169991896782 1.0
C      1  0.3868954654794  0.3649676213692  0.2511967739939 1.0
C      1  0.3871597225082  0.7826093776339  0.5068050531330 1.0
C      1  0.3872016775237  0.3529590139036  0.7413280580163 1.0
C      1  0.6115380386097  0.3644120051593  0.2516602662266 1.0
C      1  0.6114930357046  0.7824929096957  0.5063151310544 1.0
C      1  0.6113153062736  0.3534699040410  0.7415073109811 1.0
C      1  0.4194410660925  0.6239697588184  0.7873502100915 1.0
C      1  0.4194793709328  0.1892849456042  0.4633844491201 1.0
C      1  0.4193346101831  0.6871614319725  0.2495087876082 1.0
C      1  0.5796799507177  0.6243561902381  0.7872941231813 1.0
C      1  0.5797107039342  0.1889959764306  0.4638817956027 1.0
C      1  0.5797541975008  0.6868865898050  0.2492051618261 1.0
C      1  0.5482973081968  0.1806553935085  0.3735560897667 1.0
C      1  0.5481790349209  0.7693540363795  0.2867329775376 1.0
C      1  0.5482475905836  0.5506332879466  0.8400840524601 1.0
C      1  0.4515555172250  0.1817021178716  0.3733606016531 1.0
C      1  0.4514285931151  0.7691630277843  0.2874045349823 1.0
C      1  0.4514084389527  0.5501351838000  0.8395200745855 1.0
C      1  0.7263879800836  0.5512663408397  0.4782299370525 1.0
C      1  0.7264476443019  0.4929875392749  0.5556990804506 1.0
C      1  0.7263531440295  0.4549603659657  0.4664626805367 1.0
C      1  0.2720663104568  0.5513252722933  0.4782604334083 1.0
C      1  0.2720201156049  0.4929951714229  0.5557482293748 1.0
C      1  0.2720585133203  0.4549986672976  0.4664503020293 1.0
C      1  0.2121915054966  0.7576771095540  0.4659768879960 1.0
C      1  0.2121106938146  0.4007239764956  0.7399642644578 1.0
C      1  0.2120358724476  0.3416293063982  0.2940329882014 1.0
C      1  0.7865814305295  0.7575928204594  0.4659004166760 1.0
C      1  0.7865940476022  0.4007420591934  0.7399275487308 1.0
C      1  0.7866129935303  0.3415136752998  0.2940396304071 1.0
C      1  0.5504816095930  0.5289371244351  0.2311213074184 1.0
C      1  0.5506069139048  0.7187089504925  0.6594525157227 1.0
C      1  0.5505471054483  0.2523583248498  0.6097461001882 1.0
C      1  0.4480652272838  0.5291000790134  0.2312313962902 1.0
C      1  0.4480999394458  0.7185731546920  0.6595114674945 1.0
C      1  0.4480404121067  0.2524115909844  0.6095544619250 1.0
C      1  0.8098997960945  0.3976522007213  0.6440544509299 1.0
C      1  0.8096626081362  0.4259745664346  0.3395038037392 1.0
C      1  0.8095127832170  0.6758965579911  0.5162479414238 1.0
C      1  0.1886633727432  0.3976405754748  0.6440991415517 1.0
C      1  0.1887910539718  0.4260645730313  0.3394859522790 1.0
C      1  0.1891076401532  0.6759884421158  0.5162954316149 1.0
C      1  0.4248279857038  0.1985191587225  0.2809094890841 1.0
C      1  0.4246286889340  0.8411149997656  0.3477549036687 1.0
C      1  0.4245076878093  0.4619406586208  0.8713254934269 1.0
C      1  0.5753268227154  0.1969157956707  0.2813258789337 1.0
C      1  0.5751860009340  0.8413325824757  0.3466736272442 1.0
C      1  0.5753867178706  0.4628411913681  0.8721592344259 1.0
C      1  0.4140457514062  0.6261272299342  0.6928765787656 1.0
C      1  0.4140337350904  0.2698448127802  0.5128574095041 1.0
C      1  0.4139879695286  0.6041096453927  0.2946566952678 1.0
C      1  0.5846954115229  0.6263159135285  0.6928505092360 1.0
C      1  0.5846516241828  0.2696977595000  0.5130700052919 1.0
C      1  0.5846512396021  0.6039564796626  0.2944989521241 1.0
C      1  0.8288437289809  0.2678872589876  0.3376547701591 1.0
C      1  0.8289233907757  0.7564324140687  0.3803689158253 1.0
C      1  0.8288993291628  0.4753153556088  0.7818621812911 1.0
C      1  0.1699095817598  0.2678767456986  0.3375630533906 1.0
C      1  0.1700034862971  0.7565936109317  0.3803648815193 1.0
C      1  0.1699156756840  0.4753129385626  0.7820061177823 1.0
C      1  0.6086727622053  0.5650839477764  0.3746595634545 1.0
C      1  0.6087498010234  0.5759552397747  0.6194458973581 1.0
C      1  0.6085983277670  0.3585733911493  0.5062491444710 1.0
C      1  0.3898818352347  0.5652177749913  0.3747351251495 1.0
C      1  0.3898453469968  0.5758808739181  0.6194987971663 1.0
C      1  0.3899796932535  0.3586457230087  0.5061488588171 1.0
C      1  0.1959782971747  0.6612001193340  0.6120754876014 1.0
C      1  0.1956826118910  0.3219916474450  0.5835414231892 1.0
C      1  0.1958775637625  0.5163557026438  0.3041083714983 1.0
C      1  0.8025443736424  0.6612267768677  0.6120212409836 1.0
C      1  0.8027176267584  0.3219708326312  0.5835947968000 1.0
C      1  0.8024725814127  0.5162515148919  0.3040753549051 1.0
C      1  0.6939569328507  0.1874590901612  0.6167658637088 1.0
C      1  0.6938873959442  0.5548527186739  0.1709340992430 1.0
C      1  0.6940918201985  0.7573887189378  0.7122228064615 1.0
C      1  0.3043840222626  0.1874479799415  0.6162580059929 1.0
C      1  0.3044783581561  0.5552897223460  0.1711523597719 1.0
C      1  0.3044532742472  0.7571179606045  0.7123673618569 1.0
C      1  0.7562826851267  0.7227996413657  0.6677987156860 1.0
C      1  0.7561990720543  0.2431570197166  0.6091949941752 1.0
C      1  0.7561411746375  0.5333198781931  0.2228848775660 1.0
C      1  0.2421722722652  0.7226777114025  0.6679762210112 1.0
C      1  0.2420702904874  0.2431336399314  0.6089839166349 1.0
C      1  0.2421418357229  0.5334980057738  0.2229153193746 1.0
C      1  0.1699701192064  0.5728241802742  0.6512113094561 1.0
C      1  0.1698869537540  0.3323044270009  0.4873341198589 1.0
C      1  0.1702308600545  0.5946231982341  0.3611124792348 1.0
C      1  0.8285832446991  0.5728517587811  0.6511810933480 1.0
C      1  0.8285980226327  0.3322466071753  0.4873782447671 1.0
C      1  0.8283226425821  0.5944852619277  0.3610718145814 1.0
C      1  0.5985934699748  0.6271232026231  0.5371902151578 1.0
C      1  0.5986762132440  0.4041493104206  0.5918237805225 1.0
C      1  0.5985615196426  0.4683213884960  0.3711947815783 1.0
C      1  0.3999334575652  0.6270927372771  0.5372675378757 1.0
C      1  0.3998718787245  0.4041658910978  0.5917266994413 1.0
C      1  0.3999045705364  0.4684567391409  0.3712269228981 1.0
C      1  0.5000205786752  0.1900485292312  0.2248511310718 1.0
C      1  0.4998943932984  0.8937832595427  0.3691265342194 1.0
C      1  0.4999123115773  0.4173550207352  0.9062032980903 1.0
END
