TITL C-30446-5047-2 -5.376 3375.00 -930.25782825 0 0 110 (C1) n - 1
REM
REM Run started: at 2020.12.20 13:56:31 in /gpfs/home/chem/mssmkc/CARBON/AIRSS/Generating-Clusters/Str-Search/Higher-Symm/C100-200
REM VASP from code version vasp.5.4.4.18Apr17-6-g9f103f2a35 (build Oct 11 2019 16:45:47) gamma-only
REM
REM
REM
REM
REM ./C.cell (533062f00bc710175b3da973d35f2034)
REM AIRSS Version 0.9.1 bugfix July 2018 build 013d7b7c2542+ Fri, 06 Jul 2018 19:26:36 +0100
REM compiler GCC version 6.3.0
REM options -cpp -iprefix /gpfs/warwick/csc/orac/software/Core/GCCcore/6.3.0/bin/../lib/gcc/x86_64-pc-linux-gnu/6.3.0/ -mtune=generic -march=x86-64 -g -O0
REM seed -585825187 82222516 1764976814 -1020489543 -825144938 463487970 762924551 -588998993 1004134954 253816530 -1987290158 -1510022360
REM
REM C.POTCAR (d86ddea03c3ceb6dc662c8ad6801f873)
REM 
CELL 1.54180   15.00000   15.00000   15.00000   90.00000   90.00000   90.00000
LATT -1
SFAC C  
C      1  0.4527614590643  0.1846299129625  0.4880413118733 1.0
C      1  0.4307620900368  0.2448183773244  0.6801529274621 1.0
C      1  0.4254486287898  0.3120488224315  0.7525198059389 1.0
C      1  0.4116873451750  0.4899212984279  0.8559816719237 1.0
C      1  0.4516027017562  0.7037873424290  0.7466192385089 1.0
C      1  0.4346216343232  0.7968506590575  0.5564593043469 1.0
C      1  0.4319889534305  0.7927542630552  0.4583955924800 1.0
C      1  0.4272114526462  0.6864428116373  0.2658905155736 1.0
C      1  0.4524146265763  0.5696131009078  0.1529475821889 1.0
C      1  0.4314421897942  0.4067294935943  0.1822172973226 1.0
C      1  0.4464423441803  0.2531400920544  0.2832243823394 1.0
C      1  0.5260624184358  0.7585947765030  0.7341787790666 1.0
C      1  0.5271271565098  0.8179817136624  0.5797867894422 1.0
C      1  0.5228992426696  0.8005372048287  0.4221999588735 1.0
C      1  0.5196783167154  0.7143231496821  0.2667941647559 1.0
C      1  0.5439401699963  0.5960043644440  0.1508850317038 1.0
C      1  0.4775123730704  0.4742134329342  0.1464611244015 1.0
C      1  0.5097483707913  0.1957583522604  0.3280810300143 1.0
C      1  0.5263782365708  0.1460697677118  0.5198598707116 1.0
C      1  0.5252304818895  0.2152152564272  0.6725066472443 1.0
C      1  0.5166668156372  0.3244871579728  0.7858950458078 1.0
C      1  0.4884621074937  0.4592007270285  0.8649596209839 1.0
C      1  0.5731887653275  0.5028600632979  0.1484757244958 1.0
C      1  0.5392737290115  0.2637603726377  0.2694255693704 1.0
C      1  0.5333747307135  0.1882496600863  0.4248294441881 1.0
C      1  0.5736694943406  0.1769527407701  0.5993296764576 1.0
C      1  0.5750491087900  0.2676412164693  0.7363927144680 1.0
C      1  0.5507969776781  0.4072588212965  0.8232047002462 1.0
C      1  0.5387335878477  0.6782289994656  0.7808785118320 1.0
C      1  0.5719453665622  0.7956344957242  0.6613820207259 1.0
C      1  0.5782300610032  0.8226222668969  0.4992012863012 1.0
C      1  0.5620827119339  0.7645448278982  0.3412331972455 1.0
C      1  0.5791518881884  0.6620468036519  0.2070462999750 1.0
C      1  0.6633604184700  0.2974925025848  0.3654590788315 1.0
C      1  0.6766557236879  0.2503629273646  0.5023004059536 1.0
C      1  0.7094871781035  0.2702237211221  0.6406715553641 1.0
C      1  0.6856781197829  0.3860287796320  0.7270811515512 1.0
C      1  0.6694758562195  0.5338715106026  0.7581829797447 1.0
C      1  0.6734381114144  0.6670922149119  0.6877752475454 1.0
C      1  0.7082279170537  0.7557091058209  0.5766815571748 1.0
C      1  0.7044787354115  0.7533064939689  0.4305298591887 1.0
C      1  0.7027722259826  0.6774164261425  0.3084676924950 1.0
C      1  0.6990723875324  0.5493464131994  0.2361134175742 1.0
C      1  0.6646759328123  0.4069299254137  0.2614362310871 1.0
C      1  0.6678995205734  0.6382345422483  0.2335196309314 1.0
C      1  0.6480861604597  0.4777585285685  0.2008375357651 1.0
C      1  0.6069501396026  0.3341084279565  0.2943889722828 1.0
C      1  0.6049449341806  0.2620526892369  0.4375341371214 1.0
C      1  0.6638631345910  0.2097053317312  0.5839124471011 1.0
C      1  0.6650839960495  0.2948759652383  0.7181822218979 1.0
C      1  0.6208445006848  0.4473819105652  0.7639678378969 1.0
C      1  0.6100767587735  0.6147329321542  0.7425311906320 1.0
C      1  0.6589268971248  0.7537309486028  0.6543456251601 1.0
C      1  0.6703677660681  0.7988823112229  0.5022400531114 1.0
C      1  0.6580500863194  0.7474377704827  0.3505243765013 1.0
C      1  0.7276744889864  0.5242391667003  0.6777230510003 1.0
C      1  0.7309232060187  0.6121828341377  0.6336919183314 1.0
C      1  0.7491753640168  0.6671034483500  0.5522331728838 1.0
C      1  0.7507697722358  0.6669593657751  0.4554135235429 1.0
C      1  0.7485297792043  0.6157682961844  0.3704999400093 1.0
C      1  0.7416763604021  0.5296688208403  0.3238323274190 1.0
C      1  0.7239331583127  0.4343655178402  0.3360226505588 1.0
C      1  0.7231084818622  0.3611284917344  0.4026603248117 1.0
C      1  0.7333458924336  0.3315739107850  0.4990260876734 1.0
C      1  0.7468724795861  0.3521986271567  0.5920974173412 1.0
C      1  0.7379038378862  0.4268590650285  0.6586852619478 1.0
C      1  0.3507914859679  0.3755181717698  0.7578660390799 1.0
C      1  0.3494496332090  0.4700733871607  0.7894125896289 1.0
C      1  0.3726879118287  0.6947048747041  0.6943606011737 1.0
C      1  0.3645097804659  0.7543806595178  0.6120726233872 1.0
C      1  0.3570576630138  0.7559289450515  0.4116808619198 1.0
C      1  0.3582893964512  0.7012346133899  0.3327778777279 1.0
C      1  0.3982811160025  0.6070325218501  0.2166272920702 1.0
C      1  0.3637722390408  0.3929549153178  0.2439344454698 1.0
C      1  0.3678638252130  0.3060027795875  0.2907870010466 1.0
C      1  0.3724617006858  0.2228853047439  0.5161794253767 1.0
C      1  0.3609821094778  0.2401288466093  0.6133435014167 1.0
C      1  0.2283192662184  0.6612209368966  0.5638797280625 1.0
C      1  0.2222450691629  0.6680996747686  0.4646012755933 1.0
C      1  0.2296711447995  0.6053574824714  0.3948566705052 1.0
C      1  0.2021818102932  0.5165739267912  0.4010025518332 1.0
C      1  0.2449862833790  0.4498628045999  0.3525366495240 1.0
C      1  0.2490950162539  0.3636598454803  0.3901445544437 1.0
C      1  0.2439223241489  0.3293916156251  0.4821490090275 1.0
C      1  0.2323346770717  0.3476508146405  0.5709836391884 1.0
C      1  0.2299488259558  0.4182680875188  0.6423730098986 1.0
C      1  0.2420068755403  0.5075252198546  0.6616021770200 1.0
C      1  0.2443597736855  0.6010451924476  0.6302170648077 1.0
C      1  0.3010618273489  0.5316492054369  0.7364305430873 1.0
C      1  0.3104748167786  0.6227861523704  0.7002211644799 1.0
C      1  0.2874469213437  0.7396133636167  0.5632731141300 1.0
C      1  0.2820288458740  0.7422151635973  0.4672171766173 1.0
C      1  0.2945330317725  0.6278839814032  0.3268476127123 1.0
C      1  0.3255404834835  0.5626405797368  0.2643204785274 1.0
C      1  0.3087284598237  0.4687837795016  0.2786113444402 1.0
C      1  0.3104277649942  0.2959412516175  0.3648551992392 1.0
C      1  0.3118354192393  0.2628647123457  0.4574561095503 1.0
C      1  0.2851739500373  0.2912389547572  0.6316760071748 1.0
C      1  0.2816782524426  0.3569519100666  0.6989866672104 1.0
C      1  0.5599011386913  0.4721099796970  0.6791830575101 1.0
C      1  0.5485315696163  0.5649938726252  0.6743236682614 1.0
C      1  0.5055770814074  0.6068691511937  0.6072581123399 1.0
C      1  0.4760871774883  0.6034496013006  0.5286802351418 1.0
C      1  0.4647999105375  0.5976966721095  0.4426453533608 1.0
C      1  0.4779217802199  0.5299370055590  0.3908284740757 1.0
C      1  0.5081476718906  0.4676280383962  0.3417764632020 1.0
C      1  0.5450904669702  0.3877537733765  0.3620723287343 1.0
C      1  0.5512442406926  0.3486489332939  0.4490848911951 1.0
C      1  0.5359797045198  0.3877589385152  0.5299616329958 1.0
C      1  0.5406577981707  0.4194330898518  0.6068763591112 1.0
END
