TITL C-30544-8579-32 -4.584 3375.00 -790.98295788 0 0 96 (C1) n - 1
REM
REM Run started: at 2020.12.28 11:17:14 in /rds/project/t2_vol4/rds-t2-cs072/BORA/CARBON/AIRSS/Generating-Clusters/Str-Search/Higher-Symm/C10-100
REM VASP from code version vasp.5.4.4.18Apr17-6-g9f103f2a35 (build Oct 11 2019 16:45:47) gamma-only
REM
REM
REM
REM
REM ./C.cell (f39ce9773e2efe3fa5bbdf770a4156b8)
REM AIRSS Version 0.9.1 bugfix July 2018 build 013d7b7c2542+ Fri, 06 Jul 2018 19:26:36 +0100
REM compiler GCC version 4.8.5 20150623 (Red Hat 4.8.5-39)
REM options -cpp -mtune=generic -march=x86-64 -g -O0
REM seed 1079556722 1775659473 -259111287 -279407080 -268993909 372104760 -1161436449 -769840093 -798044706 -1927897822 805357450 -1334419207
REM
REM C.POTCAR (d86ddea03c3ceb6dc662c8ad6801f873)
REM 
CELL 1.54180   15.00000   15.00000   15.00000   90.00000   90.00000   90.00000
LATT -1
SFAC C  
C      1  0.5466224000932  0.2514586083177  0.3481713945027 1.0
C      1  0.2265386659205  0.5931194736851  0.5827247212278 1.0
C      1  0.6863954050140  0.6146172085588  0.2817561809989 1.0
C      1  0.2781347427359  0.6148557300869  0.6701258249624 1.0
C      1  0.7278757047852  0.5730664531325  0.6451324696215 1.0
C      1  0.5775189267295  0.2409182421496  0.6092042675730 1.0
C      1  0.4331227241918  0.5966656852758  0.2771961032084 1.0
C      1  0.7825471976219  0.6120297108149  0.4033644603179 1.0
C      1  0.3657086539439  0.5192945677756  0.2499624562267 1.0
C      1  0.6983234121931  0.4306349869995  0.2634998866953 1.0
C      1  0.3303446328861  0.6949696471158  0.6484525618237 1.0
C      1  0.6357330626705  0.7197098648936  0.6303265224621 1.0
C      1  0.5040062950646  0.5876428765872  0.5150681547162 1.0
C      1  0.3852947410318  0.6361137938347  0.7778367512476 1.0
C      1  0.6080787635993  0.3404496568935  0.7244180165260 1.0
C      1  0.2801317223773  0.3747180031218  0.4523788237723 1.0
C      1  0.1379434800966  0.5729339527884  0.5532799385311 1.0
C      1  0.3320325010675  0.2647020273791  0.5891500222369 1.0
C      1  0.7254353640935  0.4112043497058  0.4210136594653 1.0
C      1  0.1455179440745  0.5201032328532  0.3888219901785 1.0
C      1  0.5060192033480  0.7674661502958  0.5574759602016 1.0
C      1  0.4108214886624  0.4411575840731  0.6080854570534 1.0
C      1  0.5524984262599  0.7626523158007  0.4091154893762 1.0
C      1  0.6220203524040  0.4324782850065  0.7199222820757 1.0
C      1  0.5940363187862  0.2312471258828  0.5131306798941 1.0
C      1  0.2942148321627  0.3001079489189  0.5105296923519 1.0
C      1  0.6443033148043  0.3006129308558  0.6428906405436 1.0
C      1  0.5842872422009  0.4023673104396  0.1951695772291 1.0
C      1  0.6337084671486  0.4821959496312  0.2100113865941 1.0
C      1  0.3389038279362  0.3761224650161  0.7741105936121 1.0
C      1  0.7204268181087  0.4377743163749  0.5221244469238 1.0
C      1  0.4624462067182  0.4560437705916  0.3527196147836 1.0
C      1  0.4485808791930  0.3756850247526  0.7714566712133 1.0
C      1  0.3590650365991  0.4817865422187  0.7715714979569 1.0
C      1  0.7006748716457  0.3359529774372  0.5690741715673 1.0
C      1  0.5339683219148  0.2203736195056  0.4394357795400 1.0
C      1  0.6604883071220  0.7435218515237  0.5403652550481 1.0
C      1  0.1308592692267  0.5473356169810  0.4686197859045 1.0
C      1  0.4268997441202  0.4333656429978  0.2591764835024 1.0
C      1  0.4508517881482  0.3762628554678  0.5322996737303 1.0
C      1  0.4419313749795  0.2256784971566  0.4572234014524 1.0
C      1  0.2964239021847  0.5380556578136  0.5192175755128 1.0
C      1  0.5226700948693  0.7035153282337  0.2729251995426 1.0
C      1  0.4544035849824  0.4720159569100  0.7949038786964 1.0
C      1  0.4810469476180  0.6281477036880  0.7812375448263 1.0
C      1  0.6715035174829  0.5745469134926  0.7214844346949 1.0
C      1  0.6851121161326  0.6532840536247  0.6724888696192 1.0
C      1  0.2959744118521  0.4744775317671  0.4370478595870 1.0
C      1  0.3612637526902  0.6847787672121  0.5532040887960 1.0
C      1  0.5156623929924  0.3092755170194  0.7401924828990 1.0
C      1  0.3926107956223  0.2537942249841  0.3810874826099 1.0
C      1  0.4272972045809  0.7455181503731  0.5089421887726 1.0
C      1  0.4599656568560  0.7192925830787  0.4124659967742 1.0
C      1  0.3223830015517  0.5709223345321  0.7478118005958 1.0
C      1  0.4242630785502  0.6007571665757  0.5640921734709 1.0
C      1  0.4122099061736  0.2437277311622  0.6240174685592 1.0
C      1  0.4351388547795  0.7004719201621  0.3100887204308 1.0
C      1  0.6132512251572  0.5730891671234  0.2306114145850 1.0
C      1  0.5817143464371  0.7771707763922  0.4968492204108 1.0
C      1  0.7303089689757  0.7009374277387  0.4935237565412 1.0
C      1  0.4882200638522  0.7078516020155  0.7167925807649 1.0
C      1  0.6702839117339  0.2859490855811  0.4938407775157 1.0
C      1  0.4566175003093  0.5559792033727  0.3656966784557 1.0
C      1  0.5073547993381  0.4396976355251  0.5927129890565 1.0
C      1  0.7340571231705  0.4647673907225  0.3426402652953 1.0
C      1  0.2839302764548  0.5159900158770  0.2832983062187 1.0
C      1  0.7415900744576  0.6994193904203  0.3985343945532 1.0
C      1  0.6090069780099  0.5181374963380  0.7630662444309 1.0
C      1  0.6299908301371  0.2991559647289  0.3295195314103 1.0
C      1  0.3939724152405  0.4886017511937  0.4146421248565 1.0
C      1  0.4708583431207  0.4368378183254  0.4526624601340 1.0
C      1  0.7716445405691  0.6081218217092  0.4993824508479 1.0
C      1  0.4242643679642  0.2810014639509  0.5351284289228 1.0
C      1  0.7462441316944  0.5595981274904  0.3361742388321 1.0
C      1  0.6277616280818  0.4707205581785  0.5442088693500 1.0
C      1  0.2839485955866  0.6356036344078  0.5088066909679 1.0
C      1  0.5208357246084  0.5422628750424  0.7928118803728 1.0
C      1  0.5977430806021  0.4517612051662  0.6286737086756 1.0
C      1  0.3145676562937  0.2970086520888  0.4146522783924 1.0
C      1  0.4380913742019  0.3336568990778  0.2424218294345 1.0
C      1  0.5419016565496  0.7381042466119  0.6464058679665 1.0
C      1  0.5934783921120  0.7404678811748  0.3275244256796 1.0
C      1  0.6473367646869  0.3505769277799  0.2538202976225 1.0
C      1  0.7549656829689  0.5367259946549  0.5599061152029 1.0
C      1  0.3723462703936  0.5245119673625  0.5787352578941 1.0
C      1  0.2351727187566  0.5067472672385  0.3586859857065 1.0
C      1  0.4930175043507  0.3912387446093  0.1981600490894 1.0
C      1  0.6796578572401  0.7005367982529  0.3252867121235 1.0
C      1  0.5280016790441  0.6170729744951  0.2339154620636 1.0
C      1  0.3810697070016  0.4105934827084  0.6965764439943 1.0
C      1  0.4901392648405  0.6226402138003  0.4302370359022 1.0
C      1  0.4569456042236  0.2697887118304  0.3107416239313 1.0
C      1  0.3915779322241  0.7104764362819  0.7160690591998 1.0
C      1  0.6830681676743  0.3260505048583  0.4091471896362 1.0
C      1  0.4979855731480  0.2458892491519  0.6698985619994 1.0
C      1  0.5348360181898  0.4932797431961  0.5106381797272 1.0
END
