TITL C-30513-3949-44 -5.457 3375.00 -945.38493641 0 0 114 (C1) n - 1
REM
REM Run started: at 2020.12.23 06:24:06 in /gpfs/home/chem/mssmkc/CARBON/AIRSS/Generating-Clusters/Str-Search/Higher-Symm/C100-200
REM VASP from code version vasp.5.4.4.18Apr17-6-g9f103f2a35 (build Oct 11 2019 16:45:47) gamma-only
REM
REM
REM
REM
REM ./C.cell (533062f00bc710175b3da973d35f2034)
REM AIRSS Version 0.9.1 bugfix July 2018 build 013d7b7c2542+ Fri, 06 Jul 2018 19:26:36 +0100
REM compiler GCC version 6.3.0
REM options -cpp -iprefix /gpfs/warwick/csc/orac/software/Core/GCCcore/6.3.0/bin/../lib/gcc/x86_64-pc-linux-gnu/6.3.0/ -mtune=generic -march=x86-64 -g -O0
REM seed -1317279370 -65717212 -1062996008 -543952943 -1026304525 -224411554 467283416 1456470207 2066001413 -963397224 -1577075672 1489704447
REM
REM C.POTCAR (d86ddea03c3ceb6dc662c8ad6801f873)
REM 
CELL 1.54180   15.00000   15.00000   15.00000   90.00000   90.00000   90.00000
LATT -1
SFAC C  
C      1  0.5428378074376  0.5399332605711  0.3765936536673 1.0
C      1  0.4034334968467  0.2404499414877  0.5864840918694 1.0
C      1  0.4593357223482  0.2577507588237  0.6663728605499 1.0
C      1  0.7154777703320  0.3739048157612  0.7371933101158 1.0
C      1  0.3232955712277  0.2910677373158  0.6011534289383 1.0
C      1  0.8218505314207  0.6220656139361  0.5288399046716 1.0
C      1  0.2650614568505  0.7027024225659  0.5906372501370 1.0
C      1  0.7732057577015  0.5081303584820  0.6379440186740 1.0
C      1  0.6860179075649  0.5544701534310  0.2921101131995 1.0
C      1  0.3996241299657  0.7220810999769  0.5404948675873 1.0
C      1  0.5337361961833  0.6902981760202  0.2861822215174 1.0
C      1  0.6214916923157  0.3833756992203  0.7709486590901 1.0
C      1  0.7574405269557  0.6557860664668  0.3945782604804 1.0
C      1  0.3153578660670  0.7314021486673  0.4127621729314 1.0
C      1  0.5631348654861  0.8077587509186  0.4585449641329 1.0
C      1  0.4410375243304  0.5447565629039  0.1384960464043 1.0
C      1  0.3711059606690  0.3589235056608  0.4232172714049 1.0
C      1  0.4412030539873  0.6330300455971  0.1749124350118 1.0
C      1  0.4402073997978  0.2056668310560  0.4068150854847 1.0
C      1  0.6907709372914  0.6494642974950  0.6082460058158 1.0
C      1  0.4117411858288  0.3021494456953  0.7400295765672 1.0
C      1  0.5540352642243  0.6813922794296  0.6858606222640 1.0
C      1  0.5724027175627  0.4554150106146  0.8324101594311 1.0
C      1  0.7203216871225  0.7206324338016  0.4596343803375 1.0
C      1  0.4434752133402  0.7247111195366  0.2992899923973 1.0
C      1  0.7085370177567  0.2818006601460  0.4956668102193 1.0
C      1  0.2116445863834  0.5985283355873  0.3799483708305 1.0
C      1  0.4186779068399  0.5528020969306  0.4774876827381 1.0
C      1  0.2363783458745  0.5339322543157  0.3129188409310 1.0
C      1  0.3016973211184  0.2906816974453  0.4375477084406 1.0
C      1  0.1847012324646  0.5553613146870  0.5505534984069 1.0
C      1  0.5973064067856  0.2529018983591  0.3704445339723 1.0
C      1  0.4426745508587  0.3623761767829  0.6583680750085 1.0
C      1  0.6140028132012  0.5393366480062  0.8154994085350 1.0
C      1  0.2925699312304  0.5287649854688  0.1582269544125 1.0
C      1  0.5044936719007  0.4145659876352  0.4596822443817 1.0
C      1  0.4652736268154  0.2423108129158  0.5019579802900 1.0
C      1  0.3838469699107  0.6843902754537  0.2341253175575 1.0
C      1  0.2643166507615  0.6764857051275  0.3546615748369 1.0
C      1  0.4763706662440  0.4306904156365  0.8240544802231 1.0
C      1  0.4660705832718  0.7243602063046  0.6793083399211 1.0
C      1  0.2031402111350  0.6278269631944  0.6037598210022 1.0
C      1  0.4573065373537  0.4899419309446  0.4093673231187 1.0
C      1  0.8192754675707  0.5952007551400  0.4350307630356 1.0
C      1  0.7591317978110  0.5005438509401  0.2832269597129 1.0
C      1  0.4698950901166  0.8042637015377  0.4377507374167 1.0
C      1  0.7032965667806  0.5712287352027  0.6607490216802 1.0
C      1  0.4503325936247  0.7779497469601  0.6017678922310 1.0
C      1  0.4500351460874  0.6401666041521  0.5182902342645 1.0
C      1  0.5286585190099  0.6278130305393  0.2124643134244 1.0
C      1  0.3106590514219  0.6695633342998  0.6786074108816 1.0
C      1  0.6095062141861  0.6924119145947  0.7711624402243 1.0
C      1  0.6086301874928  0.2415789161770  0.6107139369978 1.0
C      1  0.7520002259338  0.6842775850634  0.5457660973263 1.0
C      1  0.3471380820136  0.2199480565419  0.3838982044160 1.0
C      1  0.6339840166835  0.3202626213687  0.3136172424721 1.0
C      1  0.1892848809753  0.5457909628865  0.4573137614392 1.0
C      1  0.5970901469258  0.6704138192995  0.5943230337652 1.0
C      1  0.6096403708536  0.6319874879412  0.8305240572044 1.0
C      1  0.4379458033509  0.5715925655016  0.7360985175042 1.0
C      1  0.6916229327521  0.6412240318731  0.3284001805703 1.0
C      1  0.3273459535916  0.4464960879389  0.7279603128574 1.0
C      1  0.3450506990004  0.2360991620032  0.2904869106721 1.0
C      1  0.8263294094424  0.4990970446537  0.4661522236999 1.0
C      1  0.4048380698932  0.4848954758998  0.7822632316850 1.0
C      1  0.6229099846990  0.5342102310768  0.7127423561411 1.0
C      1  0.6992950649250  0.2770401208804  0.5926841233139 1.0
C      1  0.3605334660072  0.5046710925183  0.1151468658220 1.0
C      1  0.2976878626759  0.6591016599110  0.2618550410911 1.0
C      1  0.7721553263454  0.4240330444901  0.3272675445050 1.0
C      1  0.5259860476051  0.5245635788884  0.1831237169212 1.0
C      1  0.2731067343657  0.4601384198415  0.3611925653438 1.0
C      1  0.3102334507570  0.7312500132140  0.5114303695117 1.0
C      1  0.2635582584632  0.4988148862431  0.6802092762783 1.0
C      1  0.5727987206221  0.6168572106555  0.4258344959840 1.0
C      1  0.5540896969962  0.2518379380842  0.6888928151633 1.0
C      1  0.7408489141945  0.3303656633427  0.6564701153867 1.0
C      1  0.5008025530213  0.4368467451791  0.6534366062910 1.0
C      1  0.5804163099196  0.4266174887765  0.5094767541634 1.0
C      1  0.4068771674223  0.7615548274714  0.3808346098029 1.0
C      1  0.5965597809796  0.4400408097534  0.6881739813676 1.0
C      1  0.5499720500205  0.6454184622530  0.5178497454973 1.0
C      1  0.6277852816683  0.2417484152670  0.4584996328510 1.0
C      1  0.7206130942186  0.3450259048288  0.3414010824583 1.0
C      1  0.2735900770039  0.3204509065204  0.5264919045828 1.0
C      1  0.4656499794687  0.5291400127956  0.6448505161830 1.0
C      1  0.6378098441572  0.7582100212860  0.4260178788737 1.0
C      1  0.5085294566954  0.2332211154705  0.3436186232420 1.0
C      1  0.3464501964923  0.3552467021488  0.6859985533793 1.0
C      1  0.2337774281326  0.4085085826406  0.5266487864155 1.0
C      1  0.7544601224111  0.3348688681307  0.4335363552872 1.0
C      1  0.5612965984046  0.4540082412031  0.2351290657641 1.0
C      1  0.7681359220776  0.4201800366643  0.6755785155491 1.0
C      1  0.2626707716940  0.5730973762707  0.2316328110021 1.0
C      1  0.4521824928238  0.3393933584582  0.4669429749116 1.0
C      1  0.4772188766234  0.3356028483324  0.8013871479659 1.0
C      1  0.2519885065731  0.5955747108002  0.6809220461846 1.0
C      1  0.5990515691014  0.5100053014158  0.3080894467391 1.0
C      1  0.5624524757252  0.3035302579033  0.7690400836214 1.0
C      1  0.4973611289342  0.8179130634732  0.5300554545557 1.0
C      1  0.3670795657472  0.4370383628542  0.3739326032779 1.0
C      1  0.4253106877817  0.5563154373553  0.5650462457890 1.0
C      1  0.8029896486886  0.4214688221211  0.4223643601280 1.0
C      1  0.4003810734932  0.2748926784718  0.2403782113479 1.0
C      1  0.4900684324237  0.2896065742628  0.2646690646512 1.0
C      1  0.6082957017343  0.6880167690198  0.3563983872132 1.0
C      1  0.5329049378029  0.5831506191969  0.6968915234718 1.0
C      1  0.5645160250483  0.2262849546724  0.5273420033555 1.0
C      1  0.5625588947273  0.3561396952682  0.2547700000212 1.0
C      1  0.2187667372052  0.4737495286292  0.5957236033046 1.0
C      1  0.2210166259875  0.4561203143144  0.4433173132154 1.0
C      1  0.8237774284823  0.5327952913240  0.5607619910592 1.0
C      1  0.3991637580849  0.6650249970030  0.7107108162683 1.0
C      1  0.5860129732863  0.4231256484267  0.5953340137580 1.0
END
