TITL C-30219-7198-34 -2.443 3375.00 -443.42658080 0 0 60 (Td) n - 1
REM
REM Run started: at 2020.12.17 13:14:17 in /rds/project/t2_vol4/rds-t2-cs072/BORA/CARBON/AIRSS/Generating-Clusters/Str-Search/Higher-Symm/C10-100
REM VASP from code version vasp.5.4.4.18Apr17-6-g9f103f2a35 (build Oct 11 2019 16:45:47) gamma-only
REM
REM
REM
REM
REM ./C.cell (f39ce9773e2efe3fa5bbdf770a4156b8)
REM AIRSS Version 0.9.1 bugfix July 2018 build 013d7b7c2542+ Fri, 06 Jul 2018 19:26:36 +0100
REM compiler GCC version 4.8.5 20150623 (Red Hat 4.8.5-39)
REM options -cpp -mtune=generic -march=x86-64 -g -O0
REM seed -1806282812 -1711919659 -1661007111 89599061 -1719804302 -1335199299 -1772873725 1765364119 1659291063 472229266 370373753 -1872153610
REM
REM C.POTCAR (d86ddea03c3ceb6dc662c8ad6801f873)
REM 
CELL 1.54180   15.00000   15.00000   15.00000   90.00000   90.00000   90.00000
LATT -1
SFAC C  
C      1  0.4581303239130  0.3913910806641  0.7536188342600 1.0
C      1  0.3913910561611  0.7536188219257  0.4581302220226 1.0
C      1  0.7536187089932  0.4581303455635  0.3913909438135 1.0
C      1  0.5418699075794  0.3913910895325  0.2463810003250 1.0
C      1  0.5418696700421  0.6086089957315  0.7536188043258 1.0
C      1  0.4581305632520  0.6086090051359  0.2463813813392 1.0
C      1  0.6086088966160  0.7536188342970  0.5418696334557 1.0
C      1  0.6086089811236  0.2463812198838  0.4581304558753 1.0
C      1  0.3913909589133  0.2463812676442  0.5418696555910 1.0
C      1  0.2463811536052  0.4581302300850  0.6086089807299 1.0
C      1  0.2463811262367  0.5418697003514  0.3913911576855 1.0
C      1  0.7536187504367  0.5418696316017  0.6086089057439 1.0
C      1  0.7536188095644  0.3913910606167  0.4581302199818 1.0
C      1  0.4581303459819  0.7536187217893  0.3913909413295 1.0
C      1  0.3913910734985  0.4581303421671  0.7536188294184 1.0
C      1  0.2463812860317  0.3913909612894  0.5418696673866 1.0
C      1  0.7536188380541  0.6086088925816  0.5418696335930 1.0
C      1  0.2463812299592  0.6086089786445  0.4581304525474 1.0
C      1  0.5418696301951  0.7536187484163  0.6086089084918 1.0
C      1  0.4581302244986  0.2463811326848  0.6086089824247 1.0
C      1  0.5418697036967  0.2463811210535  0.3913911538228 1.0
C      1  0.6086090056977  0.4581305690155  0.2463813710518 1.0
C      1  0.3913910909832  0.5418699037394  0.2463810077470 1.0
C      1  0.6086089919272  0.5418696743535  0.7536188066314 1.0
C      1  0.5988193585247  0.4712836858450  0.6703208930982 1.0
C      1  0.4712836961408  0.6703209083696  0.5988193335309 1.0
C      1  0.6703208303410  0.5988193064606  0.4712835813309 1.0
C      1  0.4011806324665  0.4712835819956  0.3296792400354 1.0
C      1  0.4011806655498  0.5287163543969  0.6703208830709 1.0
C      1  0.5988193249033  0.5287162599458  0.3296789871709 1.0
C      1  0.5287163011838  0.6703208662487  0.4011805829170 1.0
C      1  0.5287163347295  0.3296791573259  0.5988193580422 1.0
C      1  0.4712836625255  0.3296791002891  0.4011807233136 1.0
C      1  0.3296791462281  0.5988193655887  0.5287163394475 1.0
C      1  0.3296790588186  0.4011806194123  0.4712837389858 1.0
C      1  0.6703209030391  0.4011806890838  0.5287163421591 1.0
C      1  0.6703209045212  0.4712836956659  0.5988193293177 1.0
C      1  0.5988193083140  0.6703208309666  0.4712835851024 1.0
C      1  0.4712836822696  0.5988193658917  0.6703208985256 1.0
C      1  0.3296791020489  0.4712836570507  0.4011807288560 1.0
C      1  0.6703208618386  0.5287163009102  0.4011805850894 1.0
C      1  0.3296791552765  0.5287163364060  0.5988193552536 1.0
C      1  0.4011806883730  0.6703209057511  0.5287163416092 1.0
C      1  0.5988193673779  0.3296791406520  0.5287163455420 1.0
C      1  0.4011806212379  0.3296790505154  0.4712837298654 1.0
C      1  0.5287162530217  0.5988193285250  0.3296789923311 1.0
C      1  0.4712835854055  0.4011806275521  0.3296792400709 1.0
C      1  0.5287163435804  0.4011806690589  0.6703208733824 1.0
C      1  0.3381944806631  0.4374984586103  0.5625016065751 1.0
C      1  0.4374983725539  0.5625014607564  0.3381944516126 1.0
C      1  0.5625015498414  0.3381944758879  0.4374984675498 1.0
C      1  0.6618055291506  0.4374984289902  0.4374984439894 1.0
C      1  0.6618055244870  0.5625015871010  0.5625014907811 1.0
C      1  0.3381944844598  0.5625015468043  0.4374984618127 1.0
C      1  0.4374984572755  0.4374984677947  0.6618055781744 1.0
C      1  0.4374984363413  0.6618055512632  0.4374984517725 1.0
C      1  0.5625014609271  0.4374983795717  0.3381944383327 1.0
C      1  0.4374984642650  0.3381944518781  0.5625015937753 1.0
C      1  0.5625015869052  0.6618055151155  0.5625014952892 1.0
C      1  0.5625015384540  0.5625015435509  0.6618055626932 1.0
END
