TITL C-30105-6208-14 -6.74 3375.00 -1189.99671646 0 0 143 (C1) n - 1
REM
REM Run started: at 2021.01.04 15:55:45 in /gpfs/home/chem/mssmkc/CARBON/AIRSS/Generating-Clusters/Str-Search/Higher-Symm/C100-200
REM VASP from code version vasp.5.4.4.18Apr17-6-g9f103f2a35 (build Oct 11 2019 16:45:47) gamma-only
REM
REM
REM
REM
REM ./C.cell (533062f00bc710175b3da973d35f2034)
REM AIRSS Version 0.9.1 bugfix July 2018 build 013d7b7c2542+ Fri, 06 Jul 2018 19:26:36 +0100
REM compiler GCC version 6.3.0
REM options -cpp -iprefix /gpfs/warwick/csc/orac/software/Core/GCCcore/6.3.0/bin/../lib/gcc/x86_64-pc-linux-gnu/6.3.0/ -mtune=generic -march=x86-64 -g -O0
REM seed 536476008 1470782903 -1878419687 -457789695 -1813840202 92796674 -2056432128 -950466639 595597617 -617904920 1726396200 144368839
REM
REM C.POTCAR (d86ddea03c3ceb6dc662c8ad6801f873)
REM 
CELL 1.54180   15.00000   15.00000   15.00000   90.00000   90.00000   90.00000
LATT -1
SFAC C  
C      1  0.4556659704163  0.7455688795915  0.3390609003667 1.0
C      1  0.4592772361722  0.4228910756406  0.2176009446629 1.0
C      1  0.4540339666046  0.2051903218537  0.4814744595213 1.0
C      1  0.4542354686119  0.3915134873004  0.7757373748131 1.0
C      1  0.4548999746290  0.7241352462798  0.6847000318841 1.0
C      1  0.5492766508093  0.7446085766228  0.3391099755583 1.0
C      1  0.5523281254497  0.4329253326688  0.2233594454554 1.0
C      1  0.5468013836006  0.2088976260193  0.4799479048643 1.0
C      1  0.5468602263846  0.3919028189039  0.7766006018089 1.0
C      1  0.5472131795202  0.7242455491554  0.6845604442627 1.0
C      1  0.6017644869176  0.1864903547184  0.4055619384955 1.0
C      1  0.6031033798949  0.3142693023623  0.7830025480096 1.0
C      1  0.6026694193763  0.7099229845136  0.7607808498158 1.0
C      1  0.6026366979586  0.8134648110724  0.3797779094420 1.0
C      1  0.6040327690569  0.4989216482904  0.1800439505031 1.0
C      1  0.3982504123901  0.1761054298338  0.4105199235152 1.0
C      1  0.3982181264503  0.3140647203018  0.7830801932712 1.0
C      1  0.3991338202825  0.7092087041993  0.7605308918420 1.0
C      1  0.4012754225486  0.8129126547341  0.3798126200804 1.0
C      1  0.4047822742675  0.4925575207696  0.1798057121832 1.0
C      1  0.3954451236987  0.1908028947304  0.2546009590006 1.0
C      1  0.4061435836867  0.1769977313062  0.7090463071202 1.0
C      1  0.4071883804986  0.5979907849863  0.8697192787816 1.0
C      1  0.4081941331086  0.8817257676079  0.5199785533118 1.0
C      1  0.4074868406135  0.6469455717983  0.1460464762366 1.0
C      1  0.5947415237790  0.2073646134018  0.2513934571467 1.0
C      1  0.5945121286785  0.1787003870030  0.7062121912496 1.0
C      1  0.5947945574817  0.5987868123647  0.8702421318453 1.0
C      1  0.5946689025461  0.8821406347543  0.5196553620504 1.0
C      1  0.5960055851966  0.6512674031503  0.1443364307700 1.0
C      1  0.6977617636335  0.3252508099710  0.6388621121717 1.0
C      1  0.6973551949800  0.5780531585984  0.7091295397403 1.0
C      1  0.6979994816832  0.7239170376608  0.4895413550436 1.0
C      1  0.7291391920591  0.5779938918301  0.2685138826859 1.0
C      1  0.7197719292513  0.3092101881623  0.3634972832626 1.0
C      1  0.3009772164497  0.3224135437541  0.6403913528593 1.0
C      1  0.3043831517258  0.5770650408121  0.7080462214841 1.0
C      1  0.3047209640282  0.7226043933909  0.4892350254316 1.0
C      1  0.2807097319329  0.5725880181244  0.2722096852169 1.0
C      1  0.3034214930520  0.3132916224135  0.3782562062790 1.0
C      1  0.2232368013368  0.6313740680212  0.4025483199096 1.0
C      1  0.2305999797637  0.4505818711555  0.3524500759130 1.0
C      1  0.2246878113567  0.3405524440688  0.5034392380814 1.0
C      1  0.2254626978058  0.4525943199693  0.6525564957634 1.0
C      1  0.2268035574433  0.6292502717626  0.5895603572403 1.0
C      1  0.7808288593608  0.6337539500846  0.4025646308095 1.0
C      1  0.7780302435283  0.4536328930857  0.3476321676337 1.0
C      1  0.7744958320881  0.3440384940404  0.5014573991745 1.0
C      1  0.7746059235729  0.4540397431049  0.6518941972016 1.0
C      1  0.7750826346376  0.6301845471308  0.5901204650935 1.0
C      1  0.4552707771288  0.6718817865810  0.5169723342693 1.0
C      1  0.4600353471057  0.5760745690381  0.3538341179433 1.0
C      1  0.4574945843505  0.3406159961066  0.3640201160670 1.0
C      1  0.4517834788496  0.3391588155772  0.5947328607412 1.0
C      1  0.4537287376198  0.5313656916609  0.6680447556259 1.0
C      1  0.5481288076636  0.6706528537089  0.5162575727096 1.0
C      1  0.5505528230554  0.5710342565687  0.3432958746195 1.0
C      1  0.5471056776681  0.3480112622037  0.3728193547132 1.0
C      1  0.5444844059152  0.3412813529634  0.5967881142739 1.0
C      1  0.5479182851273  0.5325646732172  0.6695701874169 1.0
C      1  0.6425638256845  0.5339257171534  0.8527402249549 1.0
C      1  0.6402968602199  0.8439569644463  0.5765612052892 1.0
C      1  0.6499775918063  0.6920955636403  0.1916133241013 1.0
C      1  0.6482622085783  0.2664316830165  0.2290056978072 1.0
C      1  0.6425894814781  0.1757791605992  0.6390949561096 1.0
C      1  0.3595322788813  0.5333316021815  0.8514071650636 1.0
C      1  0.3614168316381  0.8434537714551  0.5758900156199 1.0
C      1  0.3545903091098  0.6884520258748  0.1933684144360 1.0
C      1  0.3397901668389  0.2487885998301  0.2319371191190 1.0
C      1  0.3582385397846  0.1732764407900  0.6419767959945 1.0
C      1  0.6834903087430  0.3447816038594  0.2789736510051 1.0
C      1  0.6745890614494  0.2469202838879  0.5788218386118 1.0
C      1  0.6742813458242  0.4974667357834  0.7669193133761 1.0
C      1  0.6731366425428  0.7514665810103  0.5837350942213 1.0
C      1  0.6875708773449  0.6670885585544  0.2790927997312 1.0
C      1  0.3245832475209  0.3368078380260  0.2804806794524 1.0
C      1  0.3252689666954  0.2432437253613  0.5808016037222 1.0
C      1  0.3274102007142  0.4967146353647  0.7659105630044 1.0
C      1  0.3288835445411  0.7509527423572  0.5834012507739 1.0
C      1  0.3196354201892  0.6631738291565  0.2813926773622 1.0
C      1  0.3052887707317  0.6754654843412  0.7287005468190 1.0
C      1  0.3068587963519  0.7747971562807  0.4034541787206 1.0
C      1  0.3156130600114  0.4979369979985  0.2240623517860 1.0
C      1  0.3037864094168  0.2212381513342  0.4184622016074 1.0
C      1  0.3030218948853  0.3344449820356  0.7407689006679 1.0
C      1  0.6968405522269  0.6765421680687  0.7294480320355 1.0
C      1  0.6971247826308  0.7767149221408  0.4040678644632 1.0
C      1  0.6963431392246  0.5040876343160  0.2188228308632 1.0
C      1  0.6954712848283  0.2308730287180  0.4138261325415 1.0
C      1  0.6975517424853  0.3352783223739  0.7393043074164 1.0
C      1  0.5509467908409  0.5676459991404  0.1384097918746 1.0
C      1  0.5480192697952  0.1688121819953  0.3256712766750 1.0
C      1  0.5504047754433  0.2345619944761  0.7698269322297 1.0
C      1  0.5500880610730  0.6747260625292  0.8336651710231 1.0
C      1  0.5505693862457  0.8717014959777  0.4356903288537 1.0
C      1  0.4544429388023  0.5646362054212  0.1401683692370 1.0
C      1  0.4490770179564  0.1622578423474  0.3282328515632 1.0
C      1  0.4510842878800  0.2342796973460  0.7706736259004 1.0
C      1  0.4516070606114  0.6743019127063  0.8334929488651 1.0
C      1  0.4526290367843  0.8710859020070  0.4361738071305 1.0
C      1  0.7659279515858  0.5499966010661  0.6422184843045 1.0
C      1  0.7685622869851  0.6534816418897  0.4954652848541 1.0
C      1  0.7778694848321  0.5532728703888  0.3471099888214 1.0
C      1  0.7717775837996  0.3776255308098  0.4091201095224 1.0
C      1  0.7650960856887  0.3807685918832  0.5898727780008 1.0
C      1  0.2353346317480  0.5487655024087  0.6416588336352 1.0
C      1  0.2331565075133  0.6527585578252  0.4950050036354 1.0
C      1  0.2282659343223  0.5497128363354  0.3485671435151 1.0
C      1  0.2340536452051  0.3769821060612  0.4141481985928 1.0
C      1  0.2333276903004  0.3777606794904  0.5920910656861 1.0
C      1  0.6145318809634  0.6689326058536  0.4509394217631 1.0
C      1  0.5960856827620  0.4858135985794  0.3707126544046 1.0
C      1  0.5941011050767  0.3555797071112  0.4574273045626 1.0
C      1  0.6103420879571  0.3868168862755  0.6403082954217 1.0
C      1  0.6113837318160  0.5930722323755  0.6463494475191 1.0
C      1  0.3879815216796  0.6654308041668  0.4526891282769 1.0
C      1  0.4282583983383  0.5224061742957  0.4285534834433 1.0
C      1  0.3908911337182  0.3441458871793  0.4391731783531 1.0
C      1  0.3876508735394  0.3843774785073  0.6395158555138 1.0
C      1  0.3907147998852  0.5926551525198  0.6452004889340 1.0
C      1  0.4086794159023  0.4545409667508  0.7126539652348 1.0
C      1  0.4101513510790  0.6861740041764  0.6045110229557 1.0
C      1  0.4074745519373  0.6587783161317  0.3507016552215 1.0
C      1  0.4192721630955  0.3648677826752  0.2816739658826 1.0
C      1  0.4088932478335  0.2812667698216  0.5270040742360 1.0
C      1  0.5923151061876  0.4558874863095  0.7144191972848 1.0
C      1  0.5925009152253  0.6859777029392  0.6042775922150 1.0
C      1  0.6001112938702  0.6571664357124  0.3474240399932 1.0
C      1  0.5962731188319  0.4009830707391  0.3063057975089 1.0
C      1  0.5882117303960  0.2858043790222  0.5284426036564 1.0
C      1  0.7400758910162  0.7116403948392  0.3512343268210 1.0
C      1  0.7360814757649  0.4286281934360  0.2623261380221 1.0
C      1  0.7331812590499  0.2528155313685  0.4991581401124 1.0
C      1  0.7355730761981  0.4228614969057  0.7399286360920 1.0
C      1  0.7345033060826  0.7038578701608  0.6466949078916 1.0
C      1  0.2650024517065  0.7084687075880  0.3509685193688 1.0
C      1  0.2778054528359  0.4237978968968  0.2699965874128 1.0
C      1  0.2654889242750  0.2468178903940  0.5008135105905 1.0
C      1  0.2653009455223  0.4221951385213  0.7406287070400 1.0
C      1  0.2674323198173  0.7030012511810  0.6460294705340 1.0
C      1  0.5785769061669  0.4519355944461  0.4571061298459 1.0
C      1  0.4084177987747  0.4381602877037  0.4651251369886 1.0
C      1  0.4902227781014  0.4786115726535  0.4844056190594 1.0
END
