TITL C-30330-4833-3 -0.655 3375.00 -95.94364922 0 0 13 (C1) n - 1
REM
REM Run started: at 2020.12.17 05:03:11 in /rds/project/t2_vol4/rds-t2-cs072/BORA/CARBON/AIRSS/Generating-Clusters/Str-Search/Higher-Symm/C10-100
REM VASP from code version vasp.5.4.4.18Apr17-6-g9f103f2a35 (build Oct 11 2019 16:45:47) gamma-only
REM
REM
REM
REM
REM ./C.cell (f39ce9773e2efe3fa5bbdf770a4156b8)
REM AIRSS Version 0.9.1 bugfix July 2018 build 013d7b7c2542+ Fri, 06 Jul 2018 19:26:36 +0100
REM compiler GCC version 4.8.5 20150623 (Red Hat 4.8.5-39)
REM options -cpp -mtune=generic -march=x86-64 -g -O0
REM seed -1191490907 -298178897 42399973 904874509 -531033534 -1223583790 -1860647816 583393039 2054695193 857937226 1359438583 187241603
REM
REM C.POTCAR (d86ddea03c3ceb6dc662c8ad6801f873)
REM 
CELL 1.54180   15.00000   15.00000   15.00000   90.00000   90.00000   90.00000
LATT -1
SFAC C  
C      1  0.4408782961563  0.5040492290092  0.5167557495158 1.0
C      1  0.5330169172655  0.4896023366245  0.5151780816461 1.0
C      1  0.4003689006573  0.5149468899577  0.2560013687484 1.0
C      1  0.3792046424299  0.5135655259503  0.6860924689559 1.0
C      1  0.2991733663263  0.5286710543703  0.6246579248883 1.0
C      1  0.4084548122172  0.5135070016558  0.3434344225343 1.0
C      1  0.3864821986614  0.5126041377988  0.5918237826308 1.0
C      1  0.2900332709755  0.5300236832224  0.7213217261126 1.0
C      1  0.6958191073928  0.4721021070059  0.4672092646715 1.0
C      1  0.8613283909812  0.4634338979483  0.4166397318584 1.0
C      1  0.7781650082389  0.4663686315002  0.4427584726909 1.0
C      1  0.4142482170895  0.5107128224660  0.4285043128130 1.0
C      1  0.6128269716083  0.4804128824904  0.4896227929340 1.0
END
