TITL C-30538-2259-25 -2.727 3375.00 -476.69082766 0 0 59 (S4) n - 1
REM
REM Run started: at 2020.12.28 07:33:08 in /rds/project/t2_vol4/rds-t2-cs072/BORA/CARBON/AIRSS/Generating-Clusters/Str-Search/Higher-Symm/C10-100
REM VASP from code version vasp.5.4.4.18Apr17-6-g9f103f2a35 (build Oct 11 2019 16:45:47) gamma-only
REM
REM
REM
REM
REM ./C.cell (f39ce9773e2efe3fa5bbdf770a4156b8)
REM AIRSS Version 0.9.1 bugfix July 2018 build 013d7b7c2542+ Fri, 06 Jul 2018 19:26:36 +0100
REM compiler GCC version 4.8.5 20150623 (Red Hat 4.8.5-39)
REM options -cpp -mtune=generic -march=x86-64 -g -O0
REM seed 1764246810 1933356053 -1988328440 -753752705 -234003785 -974729413 -597285865 -1087690127 -490598141 2115052314 1580995732 -1924936651
REM
REM C.POTCAR (d86ddea03c3ceb6dc662c8ad6801f873)
REM 
CELL 1.54180   15.00000   15.00000   15.00000   90.00000   90.00000   90.00000
LATT -1
SFAC C  
C      1  0.7079085231820  0.5309509801297  0.3570431186779 1.0
C      1  0.4707032788974  0.7029344188598  0.6412859020652 1.0
C      1  0.2982723713104  0.4656491296315  0.3575415200518 1.0
C      1  0.5360649414757  0.2932123370675  0.6408250355989 1.0
C      1  0.6393086438930  0.5418408036684  0.2926138422578 1.0
C      1  0.4602561855015  0.6342336361683  0.7056504057628 1.0
C      1  0.3666590488630  0.4546889070543  0.2929017512093 1.0
C      1  0.5471256407462  0.3614783599504  0.7055342837680 1.0
C      1  0.3790751822060  0.3658627061203  0.4755303796258 1.0
C      1  0.6357521965531  0.3738825314802  0.5225038501902 1.0
C      1  0.6270701668918  0.6298915880671  0.4755924961450 1.0
C      1  0.3714283133451  0.6221361678449  0.5229078486611 1.0
C      1  0.5528368217435  0.5685134327899  0.3386137107003 1.0
C      1  0.4332659851568  0.5477847419162  0.6598950430100 1.0
C      1  0.4531865038785  0.4273784262175  0.3384392449701 1.0
C      1  0.5744435867336  0.4479775461798  0.6598491138788 1.0
C      1  0.6004861399664  0.3526010205287  0.3524797316488 1.0
C      1  0.6493129551213  0.5953240566538  0.6454721440718 1.0
C      1  0.4055877497175  0.6436967566483  0.3528045177854 1.0
C      1  0.3579072086424  0.4007056500104  0.6455629014462 1.0
C      1  0.5949313760452  0.4671331720310  0.2513237750861 1.0
C      1  0.5349728237800  0.5899985823037  0.7468366439836 1.0
C      1  0.4109696719453  0.5294318508759  0.2516469069225 1.0
C      1  0.4723968449894  0.4058781843652  0.7466867964556 1.0
C      1  0.3572924163767  0.4969810665963  0.6254772840919 1.0
C      1  0.5041816476134  0.3515289599383  0.3728961507530 1.0
C      1  0.6503348640621  0.4990197824983  0.6253931370407 1.0
C      1  0.5018362641781  0.6443271962253  0.3730196457112 1.0
C      1  0.3756314756171  0.6128617273632  0.2688416533737 1.0
C      1  0.3889112008873  0.3708166160942  0.7295216502984 1.0
C      1  0.6300198297197  0.3836316116658  0.2684489627843 1.0
C      1  0.6185297193267  0.6250927651313  0.7295766645752 1.0
C      1  0.6251100942571  0.6550019458272  0.5746806697149 1.0
C      1  0.3460267256947  0.6201694502956  0.4238913580225 1.0
C      1  0.3813246993208  0.3409369425099  0.5746162499024 1.0
C      1  0.6604310371534  0.3762087566044  0.4233198730554 1.0
C      1  0.3052389860194  0.5456548436175  0.5602805655782 1.0
C      1  0.4555520346485  0.2994016329609  0.4381197707555 1.0
C      1  0.7021310401502  0.4505583294132  0.5597807264451 1.0
C      1  0.5504016130923  0.6960707611798  0.4384479146436 1.0
C      1  0.7095351891056  0.5793774867472  0.4404136436391 1.0
C      1  0.4220631388868  0.7043454295702  0.5580213232541 1.0
C      1  0.2968197890715  0.4169326683771  0.4407528984564 1.0
C      1  0.5846664497078  0.2915991190881  0.5575197996416 1.0
C      1  0.5717526388130  0.4506262595252  0.5589776589655 1.0
C      1  0.5503918243566  0.5656698747879  0.4395140809011 1.0
C      1  0.4355748694413  0.5451015603973  0.5589584848245 1.0
C      1  0.4560483562969  0.4297182300440  0.4393804167153 1.0
C      1  0.7409137109586  0.4952762377932  0.4891110007781 1.0
C      1  0.5060286417889  0.7354382928651  0.5090260333554 1.0
C      1  0.2658801756707  0.5010555400556  0.4898109699702 1.0
C      1  0.5003301046262  0.2605126313651  0.5087517085805 1.0
C      1  0.5544512266173  0.7167762131123  0.5901442158222 1.0
C      1  0.2844100296569  0.5494081870712  0.4086482281102 1.0
C      1  0.4521699440454  0.2793423713516  0.5899319134141 1.0
C      1  0.7219091412892  0.4470866911699  0.4079462083186 1.0
C      1  0.5028996648232  0.4980891962368  0.2881226173033 1.0
C      1  0.5037816424630  0.4978941419730  0.7101041754772 1.0
C      1  0.5033975536785  0.4976169939852  0.4992338817539 1.0
END
