TITL C-30219-7198-14 -2.169 3375.00 -358.37274417 0 0 45 (C5) n - 1
REM
REM Run started: at 2020.12.17 07:12:52 in /rds/project/t2_vol4/rds-t2-cs072/BORA/CARBON/AIRSS/Generating-Clusters/Str-Search/Higher-Symm/C10-100
REM VASP from code version vasp.5.4.4.18Apr17-6-g9f103f2a35 (build Oct 11 2019 16:45:47) gamma-only
REM
REM
REM
REM
REM ./C.cell (f39ce9773e2efe3fa5bbdf770a4156b8)
REM AIRSS Version 0.9.1 bugfix July 2018 build 013d7b7c2542+ Fri, 06 Jul 2018 19:26:36 +0100
REM compiler GCC version 4.8.5 20150623 (Red Hat 4.8.5-39)
REM options -cpp -mtune=generic -march=x86-64 -g -O0
REM seed 755481837 -876358901 -1078716160 1248125999 -1045678430 1938205188 1493370329 657671146 1799382639 -491690906 -1658398212 823724753
REM
REM C.POTCAR (d86ddea03c3ceb6dc662c8ad6801f873)
REM 
CELL 1.54180   15.00000   15.00000   15.00000   90.00000   90.00000   90.00000
LATT -1
SFAC C  
C      1  0.4163376368104  0.7187195065338  0.4252924731867 1.0
C      1  0.4169020906489  0.4970690754614  0.2683841788481 1.0
C      1  0.4162542472473  0.2791312806760  0.4319726554023 1.0
C      1  0.4166980447830  0.3666841933279  0.6886985140334 1.0
C      1  0.4163163769231  0.6381492168998  0.6849166382490 1.0
C      1  0.4617355427129  0.2742533248897  0.5776194814744 1.0
C      1  0.4613925639542  0.5036091349381  0.7382727624691 1.0
C      1  0.4614355103949  0.7279371653998  0.5698247101223 1.0
C      1  0.4615742673496  0.6372279551120  0.3044599603729 1.0
C      1  0.4615803349128  0.3565833529331  0.3097617360695 1.0
C      1  0.3862202592273  0.5825338459732  0.5065426677661 1.0
C      1  0.3862992240503  0.5319223349818  0.4230487530704 1.0
C      1  0.3860545813569  0.4368783820298  0.4457637204913 1.0
C      1  0.3860669531197  0.4287926262804  0.5430537708670 1.0
C      1  0.3861175266488  0.5188619952617  0.5805771501677 1.0
C      1  0.5586023576829  0.7256782599809  0.5554738315048 1.0
C      1  0.5588523015791  0.6230066624209  0.3023170111561 1.0
C      1  0.5587389003696  0.3501835332868  0.3229991978635 1.0
C      1  0.5589726292462  0.2846344270146  0.5882685539597 1.0
C      1  0.5585223901433  0.5168493329906  0.7318159134409 1.0
C      1  0.5723406291090  0.4217085956696  0.7307741302955 1.0
C      1  0.5719461120180  0.6946724422955  0.6454332169059 1.0
C      1  0.5721350934147  0.6992296865282  0.3594708365253 1.0
C      1  0.5722057512652  0.4277287957550  0.2677904074787 1.0
C      1  0.5721628182628  0.2571379895809  0.4971257325708 1.0
C      1  0.6155529280594  0.6136883841908  0.6067900763798 1.0
C      1  0.6156791485773  0.6373157241847  0.4245701493111 1.0
C      1  0.6155365676972  0.4710560032257  0.3466181067770 1.0
C      1  0.6155830419926  0.3454918487831  0.4808550211242 1.0
C      1  0.6157957436814  0.4335380157125  0.6416190931959 1.0
C      1  0.6122117851427  0.6532350796343  0.5156844432397 1.0
C      1  0.6123207854875  0.5627815884812  0.3590398859666 1.0
C      1  0.6120935654620  0.3859775136892  0.3976500020376 1.0
C      1  0.6123018732276  0.3668901548388  0.5776570428024 1.0
C      1  0.6120453231616  0.5322456023755  0.6505552714976 1.0
C      1  0.4711584809069  0.2385294880047  0.4865551665785 1.0
C      1  0.4711072422855  0.4059566284068  0.7446466887655 1.0
C      1  0.4708476909112  0.7033257785843  0.6645699471878 1.0
C      1  0.4708801480760  0.7197285552487  0.3570845919538 1.0
C      1  0.4710934055518  0.4318967363491  0.2472148596080 1.0
C      1  0.4059449412521  0.5481774166830  0.6725329750641 1.0
C      1  0.4061447311918  0.6790365676915  0.5070426658593 1.0
C      1  0.4062043383547  0.5623466042922  0.3314173223859 1.0
C      1  0.4059238588128  0.3590873079048  0.3888489452462 1.0
C      1  0.4061107569366  0.3505122854978  0.5993896407276 1.0
END
