TITL C-30513-3949-43 -6.637 3375.00 -1165.64485607 0 0 145 (C1) n - 1
REM
REM Run started: at 2020.12.23 05:56:32 in /gpfs/home/chem/mssmkc/CARBON/AIRSS/Generating-Clusters/Str-Search/Higher-Symm/C100-200
REM VASP from code version vasp.5.4.4.18Apr17-6-g9f103f2a35 (build Oct 11 2019 16:45:47) gamma-only
REM
REM
REM
REM
REM ./C.cell (533062f00bc710175b3da973d35f2034)
REM AIRSS Version 0.9.1 bugfix July 2018 build 013d7b7c2542+ Fri, 06 Jul 2018 19:26:36 +0100
REM compiler GCC version 6.3.0
REM options -cpp -iprefix /gpfs/warwick/csc/orac/software/Core/GCCcore/6.3.0/bin/../lib/gcc/x86_64-pc-linux-gnu/6.3.0/ -mtune=generic -march=x86-64 -g -O0
REM seed -1911217856 1249092944 -1278962777 -1633627034 -920234100 -1895151449 -2113788567 1382007757 1293163814 -1399785207 -552164187 -678363514
REM
REM C.POTCAR (d86ddea03c3ceb6dc662c8ad6801f873)
REM 
CELL 1.54180   15.00000   15.00000   15.00000   90.00000   90.00000   90.00000
LATT -1
SFAC C  
C      1  0.3205775874751  0.7831308719525  0.6271613399809 1.0
C      1  0.5477251032751  0.8402073160849  0.6185200460001 1.0
C      1  0.7936007968894  0.7549776622518  0.5682187314239 1.0
C      1  0.8432343285631  0.5155702580178  0.5407168423612 1.0
C      1  0.7627246172747  0.2732509141501  0.5501661335921 1.0
C      1  0.5687094727287  0.1568536635557  0.5708589613612 1.0
C      1  0.3377282976265  0.2205609291093  0.5209042815635 1.0
C      1  0.1793390277696  0.3638319795042  0.5282853652441 1.0
C      1  0.1519547644185  0.6185630692997  0.5471489567048 1.0
C      1  0.4096156854250  0.6939251115389  0.2455306011632 1.0
C      1  0.5678731647789  0.7084661915403  0.2222645858874 1.0
C      1  0.7045873883978  0.6247121653125  0.2596310890695 1.0
C      1  0.7518396803532  0.4561273733380  0.2769691731241 1.0
C      1  0.6681589154366  0.2997365417266  0.2847011455889 1.0
C      1  0.5169567165290  0.2447207033712  0.2480751523005 1.0
C      1  0.3585087308950  0.2722851110424  0.2768867054476 1.0
C      1  0.2403437098011  0.4529113462042  0.2732473101615 1.0
C      1  0.2461439242404  0.6434731391931  0.2973154153917 1.0
C      1  0.3235705461803  0.7028323167425  0.2860701857014 1.0
C      1  0.4890272583475  0.7555010976379  0.2594692938423 1.0
C      1  0.6591535240806  0.7181769034047  0.2493886795120 1.0
C      1  0.7853472235501  0.5552602415544  0.2702330452637 1.0
C      1  0.7598801372059  0.3491630856244  0.2889454205391 1.0
C      1  0.6063942648681  0.2160826183242  0.2759507551378 1.0
C      1  0.4323686057118  0.2092777185779  0.2821802031886 1.0
C      1  0.2172170869181  0.3554568279630  0.2671576674547 1.0
C      1  0.2100915997063  0.5519693495974  0.2934203912953 1.0
C      1  0.5310943354935  0.7813867029563  0.4393039245426 1.0
C      1  0.7052800695761  0.7232233903862  0.4050352781016 1.0
C      1  0.8066725950959  0.5212058342016  0.4373952036174 1.0
C      1  0.7310110730607  0.3061513485732  0.4528183879771 1.0
C      1  0.5739703038347  0.1886756407463  0.4775395366153 1.0
C      1  0.3434037521227  0.2001999643228  0.4180403858230 1.0
C      1  0.2111687309344  0.3661953127135  0.4323663621663 1.0
C      1  0.2044943596183  0.6093780307148  0.4526276722003 1.0
C      1  0.3596596278131  0.7537099861974  0.4475326962422 1.0
C      1  0.2302116707835  0.4494780967671  0.3822458831360 1.0
C      1  0.2234455790807  0.6814491619065  0.3838911428932 1.0
C      1  0.4462417996103  0.7301070123716  0.4100874943790 1.0
C      1  0.6040242949811  0.7291686267208  0.3988142047162 1.0
C      1  0.7210656856137  0.6316183666367  0.3626603822662 1.0
C      1  0.7587685162157  0.4481187877964  0.3820642038195 1.0
C      1  0.6527225705949  0.2892055798107  0.3869254293092 1.0
C      1  0.5075944963580  0.2210406490839  0.4125334910659 1.0
C      1  0.2967828078689  0.2481203380770  0.3499146427251 1.0
C      1  0.4816953083918  0.1445812790960  0.6123422280978 1.0
C      1  0.2615850529449  0.2326197400157  0.5923511175565 1.0
C      1  0.1452774285667  0.4409061467764  0.5766545419796 1.0
C      1  0.1901964658305  0.6657627860754  0.6221782768449 1.0
C      1  0.3849218186655  0.8201702050701  0.6821639223623 1.0
C      1  0.6424414624150  0.8014138654184  0.6415218323375 1.0
C      1  0.8309665905195  0.6822935542325  0.6169822992347 1.0
C      1  0.8415889263271  0.4349886969330  0.5984025469425 1.0
C      1  0.7226034810287  0.2166086612171  0.6145532184066 1.0
C      1  0.3637101449622  0.4895303310752  0.6105397300877 1.0
C      1  0.3834134792528  0.5881655751976  0.6335505122388 1.0
C      1  0.4679732004357  0.6452686427301  0.6329990173660 1.0
C      1  0.5626930343892  0.6586510795389  0.6742321123722 1.0
C      1  0.6187237438084  0.5761055284503  0.6983925531993 1.0
C      1  0.6115687971331  0.5127137766551  0.6191410670491 1.0
C      1  0.5769146651458  0.4266203354342  0.6278565657349 1.0
C      1  0.4967646908971  0.3886198789644  0.6913047329116 1.0
C      1  0.4073332960275  0.4023856583622  0.6456125429927 1.0
C      1  0.2445935702834  0.6452065982050  0.6999688594149 1.0
C      1  0.4409650819454  0.8053063158660  0.7584843104190 1.0
C      1  0.6359829981387  0.7880979308426  0.7386089866200 1.0
C      1  0.7961245452921  0.6141365216769  0.6715434557154 1.0
C      1  0.7899915322974  0.4186627613545  0.6733556767450 1.0
C      1  0.6671328610762  0.2285157534995  0.6940830465952 1.0
C      1  0.4561115368671  0.2207194907885  0.6671421632373 1.0
C      1  0.2623721409625  0.3073092579122  0.6592203502122 1.0
C      1  0.1880984872536  0.4833489831381  0.6459779914559 1.0
C      1  0.3348869396041  0.6312388577064  0.5559045336638 1.0
C      1  0.4523978604543  0.7139061079604  0.5735969693133 1.0
C      1  0.6025546706685  0.7106717025141  0.5960659604875 1.0
C      1  0.6635350328084  0.6573977307127  0.5447104583538 1.0
C      1  0.6698762813800  0.5641298386041  0.5507484048676 1.0
C      1  0.6045536303487  0.3569312162063  0.5622803448092 1.0
C      1  0.5098843124480  0.3326508270161  0.5196379789222 1.0
C      1  0.4262737360568  0.3492171789732  0.5648271216172 1.0
C      1  0.3319556746566  0.4805633177988  0.5130478659855 1.0
C      1  0.3961015264510  0.4939629481596  0.8374162655540 1.0
C      1  0.3759812133047  0.5771705389757  0.8064442421234 1.0
C      1  0.4574628344829  0.6370137983627  0.8214096170823 1.0
C      1  0.5321127678921  0.5820918185651  0.8282878822235 1.0
C      1  0.5961658233681  0.5347909965892  0.7886149063200 1.0
C      1  0.6575987169584  0.4510875349929  0.7871435573155 1.0
C      1  0.6081947411468  0.3708003394067  0.7887254841483 1.0
C      1  0.5109929751588  0.3989841265967  0.7880222764039 1.0
C      1  0.4445824537385  0.4243017132892  0.8458679950469 1.0
C      1  0.4482044684422  0.6070758497948  0.2277610747765 1.0
C      1  0.5432649913938  0.6152304420895  0.2198058859886 1.0
C      1  0.6201039582752  0.5629152039755  0.2598401571414 1.0
C      1  0.6470097376146  0.4640749417171  0.2725192655026 1.0
C      1  0.5941612175505  0.3758168650738  0.2734492732681 1.0
C      1  0.5068019408635  0.3380655451858  0.2392418670502 1.0
C      1  0.4122312326992  0.3648321899859  0.2773329499108 1.0
C      1  0.3527750554589  0.4537670622449  0.2756720635955 1.0
C      1  0.4081930604572  0.5379667408806  0.2853862052471 1.0
C      1  0.6006345839767  0.2054976330573  0.3788649223764 1.0
C      1  0.4292155068696  0.1799947842729  0.3731647524997 1.0
C      1  0.2251938361047  0.3088956579640  0.3500299083189 1.0
C      1  0.1894832796455  0.5356624434632  0.3841738723497 1.0
C      1  0.3003051315606  0.7392329234882  0.3796906410542 1.0
C      1  0.4823701026596  0.7929630560188  0.3459649653585 1.0
C      1  0.6663436247252  0.7705751203323  0.3282528894984 1.0
C      1  0.8048236758347  0.5843812171598  0.3596951675740 1.0
C      1  0.7810920209702  0.3556801463298  0.3816395158195 1.0
C      1  0.5278460117542  0.7714071942843  0.5466407261897 1.0
C      1  0.7232241278510  0.7300198167469  0.5026860148918 1.0
C      1  0.7495952945581  0.5309881472500  0.5136056010497 1.0
C      1  0.6975624183446  0.3650992400019  0.5285399283845 1.0
C      1  0.5719938695681  0.2615144626790  0.5470895160496 1.0
C      1  0.3501820806390  0.3194436084833  0.5204085803509 1.0
C      1  0.2829401046289  0.3850673735798  0.5058451419019 1.0
C      1  0.2909979758403  0.5755369635391  0.5007373947585 1.0
C      1  0.3570484998966  0.7298161141673  0.5452192922561 1.0
C      1  0.7191520358104  0.8049420819841  0.5762210540568 1.0
C      1  0.8568246210886  0.5950406137078  0.5980384680080 1.0
C      1  0.7753050893532  0.3659583412564  0.5897178546378 1.0
C      1  0.6491136159876  0.1625197077119  0.6266201820537 1.0
C      1  0.4055486093329  0.1879492796013  0.5901987995229 1.0
C      1  0.1916786586120  0.2915155924956  0.5932177141434 1.0
C      1  0.1387891832092  0.5342495649879  0.5834826593178 1.0
C      1  0.2496960068826  0.7287374538833  0.6593690381027 1.0
C      1  0.4769926851770  0.8471032406651  0.6788435381798 1.0
C      1  0.5705441383116  0.7263574857354  0.7543840054267 1.0
C      1  0.7254528556750  0.5677070338178  0.7096467982598 1.0
C      1  0.7349818593160  0.4738043437468  0.7337010481038 1.0
C      1  0.6067145648158  0.2858862822936  0.7384182382460 1.0
C      1  0.5124461722794  0.2856429995302  0.7019226525842 1.0
C      1  0.3134285513559  0.3798314087303  0.6868877264287 1.0
C      1  0.2811842889951  0.4784287083116  0.6808288507093 1.0
C      1  0.3167530231630  0.5763369926923  0.7222859234353 1.0
C      1  0.4823348101141  0.7290619600902  0.7981825683575 1.0
C      1  0.5665918445297  0.6362721421056  0.3978069553375 1.0
C      1  0.6313822982106  0.5704579744906  0.3680798356175 1.0
C      1  0.6491418914031  0.4663601492286  0.3763545392504 1.0
C      1  0.5878343429102  0.3706392249430  0.3795690324034 1.0
C      1  0.4995399096517  0.3302817047482  0.4215380089705 1.0
C      1  0.4205962922589  0.3799217583996  0.3836443865416 1.0
C      1  0.3320783288737  0.4373809568991  0.3706784561462 1.0
C      1  0.4266652475924  0.5542882076385  0.3746583273669 1.0
C      1  0.4766344823500  0.6335134222045  0.4017418313002 1.0
C      1  0.3975847256705  0.4774656407766  0.4293621120647 1.0
END
