TITL C-30446-5047-21 -7.925 3375.00 -1364.88546922 0 0 169 (C1) n - 1
REM
REM Run started: at 2020.12.21 06:24:11 in /gpfs/home/chem/mssmkc/CARBON/AIRSS/Generating-Clusters/Str-Search/Higher-Symm/C100-200
REM VASP from code version vasp.5.4.4.18Apr17-6-g9f103f2a35 (build Oct 11 2019 16:45:47) gamma-only
REM
REM
REM
REM
REM ./C.cell (533062f00bc710175b3da973d35f2034)
REM AIRSS Version 0.9.1 bugfix July 2018 build 013d7b7c2542+ Fri, 06 Jul 2018 19:26:36 +0100
REM compiler GCC version 6.3.0
REM options -cpp -iprefix /gpfs/warwick/csc/orac/software/Core/GCCcore/6.3.0/bin/../lib/gcc/x86_64-pc-linux-gnu/6.3.0/ -mtune=generic -march=x86-64 -g -O0
REM seed -2022630179 1649526728 -207913994 244965552 1140108425 743381594 -1058274720 -260041041 233746434 -998121536 1122389520 1437615405
REM
REM C.POTCAR (d86ddea03c3ceb6dc662c8ad6801f873)
REM 
CELL 1.54180   15.00000   15.00000   15.00000   90.00000   90.00000   90.00000
LATT -1
SFAC C  
C      1  0.7465574818294  0.2605340594017  0.5621619086947 1.0
C      1  0.7432732144711  0.3687481554933  0.2976401167246 1.0
C      1  0.7377194563805  0.6545125585680  0.3135011819945 1.0
C      1  0.7451120745005  0.7328028880259  0.5863978483278 1.0
C      1  0.7475750342650  0.4884107815902  0.7387567486279 1.0
C      1  0.9174178395287  0.6856759656955  0.5931200332406 1.0
C      1  0.8966034772938  0.4534229847405  0.7560510367313 1.0
C      1  0.9234432981933  0.2704511214840  0.5330887700248 1.0
C      1  0.8784375152431  0.4376791023979  0.3753851446874 1.0
C      1  0.8746239772736  0.5940041542077  0.3923969041461 1.0
C      1  0.8406380406502  0.4746116154468  0.6920514110731 1.0
C      1  0.8405875024580  0.2602544367155  0.5436999827340 1.0
C      1  0.8335250110279  0.3981449776968  0.3190402321496 1.0
C      1  0.8292755513648  0.6429745273439  0.3447300885801 1.0
C      1  0.8387390339835  0.7153877845654  0.5966382974442 1.0
C      1  0.5905359923781  0.4198771311150  0.2953706655895 1.0
C      1  0.5860197503770  0.6678455009480  0.3625889010939 1.0
C      1  0.5944894193026  0.6869547849491  0.6190169795704 1.0
C      1  0.5974988735480  0.4442932067926  0.7083371303357 1.0
C      1  0.5951513338099  0.2825264139383  0.5131190357364 1.0
C      1  0.4005904083696  0.5040631599419  0.5808996864072 1.0
C      1  0.3529692977511  0.4210575473710  0.5472292396344 1.0
C      1  0.3978097984464  0.4394546282123  0.4553594243047 1.0
C      1  0.3877727997180  0.5323109082479  0.4331364489364 1.0
C      1  0.4009544261041  0.5765444706106  0.5134042792482 1.0
C      1  0.6811276740342  0.4473413306659  0.3322817412867 1.0
C      1  0.6776529565220  0.6445989738307  0.3997369888353 1.0
C      1  0.6877339324578  0.6449063806202  0.6055518053993 1.0
C      1  0.6898461297899  0.4425535805619  0.6656138481272 1.0
C      1  0.6906035585259  0.3221202225683  0.4974583891335 1.0
C      1  0.2918096177528  0.9042229207037  0.4248849026127 1.0
C      1  0.3091913778105  0.6887603662444  0.8971979190651 1.0
C      1  0.2966431690749  0.2071523871195  0.7983786380048 1.0
C      1  0.3004331632214  0.1188144387249  0.3076090156971 1.0
C      1  0.2978906829146  0.5770699505850  0.0729961533172 1.0
C      1  0.4378403198659  0.8372487218520  0.5091333405956 1.0
C      1  0.4498650625175  0.5990387151206  0.8241281991356 1.0
C      1  0.4457733316718  0.2250441803059  0.6976795638125 1.0
C      1  0.4418755021825  0.2313772985973  0.2944332450305 1.0
C      1  0.4370199501098  0.6090312755185  0.1836696175525 1.0
C      1  0.2210000447080  0.5035030902431  0.7022755169859 1.0
C      1  0.2076381664536  0.3111172949680  0.5428068628955 1.0
C      1  0.2063463425608  0.4079797787141  0.3135666414347 1.0
C      1  0.2092278941678  0.6064265819511  0.3480906346327 1.0
C      1  0.2075939659383  0.6746086880961  0.6014777215792 1.0
C      1  0.7080579896002  0.7817043567077  0.5064964780675 1.0
C      1  0.7160931744535  0.5804166096822  0.7649520385170 1.0
C      1  0.7132684609845  0.2675964401539  0.6571871968582 1.0
C      1  0.7110908526549  0.2789604090933  0.3294907275959 1.0
C      1  0.7058116086074  0.5952362379935  0.2384778619956 1.0
C      1  0.3901686335011  0.4187160497122  0.8502659947553 1.0
C      1  0.3836769883115  0.1478917286994  0.5295137325076 1.0
C      1  0.3870300673934  0.3561451141567  0.1612761698148 1.0
C      1  0.3746254316176  0.7669358384830  0.2725743885434 1.0
C      1  0.3857982675953  0.8140174072823  0.6900345132567 1.0
C      1  0.2917674591633  0.5503515420519  0.6758839323623 1.0
C      1  0.2571362646143  0.3898784949870  0.5570406591797 1.0
C      1  0.2830284498338  0.3759613917072  0.3740010662923 1.0
C      1  0.2804767863529  0.5538592939522  0.3383023737801 1.0
C      1  0.2835451190559  0.6658789611357  0.5332632344726 1.0
C      1  0.2831741135080  0.8398438528027  0.5612722020609 1.0
C      1  0.2948513803695  0.5504440354334  0.8463150973711 1.0
C      1  0.2880780646161  0.2000220758542  0.6485349393901 1.0
C      1  0.2878231756349  0.2555576994436  0.2441325148013 1.0
C      1  0.2807182767880  0.6613309993756  0.1968219439841 1.0
C      1  0.6600986534695  0.2652296261468  0.2472624568528 1.0
C      1  0.6536342868707  0.6690976084896  0.1997977785689 1.0
C      1  0.6566884648798  0.8425102373534  0.5644724949205 1.0
C      1  0.6668153170217  0.5428816570640  0.8410982773053 1.0
C      1  0.6594922330804  0.1858655953476  0.6462146864364 1.0
C      1  0.4618847134576  0.8585135051437  0.6705452820710 1.0
C      1  0.4658402274011  0.4502833656014  0.8895269847889 1.0
C      1  0.4579070130718  0.1190904353782  0.5732594115454 1.0
C      1  0.4640446794973  0.3100610172935  0.1517753490920 1.0
C      1  0.4490023330364  0.7673388214993  0.2201150168818 1.0
C      1  0.2227318687750  0.7067877225069  0.3451288501544 1.0
C      1  0.2328739167246  0.7378733831925  0.6761821279082 1.0
C      1  0.2370041975186  0.4248664984220  0.7614573785920 1.0
C      1  0.2305052525444  0.2285929183382  0.4949462420406 1.0
C      1  0.2322241728031  0.4065500216927  0.2165692231725 1.0
C      1  0.3488390196494  0.6204791821064  0.1424798487489 1.0
C      1  0.3469822131281  0.8717439378905  0.4973933824132 1.0
C      1  0.3621762459450  0.6154718762502  0.8632059825564 1.0
C      1  0.3530408390067  0.2022362539401  0.7202399117137 1.0
C      1  0.3534718527011  0.1933971312554  0.2765343781269 1.0
C      1  0.2951880749686  0.8071816099507  0.6496571274227 1.0
C      1  0.3008801831934  0.4565599662567  0.8300083261169 1.0
C      1  0.2940931445065  0.1815541555010  0.5554823395434 1.0
C      1  0.2966418108498  0.3365916945513  0.1954639904554 1.0
C      1  0.2859233202782  0.7225788694028  0.2684810812240 1.0
C      1  0.5267850528642  0.1897644306231  0.3341403181567 1.0
C      1  0.5229658116045  0.5616119157100  0.1531697939729 1.0
C      1  0.5213511532540  0.8485368850508  0.4519898679252 1.0
C      1  0.5334813866829  0.6566063800907  0.8186050016041 1.0
C      1  0.5310568580881  0.2452449971299  0.7496811954662 1.0
C      1  0.6865862474227  0.5080082976874  0.2483865530659 1.0
C      1  0.6831999034246  0.7431260435930  0.4294536659791 1.0
C      1  0.6936273110259  0.6461875270262  0.7076640063709 1.0
C      1  0.6950151233543  0.3446252706547  0.6995612690203 1.0
C      1  0.6911991567734  0.2606916537208  0.4151960434264 1.0
C      1  0.4414908555685  0.3284603369679  0.3347966565981 1.0
C      1  0.4383991076718  0.5983897882939  0.2878773529107 1.0
C      1  0.4414683365299  0.7360677268020  0.5363265709445 1.0
C      1  0.4508213135051  0.5447060851526  0.7346342763600 1.0
C      1  0.4499913972144  0.2925994862240  0.6174988486553 1.0
C      1  0.6288305615056  0.4408327510598  0.2007086167186 1.0
C      1  0.6228398716940  0.7653314410313  0.3517047595625 1.0
C      1  0.6330821547321  0.7276037670806  0.7073695030177 1.0
C      1  0.6360767953828  0.3733318665853  0.7757756197715 1.0
C      1  0.6300153761558  0.1972226394766  0.4640707918019 1.0
C      1  0.6829040732829  0.7950767129246  0.6431809990152 1.0
C      1  0.6920673160539  0.4532032999177  0.8194888935834 1.0
C      1  0.6818920403613  0.1785387042164  0.5539617063526 1.0
C      1  0.6855287181830  0.3503266666774  0.2116515409010 1.0
C      1  0.6786636777641  0.7290314971767  0.2695262406182 1.0
C      1  0.3888743287269  0.3531303228094  0.6034273122517 1.0
C      1  0.3782062800945  0.3721231120599  0.3857517079624 1.0
C      1  0.3753657298425  0.5611758332575  0.3413277033094 1.0
C      1  0.3785417511642  0.6703284849313  0.5253392270369 1.0
C      1  0.3865924933357  0.5401402125517  0.6711394699964 1.0
C      1  0.2026216432364  0.3554325681803  0.6237292335904 1.0
C      1  0.2039408241409  0.3369410959683  0.3821423674276 1.0
C      1  0.1990018733420  0.5135878030034  0.3018503114303 1.0
C      1  0.2023807492499  0.6832777732309  0.5019721747679 1.0
C      1  0.2070304198219  0.6008431025642  0.6768688048330 1.0
C      1  0.5015881579435  0.5390098946481  0.8889615984185 1.0
C      1  0.4939178218597  0.1437711494627  0.6585831618102 1.0
C      1  0.4956263223282  0.2389201739903  0.2069960720923 1.0
C      1  0.4866931246677  0.6968996633156  0.1674906354539 1.0
C      1  0.4910002432787  0.8848458476167  0.5834036560096 1.0
C      1  0.6905255492553  0.5668317620574  0.4574327020531 1.0
C      1  0.6990106946136  0.5669994108651  0.5480996558405 1.0
C      1  0.7231006195591  0.4741680759588  0.5767282091280 1.0
C      1  0.7038221874004  0.4189469673057  0.4961234299509 1.0
C      1  0.6921711368753  0.4754281847047  0.4254405422190 1.0
C      1  0.2577397648447  0.6419808721966  0.8278924037693 1.0
C      1  0.2494959023447  0.2515596663143  0.7254282911109 1.0
C      1  0.2495656292135  0.2012591731152  0.3199031546177 1.0
C      1  0.2464078570413  0.5760967157415  0.1560225904187 1.0
C      1  0.2429685213087  0.8319712085236  0.4685916636432 1.0
C      1  0.5477825213342  0.7255913820519  0.7604624571119 1.0
C      1  0.5500230122805  0.3236634939450  0.7926500765591 1.0
C      1  0.5432074382732  0.1695074515799  0.4214152398917 1.0
C      1  0.5422859829937  0.4723194347401  0.1590565452907 1.0
C      1  0.5361618652938  0.8121384004118  0.3700506077933 1.0
C      1  0.5749584670787  0.2197705626296  0.2514714698516 1.0
C      1  0.5678653824898  0.6511591886082  0.1589565465836 1.0
C      1  0.5703420386675  0.8746078319232  0.5352857933986 1.0
C      1  0.5815580470550  0.5814029385787  0.8655102289530 1.0
C      1  0.5753900702419  0.1756833690573  0.6919684875882 1.0
C      1  0.4763644074680  0.1815958739284  0.4967463331553 1.0
C      1  0.4762979766047  0.4015870370861  0.1906287771413 1.0
C      1  0.4678809386554  0.7578214963870  0.3179107509511 1.0
C      1  0.4791661602730  0.7627865248391  0.6939420582818 1.0
C      1  0.4831177913942  0.3992219160461  0.8052206036960 1.0
C      1  0.5072595039269  0.3872650487341  0.2910911459854 1.0
C      1  0.5020557085121  0.6599679211417  0.3323293863127 1.0
C      1  0.5102221493146  0.7156722843440  0.6046487178958 1.0
C      1  0.5151912522820  0.4693683188697  0.7342094128912 1.0
C      1  0.5100111029236  0.2681092957716  0.5421619415343 1.0
C      1  0.2146068902132  0.2405514487268  0.4032637702191 1.0
C      1  0.2165235180679  0.4985926925733  0.2052019843312 1.0
C      1  0.2079437805140  0.7485569425660  0.4275900474627 1.0
C      1  0.2224222440647  0.6729413663559  0.7433962199862 1.0
C      1  0.2178558176433  0.3438962333548  0.7177142420045 1.0
C      1  0.8292243702208  0.4819536857340  0.5949913799691 1.0
C      1  0.8827629941000  0.5001090086130  0.5267971360786 1.0
C      1  0.8910213829421  0.5105338190501  0.4369545099266 1.0
C      1  0.4818952099983  0.4949195153324  0.5167214227845 1.0
END
