TITL C-30559-8934-1 -13.161 3375.00 -2454.19278824 0 0 297 (C1) n - 1
REM
REM Run started: at 2020.11.26 06:29:11 in /rds/project/t2_vol4/rds-t2-cs072/BORA/CARBON/AIRSS/Generating-Clusters/Str-Search/Higher-Symm
REM VASP from code version vasp.5.4.4.18Apr17-6-g9f103f2a35 (build Oct 11 2019 16:45:47) gamma-only
REM
REM
REM
REM
REM ./C.cell (e5ae0387ce4d49c7c0135a1433873289)
REM AIRSS Version 0.9.1 bugfix July 2018 build 013d7b7c2542+ Fri, 06 Jul 2018 19:26:36 +0100
REM compiler GCC version 4.8.5 20150623 (Red Hat 4.8.5-39)
REM options -cpp -mtune=generic -march=x86-64 -g -O0
REM seed -1095367 -1167251332 1971940066 -308243126 1463502774 198867181 -423259093 1540577491 1401129891 -52188767 755087408 -1760590874
REM
REM C.POTCAR (d86ddea03c3ceb6dc662c8ad6801f873)
REM 
CELL 1.54180   15.00000   15.00000   15.00000   90.00000   90.00000   90.00000
LATT -1
SFAC C  
C      1  0.1799836498480  0.2980637276597  0.8529789558611 1.0
C      1  0.1160917798675  0.1704492987798  0.5150876242736 1.0
C      1  0.1472391980874  0.2184597964603  0.2041467661981 1.0
C      1  0.1409981427439  0.5809593028286  0.1623571040757 1.0
C      1  0.1898441640290  0.8225125053002  0.3530690758815 1.0
C      1  0.1042953730771  0.8125494441042  0.6261990442374 1.0
C      1  0.1047632966588  0.5598441437832  0.8127876725577 1.0
C      1  0.5408702206084  0.3615445286987  0.3165648959191 1.0
C      1  0.5367913330693  0.5499051501945  0.2687796307151 1.0
C      1  0.5769641313148  0.6976870102208  0.3339720367994 1.0
C      1  0.5230294377236  0.7015185806911  0.6396858356204 1.0
C      1  0.5724942674529  0.5576971112570  0.7428654409368 1.0
C      1  0.6178667522456  0.4017707565609  0.7377741315138 1.0
C      1  0.5306419224214  0.2498830242034  0.4836822024942 1.0
C      1  0.6605411062066  0.5951323911120  0.4355974824999 1.0
C      1  0.6829853525032  0.6028081038466  0.5359148857889 1.0
C      1  0.6794283243521  0.5342570174163  0.6014252354469 1.0
C      1  0.6800323834455  0.4395510603686  0.5778627773023 1.0
C      1  0.6928685108548  0.3927358454929  0.4918036152481 1.0
C      1  0.6744679390092  0.4269033937699  0.3986820049637 1.0
C      1  0.6678868857993  0.5166879414463  0.3716653040393 1.0
C      1  0.3435323655427  0.2340619553917  0.1353750605165 1.0
C      1  0.3226652637095  0.6543108737935  0.0468114942803 1.0
C      1  0.3483426073463  0.9167136372304  0.3489525238040 1.0
C      1  0.3557971436475  0.8684066133951  0.6626167840832 1.0
C      1  0.4208230221610  0.6165818627578  0.9235418250183 1.0
C      1  0.3822572184482  0.1825705138033  0.8104991048215 1.0
C      1  0.3122019725717  0.0355102361965  0.4787591754294 1.0
C      1  0.4546209375337  0.4163122049041  0.7734049401003 1.0
C      1  0.4314479805991  0.2330079450933  0.6038617048822 1.0
C      1  0.4244046881930  0.2511958233262  0.3673021911278 1.0
C      1  0.4163744996799  0.4507368932271  0.2432390073833 1.0
C      1  0.4264400309041  0.6748852317320  0.3049770270960 1.0
C      1  0.4222256700906  0.7709096644359  0.5426693935311 1.0
C      1  0.4233345460309  0.6334048003283  0.7421069075231 1.0
C      1  0.1969117159723  0.6823689113254  0.7752199175184 1.0
C      1  0.2260534029632  0.4577315869483  0.8766849417351 1.0
C      1  0.1806836384768  0.1339038142168  0.6607910546431 1.0
C      1  0.2246869322419  0.1181342313565  0.2954693688991 1.0
C      1  0.2147787786076  0.4463193858147  0.1858196285352 1.0
C      1  0.2364493865777  0.6975673223834  0.2677974324541 1.0
C      1  0.1929985391251  0.7861995381021  0.5036669731228 1.0
C      1  0.6651962604939  0.5829112371988  0.9664091868511 1.0
C      1  0.6400456289670  0.1687670121012  0.8479714216052 1.0
C      1  0.6482507252353  0.0797296888243  0.4660621268562 1.0
C      1  0.6682555262050  0.2507839090543  0.1108202382616 1.0
C      1  0.5228492630064  0.7177946036824  0.0915930255170 1.0
C      1  0.6301747075408  0.9145503863874  0.3506693557545 1.0
C      1  0.6532315877862  0.8727419655245  0.7190378327118 1.0
C      1  0.8625419161991  0.5952498060065  0.5706919473730 1.0
C      1  0.8679993436154  0.5091534502592  0.6093320083294 1.0
C      1  0.8815667274039  0.4256085925097  0.5591768627061 1.0
C      1  0.8733344567933  0.3957381783049  0.4709074997802 1.0
C      1  0.8874688447075  0.4611796533939  0.3978368782997 1.0
C      1  0.8585645811779  0.5554799999193  0.3926262965316 1.0
C      1  0.8548781266643  0.6087324096034  0.4787043256846 1.0
C      1  0.2439354774612  0.3261472537909  0.5450449111392 1.0
C      1  0.2185593403972  0.3576205798094  0.3675907686580 1.0
C      1  0.3038621131593  0.5208400191600  0.3470398330337 1.0
C      1  0.2680592531351  0.5972609534094  0.4017700523645 1.0
C      1  0.2302107213659  0.6408424293256  0.5918015422467 1.0
C      1  0.2365368895307  0.5607085593990  0.6675450667123 1.0
C      1  0.2589557948564  0.3514718034800  0.6396838203717 1.0
C      1  0.3528060546621  0.9505558720153  0.5171787728996 1.0
C      1  0.3596484672756  0.7961546605669  0.8399063024053 1.0
C      1  0.4106202768205  0.3349117943989  0.9824357881832 1.0
C      1  0.3559756026275  0.0607732448858  0.6879818460792 1.0
C      1  0.3815640296153  0.0861006274795  0.3051911979902 1.0
C      1  0.3980165501600  0.3840616092664  0.0672701714171 1.0
C      1  0.3262180543066  0.8076442422033  0.1460096464360 1.0
C      1  0.8950977959994  0.1275853855710  0.4804399071852 1.0
C      1  0.9013054103834  0.3007553322174  0.1972086581733 1.0
C      1  0.8851506095423  0.6009138041094  0.1029476202440 1.0
C      1  0.8748827142528  0.8427406871848  0.3157257902267 1.0
C      1  0.8921642569660  0.8876632983893  0.6677256027565 1.0
C      1  0.9583814111166  0.6002169662376  0.7978729217487 1.0
C      1  0.9070769432137  0.2984497816104  0.7641534250904 1.0
C      1  0.2725934294707  0.8474953416219  0.2118671694438 1.0
C      1  0.3120731955938  0.9296584764965  0.6106445791563 1.0
C      1  0.3218955349137  0.7438124015221  0.9015939931204 1.0
C      1  0.3714400910764  0.2548883623675  0.9598662689482 1.0
C      1  0.2166278085137  0.0605662407024  0.6135753872677 1.0
C      1  0.3120263458488  0.1074399482279  0.2468400449449 1.0
C      1  0.3744201527332  0.4877158845223  0.0834770276055 1.0
C      1  0.6989512235637  0.1585338413403  0.7042472309184 1.0
C      1  0.5524329202048  0.1535409010430  0.2881279492493 1.0
C      1  0.5874984382567  0.3995132593957  0.0500775917207 1.0
C      1  0.4954668730305  0.7711376369746  0.1632331671259 1.0
C      1  0.5939029763018  0.8300973907524  0.4715982580613 1.0
C      1  0.4963880801752  0.7894937840400  0.9340761923564 1.0
C      1  0.5765267910501  0.3768981611136  0.9515881449789 1.0
C      1  0.0352459082011  0.3822679750920  0.4504549499995 1.0
C      1  0.9940300304161  0.4586650931948  0.3927372921821 1.0
C      1  0.0522123295795  0.5379213403494  0.3976695978118 1.0
C      1  0.0194976504573  0.6093403597510  0.4606359200284 1.0
C      1  0.0571644260250  0.6097738527394  0.5480756883335 1.0
C      1  0.0033952013398  0.5961139862210  0.6391128319006 1.0
C      1  0.0421913196581  0.4053416318769  0.5485504145937 1.0
C      1  0.5156822252705  0.7306084922645  0.9960140194700 1.0
C      1  0.5603104143442  0.9132901142430  0.4253094334662 1.0
C      1  0.5882321850985  0.8620034809896  0.7751643033493 1.0
C      1  0.5035392718843  0.6239361109826  0.9877173531802 1.0
C      1  0.6562027397501  0.1201506623004  0.7797449145384 1.0
C      1  0.5200631582503  0.9866109848426  0.4818222934098 1.0
C      1  0.5939603980643  0.3077312408747  0.0971752178476 1.0
C      1  0.1537169407770  0.5915200418299  0.5438514531083 1.0
C      1  0.1790459274015  0.5098214599612  0.6008805339348 1.0
C      1  0.1248464552954  0.4293293629498  0.5762013295355 1.0
C      1  0.1880444349371  0.3989005936598  0.5079529492827 1.0
C      1  0.1421150218729  0.3988540063511  0.4183922992410 1.0
C      1  0.1336189500444  0.5016159491417  0.4060464590020 1.0
C      1  0.1970390420221  0.5535857341514  0.4576210075648 1.0
C      1  0.7058706679500  0.7680336536071  0.5206056077756 1.0
C      1  0.6990312627503  0.6554479914827  0.7342876386789 1.0
C      1  0.6790418546350  0.4332533898673  0.8112813031453 1.0
C      1  0.7268922568351  0.2556235518703  0.5836977288348 1.0
C      1  0.6686627397602  0.2599398501476  0.3448069156418 1.0
C      1  0.6618747739305  0.4592641831817  0.1964275845814 1.0
C      1  0.6710089275938  0.6989278786901  0.2833833936213 1.0
C      1  0.9314761710419  0.6392482080151  0.4316909520429 1.0
C      1  0.9230093972394  0.6527995833362  0.6235317637391 1.0
C      1  0.9583643883540  0.4983419605536  0.6624609012309 1.0
C      1  0.9664448095544  0.4250590457415  0.5967396561802 1.0
C      1  0.9456106468005  0.3347198781023  0.4234788512939 1.0
C      1  0.9382870861935  0.3957897518528  0.3382076008538 1.0
C      1  0.9017584940137  0.6275864209457  0.3396429256154 1.0
C      1  0.3531572045214  0.5262767928198  0.2637936266967 1.0
C      1  0.3693482840095  0.7073696185714  0.3895533889299 1.0
C      1  0.3469915233859  0.7254706012196  0.5968352544759 1.0
C      1  0.3552368153322  0.5572445081962  0.7539359827223 1.0
C      1  0.4026721261480  0.3723813910862  0.7002388585260 1.0
C      1  0.3619989188940  0.2333472531542  0.5192026379617 1.0
C      1  0.3467841892747  0.3111398146310  0.3208674804286 1.0
C      1  0.6766165404091  0.7760908715584  0.4292134686406 1.0
C      1  0.7104100941701  0.7166611968636  0.6668845988309 1.0
C      1  0.7285216643735  0.5047995511319  0.7847828968707 1.0
C      1  0.7184149045866  0.3062029959228  0.6622204036170 1.0
C      1  0.7020739635474  0.2360777539043  0.4246009139896 1.0
C      1  0.6851416871661  0.3786364716931  0.2315507411936 1.0
C      1  0.6798546090791  0.6215478621320  0.2241789130321 1.0
C      1  0.2553712955691  0.5143123674273  0.2503959217557 1.0
C      1  0.2643768927477  0.6887259118722  0.3625325831460 1.0
C      1  0.2417007198905  0.7471981795758  0.5905315941831 1.0
C      1  0.2502514507701  0.5898599783544  0.7709934830771 1.0
C      1  0.2216548450027  0.3077895628647  0.7057711846420 1.0
C      1  0.2625608569493  0.2340443514034  0.5133915078044 1.0
C      1  0.2428732507812  0.3059747766640  0.2982008996751 1.0
C      1  0.5004657444154  0.3184554673148  0.4078795104524 1.0
C      1  0.4959628987415  0.4594828596607  0.3073232970503 1.0
C      1  0.5112662000868  0.6233656693903  0.3380629030887 1.0
C      1  0.4913350883769  0.6973358584615  0.5540016450951 1.0
C      1  0.5110973361545  0.6108866340805  0.6812864902479 1.0
C      1  0.5368515855176  0.4594269201165  0.7215291944400 1.0
C      1  0.5048122914152  0.2921730083062  0.5609961410116 1.0
C      1  0.1809526242882  0.3753163762318  0.8836184248724 1.0
C      1  0.1218615341607  0.1775585735909  0.5990258381332 1.0
C      1  0.1452646355993  0.1491428997821  0.2531054292094 1.0
C      1  0.1378246484034  0.4963792649364  0.1567588056650 1.0
C      1  0.2078710242469  0.7973146001588  0.2637215213778 1.0
C      1  0.1011238288606  0.8073757402869  0.5386009748186 1.0
C      1  0.1065573510757  0.6506835054436  0.7778506339992 1.0
C      1  0.5008783025921  0.3909112207941  0.5531927394121 1.0
C      1  0.4910962688837  0.4020615521743  0.4614373170866 1.0
C      1  0.4675892107479  0.4787507388534  0.4035768891077 1.0
C      1  0.5078169898064  0.5705368343686  0.4265285526220 1.0
C      1  0.4811607097827  0.6006427919005  0.5200919424712 1.0
C      1  0.5054927705245  0.5503719021221  0.6018418333596 1.0
C      1  0.5122276287924  0.4619823204062  0.6204076533745 1.0
C      1  0.3173428000877  0.9027381834936  0.2743153464696 1.0
C      1  0.2839833167706  0.0094235832966  0.6526322425517 1.0
C      1  0.3477483100263  0.6786810389000  0.9558059189630 1.0
C      1  0.3632390579528  0.1970936667753  0.8998124208017 1.0
C      1  0.2378832542029  0.0705794596231  0.5192495036895 1.0
C      1  0.3282221399772  0.1617896098348  0.1720702779582 1.0
C      1  0.3301516102923  0.5606383170338  0.0622385197604 1.0
C      1  0.7242343860802  0.6130510306772  0.8926977091223 1.0
C      1  0.6573186442989  0.2643883623826  0.8245620735569 1.0
C      1  0.6973276855075  0.1076776500186  0.5350338667447 1.0
C      1  0.6793016026666  0.2145776924859  0.1955838831729 1.0
C      1  0.6779026986486  0.5538073682180  0.0633069015319 1.0
C      1  0.6064574618608  0.8461113108646  0.2900863195133 1.0
C      1  0.6751546899869  0.8804381662574  0.6297324073219 1.0
C      1  0.6487694504857  0.4726604619484  0.0967647565423 1.0
C      1  0.6877041490952  0.7984427094599  0.2729757248759 1.0
C      1  0.6492495352208  0.8396788742029  0.5529498334510 1.0
C      1  0.6936160615923  0.6691825487452  0.8270597601843 1.0
C      1  0.6445434476344  0.3602009974601  0.8760628767597 1.0
C      1  0.7095138931344  0.1616859896691  0.6114982453991 1.0
C      1  0.6415731055298  0.1914306581628  0.2763434757932 1.0
C      1  0.6473137130487  0.3570936851224  0.3245108807606 1.0
C      1  0.6390059428924  0.5363854813535  0.2639933488934 1.0
C      1  0.6581697318312  0.6859947271522  0.3873195231608 1.0
C      1  0.7045088660194  0.6919776674092  0.5730702496031 1.0
C      1  0.6750592238366  0.5597432228850  0.7092386167697 1.0
C      1  0.6727382949656  0.3841088262449  0.6566338791991 1.0
C      1  0.7100153566496  0.2960573924539  0.5002744246800 1.0
C      1  0.4938183197149  0.4056084072426  0.1043346409162 1.0
C      1  0.4185207848717  0.8116785666967  0.1791869735935 1.0
C      1  0.4487092976024  0.9712160201123  0.5527077130811 1.0
C      1  0.4563932502644  0.8107035501660  0.8559578991131 1.0
C      1  0.4916327274986  0.3480140314322  0.9259530795789 1.0
C      1  0.4342912978530  0.0562405238247  0.6198672226337 1.0
C      1  0.4700345435519  0.1190393410766  0.2790990107944 1.0
C      1  0.7142613834452  0.6165011080595  0.1352399817410 1.0
C      1  0.7157996476237  0.8467937563046  0.3601561619578 1.0
C      1  0.7290574090742  0.8135851786113  0.6870417842194 1.0
C      1  0.7926114318791  0.5610387635364  0.8397647608128 1.0
C      1  0.7270296189483  0.2503767158410  0.7441580076480 1.0
C      1  0.7244911691910  0.1402817084058  0.4422854589682 1.0
C      1  0.7263614012666  0.3012323581953  0.1795539773583 1.0
C      1  0.8727447414448  0.5905657417263  0.8169483874682 1.0
C      1  0.8249287127282  0.2478682514166  0.7643723625182 1.0
C      1  0.8199610173305  0.1243468354740  0.4234007974947 1.0
C      1  0.8203577795608  0.3048564855076  0.1559161367262 1.0
C      1  0.8031882839325  0.6459577941809  0.1258718296018 1.0
C      1  0.8117673038991  0.8787502439569  0.3757477915690 1.0
C      1  0.8202833206005  0.8377103569836  0.7038432099775 1.0
C      1  0.2393299476096  0.8481791691226  0.4353939679858 1.0
C      1  0.2309487044185  0.7650786876715  0.7422722019517 1.0
C      1  0.3231879063165  0.4650856711909  0.8885242727866 1.0
C      1  0.2331064174144  0.1626378521829  0.7376953380765 1.0
C      1  0.2463635339340  0.1333019385512  0.3828126910850 1.0
C      1  0.2465918370165  0.3614844706462  0.1580359432245 1.0
C      1  0.2987217357686  0.6618847485844  0.1984566444162 1.0
C      1  0.9081511369557  0.7737547558003  0.2857166978834 1.0
C      1  0.9224812485303  0.9411431010669  0.6007275471840 1.0
C      1  0.0136199499986  0.6575587727156  0.7317299984525 1.0
C      1  0.9500894274911  0.3736380984138  0.7715761276970 1.0
C      1  0.9134496797477  0.1387972655570  0.5684722058732 1.0
C      1  0.9234927901802  0.3104331850977  0.2873217828744 1.0
C      1  0.9141758875452  0.5213617683639  0.0727539971056 1.0
C      1  0.3057135394277  0.7143211655027  0.1166977963474 1.0
C      1  0.3393916852332  0.8788103416156  0.4393856507203 1.0
C      1  0.3288337151367  0.7953210358941  0.7427700493693 1.0
C      1  0.3881069643802  0.5230795740084  0.9076835313208 1.0
C      1  0.3241924536450  0.1327994559234  0.7457421159890 1.0
C      1  0.3431109669744  0.1018256448938  0.4029248693708 1.0
C      1  0.3451605221869  0.3323887403074  0.1460204077658 1.0
C      1  0.8822991702820  0.9373961535129  0.5231993268832 1.0
C      1  0.9462369248743  0.7177686193818  0.6838047340970 1.0
C      1  0.9777248348242  0.4560271824583  0.7582053822333 1.0
C      1  0.9165874775581  0.1631651307549  0.6474565357076 1.0
C      1  0.9227082950832  0.2571940396121  0.3644119333488 1.0
C      1  0.9055635991806  0.4390026742875  0.0858280824917 1.0
C      1  0.9071045197417  0.6815636474492  0.2653672929718 1.0
C      1  0.4773092210913  0.2198023314706  0.2895129752464 1.0
C      1  0.4490667188328  0.4851178506918  0.1517319642879 1.0
C      1  0.4612117597183  0.7609341699150  0.2580591976973 1.0
C      1  0.4402768231923  0.8428655311834  0.6150201861824 1.0
C      1  0.4673820199364  0.6351048075518  0.8340079058758 1.0
C      1  0.4879393664836  0.3293916317023  0.8259870957086 1.0
C      1  0.4614105950712  0.1380791197802  0.5863396522642 1.0
C      1  0.5094660773823  0.8219844106052  0.7751962573200 1.0
C      1  0.5788007258270  0.5881757619505  0.9324247412168 1.0
C      1  0.4379707342647  0.2519522444480  0.7789900155710 1.0
C      1  0.5511450846006  0.0719525793951  0.4655678809469 1.0
C      1  0.5256978646147  0.3259493545275  0.1532056327226 1.0
C      1  0.5094765391369  0.6272647092705  0.0939854512490 1.0
C      1  0.5040428596343  0.8265456099971  0.4142162818247 1.0
C      1  0.5316690857300  0.7889556436760  0.3232496987650 1.0
C      1  0.4795232602409  0.7783989990468  0.6864593507500 1.0
C      1  0.5517776798842  0.5970627000362  0.8369587079602 1.0
C      1  0.5854197446086  0.3260549664364  0.7986819304192 1.0
C      1  0.4956208912134  0.1527948446263  0.4888793701826 1.0
C      1  0.4887751860674  0.3071766697104  0.2408090337144 1.0
C      1  0.4804854789595  0.5756973477678  0.1774648643595 1.0
C      1  0.1932193170032  0.5278166268739  0.8262476222446 1.0
C      1  0.2052674084170  0.2521998850800  0.7732702789392 1.0
C      1  0.2064955969179  0.1576809858897  0.4728945796062 1.0
C      1  0.1972744693185  0.2949303999588  0.2109221669578 1.0
C      1  0.2151528097352  0.6071691501537  0.2200887884159 1.0
C      1  0.2063262044414  0.7502621302305  0.4130989475799 1.0
C      1  0.1865016227101  0.7896268173104  0.6636617279891 1.0
C      1  0.3863044519099  0.6149168465081  0.2324258282337 1.0
C      1  0.4071720127846  0.7971273032504  0.4449697428918 1.0
C      1  0.3887597735808  0.7243987807797  0.6973752139929 1.0
C      1  0.3919921638727  0.4839078304116  0.8181502824347 1.0
C      1  0.4198667574791  0.2807277642934  0.6903405493674 1.0
C      1  0.4040006580057  0.1798067473927  0.4406928811062 1.0
C      1  0.3948045772140  0.3522039437826  0.2391137495791 1.0
C      1  0.3164534630220  0.3661084030548  0.4007216020720 1.0
C      1  0.3546751722009  0.4595026904630  0.4123610500978 1.0
C      1  0.3409393628735  0.6352933106957  0.4551372410004 1.0
C      1  0.3216399832862  0.6425179791730  0.5522890413500 1.0
C      1  0.3182996589767  0.5083754066679  0.6779114015869 1.0
C      1  0.3298779267817  0.4175683159135  0.6624546957265 1.0
C      1  0.3211000021920  0.3146222165102  0.4853357732972 1.0
C      1  0.0183899350523  0.5247186007518  0.8147671116227 1.0
C      1  0.8973316148909  0.2099362054411  0.7234850470870 1.0
C      1  0.8939377029622  0.1735277128134  0.3956986669376 1.0
C      1  0.8886327218270  0.3576502182467  0.1177039058500 1.0
C      1  0.8800140135166  0.6606531430801  0.1747986962594 1.0
C      1  0.8407275390792  0.9178178058588  0.4512431265397 1.0
C      1  0.9041359459033  0.8010557428870  0.7038654125884 1.0
C      1  0.3816500546700  0.5734967682521  0.5218764444792 1.0
C      1  0.3399788158804  0.4864659471196  0.5063422401499 1.0
C      1  0.2432249514319  0.4845727479724  0.5198029920280 1.0
END
