TITL C-30346-9193-11 -1.019 3375.00 -153.59751874 0 0 20 (D2h) n - 1
REM
REM Run started: at 2020.12.17 06:48:35 in /rds/project/t2_vol4/rds-t2-cs072/BORA/CARBON/AIRSS/Generating-Clusters/Str-Search/Higher-Symm/C10-100
REM VASP from code version vasp.5.4.4.18Apr17-6-g9f103f2a35 (build Oct 11 2019 16:45:47) gamma-only
REM
REM
REM
REM
REM ./C.cell (f39ce9773e2efe3fa5bbdf770a4156b8)
REM AIRSS Version 0.9.1 bugfix July 2018 build 013d7b7c2542+ Fri, 06 Jul 2018 19:26:36 +0100
REM compiler GCC version 4.8.5 20150623 (Red Hat 4.8.5-39)
REM options -cpp -mtune=generic -march=x86-64 -g -O0
REM seed -1032549147 15375325 -1680873908 2135083898 265659002 -1297532701 -774846126 1581921025 144958517 -1078923117 1820312931 -914058580
REM
REM C.POTCAR (d86ddea03c3ceb6dc662c8ad6801f873)
REM 
CELL 1.54180   15.00000   15.00000   15.00000   90.00000   90.00000   90.00000
LATT -1
SFAC C  
C      1  0.5420741148166  0.3706090509670  0.5899430206389 1.0
C      1  0.5420740860226  0.6293908944691  0.4100571388597 1.0
C      1  0.4579258990770  0.3706090841695  0.5899428567700 1.0
C      1  0.4579258824080  0.6293909215691  0.4100569858731 1.0
C      1  0.5420741382184  0.6293910227964  0.5899428226921 1.0
C      1  0.5420741065782  0.3706090313386  0.4100573341542 1.0
C      1  0.4579258770077  0.6293909893954  0.5899426623569 1.0
C      1  0.4579258580261  0.3706090055098  0.4100571826400 1.0
C      1  0.6106447387854  0.4225718605303  0.5521967135006 1.0
C      1  0.6106447298857  0.5774281750503  0.4478034541079 1.0
C      1  0.3893552647821  0.4225718632048  0.5521965394665 1.0
C      1  0.3893552732696  0.5774281432848  0.4478033054938 1.0
C      1  0.6106447153127  0.5774282299765  0.5521965439314 1.0
C      1  0.6106447104819  0.4225717360214  0.4478036238758 1.0
C      1  0.3893552885159  0.5774282307660  0.5521963670535 1.0
C      1  0.3893553055300  0.4225717510927  0.4478034807978 1.0
C      1  0.6350326052347  0.4999999823567  0.4041142903425 1.0
C      1  0.3649674280759  0.5000000128888  0.5958857065496 1.0
C      1  0.6350326350210  0.5000000161596  0.5958858403552 1.0
C      1  0.3649673429504  0.4999999984532  0.4041141305405 1.0
END
