TITL C-30513-3949-21 -7.713 3375.00 -1367.14533078 0 0 165 (C1) n - 1
REM
REM Run started: at 2020.12.22 11:12:57 in /gpfs/home/chem/mssmkc/CARBON/AIRSS/Generating-Clusters/Str-Search/Higher-Symm/C100-200
REM VASP from code version vasp.5.4.4.18Apr17-6-g9f103f2a35 (build Oct 11 2019 16:45:47) gamma-only
REM
REM
REM
REM
REM ./C.cell (533062f00bc710175b3da973d35f2034)
REM AIRSS Version 0.9.1 bugfix July 2018 build 013d7b7c2542+ Fri, 06 Jul 2018 19:26:36 +0100
REM compiler GCC version 6.3.0
REM options -cpp -iprefix /gpfs/warwick/csc/orac/software/Core/GCCcore/6.3.0/bin/../lib/gcc/x86_64-pc-linux-gnu/6.3.0/ -mtune=generic -march=x86-64 -g -O0
REM seed 1092854494 191659130 473719033 -707399931 -1349976543 -1406785323 147856538 602712068 1808535908 -728553521 1918850620 631650565
REM
REM C.POTCAR (d86ddea03c3ceb6dc662c8ad6801f873)
REM 
CELL 1.54180   15.00000   15.00000   15.00000   90.00000   90.00000   90.00000
LATT -1
SFAC C  
C      1  0.4278496172203  0.4234073260782  0.8099968918309 1.0
C      1  0.4308988010841  0.2731657096500  0.7158377519676 1.0
C      1  0.4255991987376  0.1944729298956  0.5634196388014 1.0
C      1  0.4392646593954  0.2182075061647  0.3845595867588 1.0
C      1  0.4360465906773  0.3372698630092  0.2595694032899 1.0
C      1  0.4356327152672  0.4930072966867  0.2122747496455 1.0
C      1  0.4246483334030  0.6613710374562  0.2257973993326 1.0
C      1  0.4430840795368  0.7464521384551  0.3712621824619 1.0
C      1  0.4365422032810  0.7817203578754  0.5350811433710 1.0
C      1  0.4302184790125  0.7266923073876  0.6876155610853 1.0
C      1  0.4234814337777  0.5882023598282  0.7831853803045 1.0
C      1  0.1520273564514  0.3670638058350  0.3872205267646 1.0
C      1  0.1415909065670  0.4417587053144  0.3310705943616 1.0
C      1  0.1406282987824  0.5450710686492  0.3284552414534 1.0
C      1  0.1437173566829  0.6255777713551  0.3768024166908 1.0
C      1  0.1454075226884  0.6717923352640  0.4694388409240 1.0
C      1  0.1397901583326  0.6618904634906  0.5634198890872 1.0
C      1  0.1400406026837  0.5971943402399  0.6417703325082 1.0
C      1  0.1466326209511  0.5068159884159  0.6758745158718 1.0
C      1  0.1477405855618  0.4143361048770  0.6487126287898 1.0
C      1  0.1474040310910  0.3449982537453  0.5744038543951 1.0
C      1  0.1519080838073  0.3283245447220  0.4819684152920 1.0
C      1  0.8045975987368  0.4622135535195  0.2569640889732 1.0
C      1  0.8114617152823  0.5588102400946  0.2693540471072 1.0
C      1  0.8030378974840  0.7086583635135  0.3752901731532 1.0
C      1  0.8064602704165  0.7480487803885  0.4650092587401 1.0
C      1  0.8000232245219  0.7078956788130  0.6439639158835 1.0
C      1  0.8041144916559  0.6351553368702  0.7094887531664 1.0
C      1  0.7973965224236  0.4580727923932  0.7526130340378 1.0
C      1  0.8008520649294  0.3671234524159  0.7210834697446 1.0
C      1  0.7659797324671  0.2620914851731  0.6173013041245 1.0
C      1  0.7983609115653  0.2515384511782  0.4269358295831 1.0
C      1  0.8019831190583  0.2998789841983  0.3402825074840 1.0
C      1  0.7451288751871  0.2937460305563  0.7111070584348 1.0
C      1  0.7201382776299  0.1984384520234  0.5622237795292 1.0
C      1  0.7369055521496  0.1921263152275  0.4664283760510 1.0
C      1  0.7525588423324  0.3078504929807  0.2603327747518 1.0
C      1  0.7487765065165  0.3982883690062  0.2162137813030 1.0
C      1  0.7568159773688  0.6298959202923  0.2435554958055 1.0
C      1  0.7436037935185  0.7073485958177  0.3011535839074 1.0
C      1  0.7487409519969  0.7986550431303  0.5173838205293 1.0
C      1  0.7419237112431  0.7767699551066  0.6157061561342 1.0
C      1  0.7487484708558  0.6067270286124  0.7792115519423 1.0
C      1  0.7396915594324  0.5131394436235  0.8048721054825 1.0
C      1  0.2748187712054  0.6584160225547  0.7412975062576 1.0
C      1  0.2740005315345  0.5059742371543  0.7964324434032 1.0
C      1  0.2816384822890  0.3545396796698  0.7529438779665 1.0
C      1  0.2776905649795  0.2405501276135  0.6328143058950 1.0
C      1  0.2869779315384  0.2100413539725  0.4622989029257 1.0
C      1  0.2903522531134  0.2697125230657  0.3169821262299 1.0
C      1  0.2814922595201  0.4049876555931  0.2246773868461 1.0
C      1  0.2815378705008  0.5719915829024  0.2214136882668 1.0
C      1  0.2849808691046  0.7132458507439  0.3007802023811 1.0
C      1  0.2882107336213  0.7806092145375  0.4403829280404 1.0
C      1  0.2749133699371  0.7639063163063  0.6129973453023 1.0
C      1  0.3502048871587  0.3663250685006  0.6162790192153 1.0
C      1  0.3513457949440  0.3253412602855  0.5358894682152 1.0
C      1  0.3672625127535  0.3756433815977  0.4550056689183 1.0
C      1  0.3144986912213  0.4140883643283  0.3942121754625 1.0
C      1  0.3268902009313  0.4838800010435  0.3387250739036 1.0
C      1  0.3212915336371  0.5569288198370  0.3916705846079 1.0
C      1  0.3197609711163  0.6092743198037  0.4532000428032 1.0
C      1  0.3245045122186  0.6623060878805  0.5249311594331 1.0
C      1  0.3262435116867  0.6262569928104  0.6078050166726 1.0
C      1  0.3246548756979  0.5363214445300  0.6173933004903 1.0
C      1  0.3362660582223  0.4556092730397  0.6202800473613 1.0
C      1  0.3371029637837  0.2965540383060  0.6942143431955 1.0
C      1  0.3310610264860  0.2234461556509  0.5490154881353 1.0
C      1  0.3431889493329  0.2183311980246  0.3835524682042 1.0
C      1  0.3318479580885  0.3306842665202  0.2574879322084 1.0
C      1  0.3367710866658  0.4886455053414  0.2340404792966 1.0
C      1  0.3272718074989  0.6537397993695  0.2410901123764 1.0
C      1  0.3410644087785  0.7598391647170  0.3647180919907 1.0
C      1  0.3310664836724  0.7642663616535  0.5279268519355 1.0
C      1  0.3310287388512  0.7068182329724  0.6744171041202 1.0
C      1  0.3205898496985  0.5896525762032  0.7873090826991 1.0
C      1  0.3287474044816  0.4248034768248  0.7971658094589 1.0
C      1  0.5794795577349  0.6836290860779  0.5395426230738 1.0
C      1  0.5803163207361  0.6451629071831  0.6397719487553 1.0
C      1  0.5717398704617  0.5541237189682  0.6790895852185 1.0
C      1  0.5938839314540  0.4615938056086  0.6997600051735 1.0
C      1  0.6035390258003  0.4004804755588  0.6244328158842 1.0
C      1  0.5891050151314  0.3336924816810  0.4721652967784 1.0
C      1  0.6180875196132  0.3268827793693  0.3893334683067 1.0
C      1  0.5842624180445  0.3933982935292  0.3241892929697 1.0
C      1  0.5915482220781  0.5002579159521  0.3029328117105 1.0
C      1  0.5845799185415  0.5755868704734  0.3761089724557 1.0
C      1  0.5871197145560  0.6652972092339  0.4337780389465 1.0
C      1  0.2033333177689  0.2864579114472  0.3569565656770 1.0
C      1  0.1950269606249  0.4410078404936  0.2479883422185 1.0
C      1  0.1959938630225  0.5382885508980  0.2466032463141 1.0
C      1  0.1978988175545  0.7016679515977  0.3423330791882 1.0
C      1  0.1993026029789  0.7441780489873  0.4267491117788 1.0
C      1  0.1896552662493  0.7261062846221  0.6229712253165 1.0
C      1  0.1875135523215  0.6627606004082  0.6990535883862 1.0
C      1  0.1879440222687  0.5167213300277  0.7628105428929 1.0
C      1  0.1974369743654  0.3527014930021  0.7063708351835 1.0
C      1  0.1963999708372  0.2841278770114  0.6373178443215 1.0
C      1  0.2035665855138  0.2514570084058  0.4451605709390 1.0
C      1  0.6332808624003  0.2357160613846  0.3502984062015 1.0
C      1  0.6085607579804  0.3502783022773  0.2378769077433 1.0
C      1  0.6285445704641  0.5197453673847  0.2020057791203 1.0
C      1  0.6067337241337  0.6579611607100  0.1848689722176 1.0
C      1  0.6239579602762  0.7563825331427  0.3991514607283 1.0
C      1  0.6067230181293  0.7774811639165  0.5568869432328 1.0
C      1  0.6207354742700  0.7105987078034  0.7205406498140 1.0
C      1  0.5961250304298  0.6293634926761  0.8364052921789 1.0
C      1  0.6206377737843  0.4075702532324  0.7825705530177 1.0
C      1  0.6097090190879  0.3161347816693  0.6543243379550 1.0
C      1  0.5611591253690  0.2535627173218  0.5161541012389 1.0
C      1  0.6733854071870  0.6577075431300  0.7914732474505 1.0
C      1  0.6531589564556  0.4813323539483  0.8385857843722 1.0
C      1  0.6493936254013  0.3139092441090  0.7438141878064 1.0
C      1  0.6278316883039  0.1724333452129  0.5728131547236 1.0
C      1  0.6599739079104  0.1686112392993  0.4171598977308 1.0
C      1  0.6591261899046  0.2656419561023  0.2541449992421 1.0
C      1  0.6553509322305  0.4253797193703  0.1764638146770 1.0
C      1  0.6839633639734  0.6056086394287  0.1935255440498 1.0
C      1  0.6554262143204  0.7445407799655  0.3076404556857 1.0
C      1  0.6559707104239  0.8127233442355  0.4797778261391 1.0
C      1  0.6491607692860  0.7871952611226  0.6599845361096 1.0
C      1  0.4557491887320  0.3925890922148  0.4287004185742 1.0
C      1  0.4810816466471  0.4004701761502  0.3359292821675 1.0
C      1  0.4858983235309  0.4984416178245  0.3051250391917 1.0
C      1  0.4946970249967  0.5746520581899  0.3739803276697 1.0
C      1  0.4804996063541  0.6599344169824  0.4265577714888 1.0
C      1  0.4782399170327  0.6824696982007  0.5318405860012 1.0
C      1  0.4766674838174  0.6512356407890  0.6330288158766 1.0
C      1  0.4665190947234  0.5669400531015  0.6896181344418 1.0
C      1  0.5026877788006  0.4880523151676  0.6491034530616 1.0
C      1  0.5299306151867  0.4352486279053  0.5735747096555 1.0
C      1  0.5240663203558  0.4036105202277  0.4909078787094 1.0
C      1  0.5658750724054  0.3287179073803  0.8014265928127 1.0
C      1  0.5653777902467  0.2388662013007  0.6152529012315 1.0
C      1  0.5869234268001  0.1561407954624  0.4823898398087 1.0
C      1  0.5687461800189  0.2175295385644  0.2798339087055 1.0
C      1  0.5637397610355  0.3792219748304  0.1596687981563 1.0
C      1  0.5533408869819  0.5827500522527  0.1638042124780 1.0
C      1  0.5801775244855  0.7225691369797  0.2508709893245 1.0
C      1  0.5688670548451  0.8327546554114  0.4291134938054 1.0
C      1  0.5630785086153  0.8265765730964  0.6257560712701 1.0
C      1  0.5449583499058  0.6978103555776  0.7923525452734 1.0
C      1  0.5732700297466  0.5361541234821  0.8524133714062 1.0
C      1  0.4722556777301  0.8040420850323  0.6307902798781 1.0
C      1  0.4573111495341  0.6890068650169  0.7765196577313 1.0
C      1  0.4753228792585  0.5088819993358  0.8327957135862 1.0
C      1  0.4745170830189  0.3336260730782  0.7794798270997 1.0
C      1  0.4705453236396  0.2223691096448  0.6432984266603 1.0
C      1  0.4871116041135  0.1934307908114  0.4780126784171 1.0
C      1  0.4814050358990  0.2496433692982  0.2976739646619 1.0
C      1  0.4756517042105  0.4009516300145  0.1833484009771 1.0
C      1  0.4646801956544  0.5829544241124  0.1797415062396 1.0
C      1  0.4832119884947  0.7225793052130  0.2745783790873 1.0
C      1  0.4803575177641  0.8127557130838  0.4452463761630 1.0
C      1  0.8541723908564  0.5772153761033  0.6515361545086 1.0
C      1  0.8494152843519  0.4865415481678  0.6722623728043 1.0
C      1  0.8476297460178  0.3926996279623  0.6394347240018 1.0
C      1  0.8280596471304  0.3280134434714  0.5718989023538 1.0
C      1  0.8390405208688  0.3215503097581  0.4760757760075 1.0
C      1  0.8479568199001  0.3733175527601  0.3885700558306 1.0
C      1  0.8522492768601  0.4533021697186  0.3454019523677 1.0
C      1  0.8564970333931  0.5532505837934  0.3531207874086 1.0
C      1  0.8555091149102  0.6316043956881  0.4042342639282 1.0
C      1  0.8586525368194  0.6700700003781  0.4956002861275 1.0
C      1  0.8546828888961  0.6500049558023  0.5836807650500 1.0
END
