TITL C-30330-4833-24 -4.693 3375.00 -793.76978416 0 0 96 (C2) n - 1
REM
REM Run started: at 2020.12.17 13:43:08 in /rds/project/t2_vol4/rds-t2-cs072/BORA/CARBON/AIRSS/Generating-Clusters/Str-Search/Higher-Symm/C10-100
REM VASP from code version vasp.5.4.4.18Apr17-6-g9f103f2a35 (build Oct 11 2019 16:45:47) gamma-only
REM
REM
REM
REM
REM ./C.cell (f39ce9773e2efe3fa5bbdf770a4156b8)
REM AIRSS Version 0.9.1 bugfix July 2018 build 013d7b7c2542+ Fri, 06 Jul 2018 19:26:36 +0100
REM compiler GCC version 4.8.5 20150623 (Red Hat 4.8.5-39)
REM options -cpp -mtune=generic -march=x86-64 -g -O0
REM seed 1440463331 2022822407 159411433 -1846506868 1390036403 -1336103421 -580221815 135309861 480277344 814135527 -1876344154 359664591
REM
REM C.POTCAR (d86ddea03c3ceb6dc662c8ad6801f873)
REM 
CELL 1.54180   15.00000   15.00000   15.00000   90.00000   90.00000   90.00000
LATT -1
SFAC C  
C      1  0.5346025351526  0.5465185762326  0.2336423996750 1.0
C      1  0.5384854995557  0.4441031829486  0.2308740506485 1.0
C      1  0.3426736744099  0.4981838668242  0.2531668266824 1.0
C      1  0.5346022461178  0.4534813018093  0.7663574528649 1.0
C      1  0.5384850213912  0.5558961911360  0.7691260526589 1.0
C      1  0.3426731804897  0.5018155226824  0.7468331300895 1.0
C      1  0.8065680342586  0.4448812183647  0.5665453727012 1.0
C      1  0.2996349806580  0.2577240133924  0.5617590648876 1.0
C      1  0.4007221804712  0.7939802664682  0.5695203103667 1.0
C      1  0.8065691342151  0.5551196395543  0.4334545956614 1.0
C      1  0.2996354832540  0.7422756391306  0.4382409381437 1.0
C      1  0.4007223201812  0.2060199089518  0.4304796541597 1.0
C      1  0.4705381751890  0.6221378155537  0.7483523614423 1.0
C      1  0.6339349626807  0.4542029179783  0.7475972073871 1.0
C      1  0.3723118551580  0.4156878120324  0.7377833321953 1.0
C      1  0.4705385015224  0.3778619386085  0.2516479758091 1.0
C      1  0.6339347665474  0.5457969948500  0.2524030244634 1.0
C      1  0.3723121907627  0.5843119823988  0.2622165531805 1.0
C      1  0.6820001104120  0.6681940992567  0.6734487503759 1.0
C      1  0.5554561556465  0.2736642084437  0.6770064507136 1.0
C      1  0.2869413420531  0.5528408746914  0.6867782337059 1.0
C      1  0.6820011012917  0.3318063825501  0.3265514714456 1.0
C      1  0.5554559970179  0.7263356679222  0.3229936379489 1.0
C      1  0.2869412299968  0.4471592264944  0.3132216676983 1.0
C      1  0.2314071369349  0.3709820748026  0.5200922150806 1.0
C      1  0.5318584901743  0.7923172220833  0.5270657805260 1.0
C      1  0.7460337691495  0.3279491112290  0.5265438294630 1.0
C      1  0.2314072897176  0.6290179343870  0.4799076778887 1.0
C      1  0.5318586075040  0.2076827794642  0.4729343787769 1.0
C      1  0.7460342401776  0.6720514460974  0.4734560826024 1.0
C      1  0.6888601795718  0.7320571898561  0.5171155548300 1.0
C      1  0.6115987991145  0.2240359779404  0.5201495710833 1.0
C      1  0.2173707307231  0.5450439202423  0.5211488695340 1.0
C      1  0.6888603999813  0.2679431918421  0.4828845554628 1.0
C      1  0.6115987345979  0.7759640404415  0.4798502857719 1.0
C      1  0.2173709692495  0.4549560662125  0.4788509191821 1.0
C      1  0.7967135185135  0.5964035131995  0.5185500155282 1.0
C      1  0.4412374701463  0.1996228293799  0.5151131996762 1.0
C      1  0.2706292566476  0.7141053534156  0.5236066997927 1.0
C      1  0.7967126466446  0.4035968794734  0.4814498275838 1.0
C      1  0.4412374288240  0.8003770702016  0.4848867979450 1.0
C      1  0.2706289632654  0.2858945246803  0.4763931778481 1.0
C      1  0.3656252984379  0.5092067086146  0.5476013191680 1.0
C      1  0.5849840663822  0.6176638371216  0.5457654527947 1.0
C      1  0.5642956870475  0.3695508823314  0.5450845331039 1.0
C      1  0.3656253443502  0.4907927359487  0.4523985093996 1.0
C      1  0.5849843618902  0.3823362060987  0.4542343687851 1.0
C      1  0.5642952692355  0.6304491342973  0.4549152858440 1.0
C      1  0.6328248524925  0.4508067708508  0.2308652620097 1.0
C      1  0.3842488438982  0.4121349629677  0.2322777656270 1.0
C      1  0.4657269562878  0.6080669626716  0.2422248667686 1.0
C      1  0.6328244076249  0.5491931670062  0.7691342578360 1.0
C      1  0.3842485237891  0.5878646554945  0.7677223192311 1.0
C      1  0.4657266158657  0.3919326737968  0.7577752717152 1.0
C      1  0.7098132601319  0.4371881160185  0.6870835755774 1.0
C      1  0.3322579376838  0.3486913558927  0.6795775488583 1.0
C      1  0.4524065275333  0.7074467768239  0.6891939478374 1.0
C      1  0.7098130483701  0.5628123134982  0.3129167557271 1.0
C      1  0.3322582499497  0.6513084154716  0.3204222462858 1.0
C      1  0.4524067650085  0.2925534383148  0.3108067013371 1.0
C      1  0.2673877457597  0.6639066455523  0.3911360269916 1.0
C      1  0.7515928085912  0.6170518144255  0.3854961619828 1.0
C      1  0.4816741657781  0.2311324570013  0.3819364330356 1.0
C      1  0.2673874353004  0.3360930521950  0.6088640044107 1.0
C      1  0.7515927623909  0.3829484434845  0.6145042327603 1.0
C      1  0.4816738888198  0.7688678171691  0.6180638195785 1.0
C      1  0.5380928685690  0.5432470480261  0.5856424573134 1.0
C      1  0.5284657159399  0.4486607751258  0.5879353246607 1.0
C      1  0.4537681046674  0.5032306344569  0.5865343259402 1.0
C      1  0.5380929750461  0.4567530430431  0.4143573162206 1.0
C      1  0.5284655423277  0.5513393323958  0.4120646030972 1.0
C      1  0.4537682381799  0.4967692425825  0.4134658568018 1.0
C      1  0.3138275994834  0.3618869314568  0.2762704147153 1.0
C      1  0.4800826745607  0.6945057226958  0.2853993502063 1.0
C      1  0.7012164689252  0.4053759892230  0.2785703576193 1.0
C      1  0.3138274201482  0.6381130496419  0.7237295709515 1.0
C      1  0.4800823898594  0.3054939651996  0.7146001792040 1.0
C      1  0.7012157141429  0.5946240749406  0.7214296140177 1.0
C      1  0.2869495289490  0.4641146924235  0.4084627989397 1.0
C      1  0.5816068866934  0.7172033883283  0.4069603931024 1.0
C      1  0.6536987442307  0.3216848562633  0.4088058109813 1.0
C      1  0.2869497711512  0.5358855244031  0.5915372132966 1.0
C      1  0.5816070027470  0.2827964311005  0.5930397133960 1.0
C      1  0.6536985008884  0.6783149288874  0.5911940587369 1.0
C      1  0.7979104367455  0.4634441902072  0.4071402471372 1.0
C      1  0.3229471902507  0.2532142317988  0.4038855338053 1.0
C      1  0.3861977859174  0.7724940254553  0.4107413009378 1.0
C      1  0.7979099429269  0.5365562281766  0.5928599722809 1.0
C      1  0.3229471102351  0.7467860286501  0.5961144389547 1.0
C      1  0.3861974650312  0.2275057631275  0.5892584837870 1.0
C      1  0.3528416858566  0.2926996974416  0.3226109904623 1.0
C      1  0.3997933616191  0.7200086982660  0.3314111113246 1.0
C      1  0.7501850551481  0.4728056063255  0.3246373113901 1.0
C      1  0.3528412498736  0.7073006263396  0.6773891973482 1.0
C      1  0.3997932975976  0.2799909937892  0.6685884924180 1.0
C      1  0.7501849402998  0.5271945639576  0.6753629408069 1.0
END
