TITL C-30105-6208-21 -6.626 3375.00 -1132.01699963 0 0 137 (C1) n - 1
REM
REM Run started: at 2021.01.04 22:36:52 in /gpfs/home/chem/mssmkc/CARBON/AIRSS/Generating-Clusters/Str-Search/Higher-Symm/C100-200
REM VASP from code version vasp.5.4.4.18Apr17-6-g9f103f2a35 (build Oct 11 2019 16:45:47) gamma-only
REM
REM
REM
REM
REM ./C.cell (533062f00bc710175b3da973d35f2034)
REM AIRSS Version 0.9.1 bugfix July 2018 build 013d7b7c2542+ Fri, 06 Jul 2018 19:26:36 +0100
REM compiler GCC version 6.3.0
REM options -cpp -iprefix /gpfs/warwick/csc/orac/software/Core/GCCcore/6.3.0/bin/../lib/gcc/x86_64-pc-linux-gnu/6.3.0/ -mtune=generic -march=x86-64 -g -O0
REM seed -1935615141 579954700 -1691549958 914586558 1632981170 1783118325 1288999576 546247346 1100336151 -1518276252 -596062309 1095196376
REM
REM C.POTCAR (d86ddea03c3ceb6dc662c8ad6801f873)
REM 
CELL 1.54180   15.00000   15.00000   15.00000   90.00000   90.00000   90.00000
LATT -1
SFAC C  
C      1  0.5077126559350  0.4730140053073  0.3929945326604 1.0
C      1  0.7079085096414  0.5300026689601  0.7559192377372 1.0
C      1  0.2378137799899  0.6491202822435  0.6360100295188 1.0
C      1  0.7215613189657  0.7120006525912  0.4890817175833 1.0
C      1  0.6210081444015  0.5622010092603  0.5611312427356 1.0
C      1  0.7774755043289  0.4678865598000  0.2833429462649 1.0
C      1  0.6568429937480  0.3914045209565  0.1633968569182 1.0
C      1  0.3091039895609  0.7779835571206  0.5880912220713 1.0
C      1  0.6547097755695  0.6121723540682  0.2712437979162 1.0
C      1  0.4810799382126  0.2152811508435  0.3245924010547 1.0
C      1  0.4426514829313  0.4605290060797  0.8119564137192 1.0
C      1  0.6232138826662  0.5070491269873  0.7897814740416 1.0
C      1  0.3027792290202  0.7155760488114  0.6652464435071 1.0
C      1  0.3902517310071  0.8214585807003  0.4404901188970 1.0
C      1  0.7500716373542  0.3754122417080  0.2858922673409 1.0
C      1  0.6826806614499  0.3307582997311  0.2320005199415 1.0
C      1  0.5324926335841  0.2462297265150  0.2478466237163 1.0
C      1  0.5464698395671  0.8836542060031  0.4208977067002 1.0
C      1  0.4320119403593  0.8005698048828  0.8238510023456 1.0
C      1  0.4470558126517  0.6420847851436  0.0743041775945 1.0
C      1  0.2393292022749  0.7522621781375  0.5264615510163 1.0
C      1  0.4009854961466  0.5911039159070  0.7074531286008 1.0
C      1  0.6997847929858  0.6254123922559  0.7233500453839 1.0
C      1  0.5978799620956  0.4130177904723  0.5529510456452 1.0
C      1  0.7205078648566  0.5459027749878  0.2974125070347 1.0
C      1  0.5889666791887  0.3447513531583  0.3970026178373 1.0
C      1  0.4318565063495  0.5734367759205  0.4783450984119 1.0
C      1  0.3341202593756  0.4938723482469  0.1360473822848 1.0
C      1  0.5326933351282  0.2181061190439  0.6329550041237 1.0
C      1  0.5483269672429  0.5447886512518  0.6386910624365 1.0
C      1  0.5296809686721  0.4513246688418  0.6130652004423 1.0
C      1  0.2823608241333  0.3970594788676  0.8144220928511 1.0
C      1  0.4624574144212  0.3577899510893  0.5058949090578 1.0
C      1  0.3148778563402  0.2906764782963  0.6966244701328 1.0
C      1  0.7140213484990  0.5389105870198  0.5707320933911 1.0
C      1  0.4770198017467  0.6221978289667  0.6384512290872 1.0
C      1  0.4900379084028  0.4591853839209  0.1867331168896 1.0
C      1  0.6859151748332  0.7885462364340  0.4371003429285 1.0
C      1  0.5542153090397  0.4078690876194  0.3391840871580 1.0
C      1  0.4981762372041  0.4010093223398  0.2558288848437 1.0
C      1  0.7102304762149  0.2771962250412  0.6201363105493 1.0
C      1  0.7420137693103  0.7049987914707  0.5765136210458 1.0
C      1  0.7893539790497  0.3318205992200  0.6076891812036 1.0
C      1  0.5115051739137  0.2017060702498  0.4845077887486 1.0
C      1  0.5783388746111  0.2033819232666  0.5529535556078 1.0
C      1  0.3609720357930  0.6793012414033  0.7336701002775 1.0
C      1  0.4061499792285  0.7063393679750  0.8137180090958 1.0
C      1  0.2202290563101  0.5132618500617  0.5418953005702 1.0
C      1  0.6014962901767  0.4157754294043  0.7948562065337 1.0
C      1  0.5092489867293  0.3898069510158  0.7942557041111 1.0
C      1  0.2788925852350  0.5252383180678  0.1881806266408 1.0
C      1  0.4750898157483  0.8085312765460  0.5809987079479 1.0
C      1  0.3884566363671  0.8136793349012  0.5426903433418 1.0
C      1  0.3458618785767  0.6968405737804  0.3130635125399 1.0
C      1  0.2045364799072  0.6015348827303  0.4885689419234 1.0
C      1  0.4077017625588  0.2773266170827  0.6987830330009 1.0
C      1  0.4648445744602  0.8663283589266  0.4106331098597 1.0
C      1  0.6565118126516  0.2960997579559  0.6994013912760 1.0
C      1  0.6674124822703  0.6815446853481  0.3371558877072 1.0
C      1  0.3369084252372  0.2677609837800  0.4771977153599 1.0
C      1  0.4593208453324  0.3116659203082  0.2514243781059 1.0
C      1  0.5379686061741  0.6857229903229  0.5068382101851 1.0
C      1  0.2363620824166  0.3211980571427  0.3712746786209 1.0
C      1  0.1962228050286  0.6734682049213  0.5554395370704 1.0
C      1  0.1942924366146  0.3554794699868  0.6655663966773 1.0
C      1  0.5482915307761  0.7746294984638  0.5228227251897 1.0
C      1  0.4903251407554  0.3053689714459  0.7521856268496 1.0
C      1  0.1874071105279  0.3060452604663  0.4534414682211 1.0
C      1  0.6276138069052  0.2508510338490  0.3763905469275 1.0
C      1  0.7396507068164  0.5522102187883  0.3883069861021 1.0
C      1  0.8965155627453  0.3875987059270  0.5002135841223 1.0
C      1  0.2508755274765  0.3443958758495  0.7447455437841 1.0
C      1  0.2586158597361  0.7344950814534  0.4350675186818 1.0
C      1  0.5390743617114  0.2046949667506  0.3972458520183 1.0
C      1  0.7745707560566  0.3021116952896  0.4444065872010 1.0
C      1  0.1460498807651  0.4399559033658  0.5359185574470 1.0
C      1  0.3665100461748  0.4585147637146  0.6074585945990 1.0
C      1  0.2435018674178  0.2621970334452  0.5200119494295 1.0
C      1  0.3262929637578  0.2867102599418  0.3762023277729 1.0
C      1  0.8063606855718  0.4163317428741  0.6604118207072 1.0
C      1  0.5154070566717  0.5581358597793  0.4260775194527 1.0
C      1  0.4412003788352  0.2355915399889  0.6199400382799 1.0
C      1  0.6341958015542  0.4655741670510  0.1334091864792 1.0
C      1  0.1402377373649  0.3906618211156  0.4516953095030 1.0
C      1  0.8855304461006  0.4625005174262  0.4453867515021 1.0
C      1  0.6682018891863  0.4707442275556  0.5366273913227 1.0
C      1  0.4511745393425  0.6349719775070  0.8537479386474 1.0
C      1  0.5033386378867  0.7898492594442  0.6710000268063 1.0
C      1  0.5031996872857  0.6621800004015  0.2292767600454 1.0
C      1  0.5588796702941  0.5654711334073  0.7496664699743 1.0
C      1  0.3010030402051  0.3485677584147  0.5315048468784 1.0
C      1  0.4491668794283  0.4155009393159  0.5913780600062 1.0
C      1  0.8530384729422  0.4927257315243  0.6175892459813 1.0
C      1  0.4694441677401  0.8218966937343  0.7511742080932 1.0
C      1  0.5602523554305  0.3597588217682  0.4894529102163 1.0
C      1  0.7434793376188  0.4395910215937  0.7278684658743 1.0
C      1  0.3980156651047  0.2668920166522  0.3148107342865 1.0
C      1  0.6755548849956  0.3737314142360  0.7502303820952 1.0
C      1  0.4276182995878  0.2494298329242  0.5204310730031 1.0
C      1  0.3752870323207  0.4929825798305  0.4694867746562 1.0
C      1  0.6713162800827  0.2283411470246  0.5419739411640 1.0
C      1  0.5772441752929  0.6043631023080  0.2193486189060 1.0
C      1  0.4323614041960  0.4283938907779  0.4361148479610 1.0
C      1  0.2069070273208  0.4838802128417  0.3203732481013 1.0
C      1  0.5931250979832  0.6108353642306  0.4707192025147 1.0
C      1  0.4780749209116  0.5549379061946  0.0887967533003 1.0
C      1  0.2345841027275  0.6443518068918  0.4100661218097 1.0
C      1  0.7777043511474  0.3669097052608  0.3748599238134 1.0
C      1  0.3571864304225  0.4332818497706  0.8267369085767 1.0
C      1  0.5415630672822  0.7002604578724  0.6796874310419 1.0
C      1  0.1357264056049  0.4055694430425  0.6197640435992 1.0
C      1  0.2814800104159  0.6268749245835  0.3259108025081 1.0
C      1  0.1864312667688  0.4105941053790  0.3634390911446 1.0
C      1  0.6762879873035  0.7713295285755  0.3439819205528 1.0
C      1  0.6258313847785  0.2646540237511  0.2707684413038 1.0
C      1  0.3336643903934  0.7626380332105  0.3883925967529 1.0
C      1  0.3395484855968  0.5284690971879  0.6608611527642 1.0
C      1  0.7918039339392  0.5697976066666  0.6095239751806 1.0
C      1  0.2516444485978  0.5485264056733  0.2755105284916 1.0
C      1  0.7592115190142  0.6536809528266  0.6506155325837 1.0
C      1  0.4579620103388  0.6372110025598  0.5422808367303 1.0
C      1  0.9000251124570  0.4719907598084  0.5412895739390 1.0
C      1  0.6999019697118  0.2448213648499  0.4519499187117 1.0
C      1  0.6081759413975  0.8313966790979  0.4700409188005 1.0
C      1  0.4618891398223  0.5585461546127  0.7878047479485 1.0
C      1  0.8073440974501  0.4683734917830  0.3856100349200 1.0
C      1  0.2541413763330  0.5572264448534  0.6325623363576 1.0
C      1  0.5656696566912  0.2639720970239  0.7086278914093 1.0
C      1  0.4190892299571  0.6947236199340  0.2461954803323 1.0
C      1  0.6869028691027  0.6325976046666  0.4272250462639 1.0
C      1  0.2621354222286  0.3018276034750  0.6112873076869 1.0
C      1  0.4358547343089  0.6797075189064  0.1542818539466 1.0
C      1  0.8288812939497  0.3249958410143  0.5205491614651 1.0
C      1  0.5601453743673  0.5274541234315  0.1553714558817 1.0
C      1  0.6054473390784  0.6526596557424  0.7316836385855 1.0
C      1  0.3051767652756  0.4515298865389  0.5277297612343 1.0
C      1  0.4256482708629  0.4827885709361  0.1182925217376 1.0
END
