TITL C-30346-9193-15 -3.455 3375.00 -600.33025207 0 0 74 (C1) n - 1
REM
REM Run started: at 2020.12.17 07:44:51 in /rds/project/t2_vol4/rds-t2-cs072/BORA/CARBON/AIRSS/Generating-Clusters/Str-Search/Higher-Symm/C10-100
REM VASP from code version vasp.5.4.4.18Apr17-6-g9f103f2a35 (build Oct 11 2019 16:45:47) gamma-only
REM
REM
REM
REM
REM ./C.cell (f39ce9773e2efe3fa5bbdf770a4156b8)
REM AIRSS Version 0.9.1 bugfix July 2018 build 013d7b7c2542+ Fri, 06 Jul 2018 19:26:36 +0100
REM compiler GCC version 4.8.5 20150623 (Red Hat 4.8.5-39)
REM options -cpp -mtune=generic -march=x86-64 -g -O0
REM seed 725454680 -2084988066 581481265 375425855 -1398996462 37176186 -513904361 650134207 346192384 820741948 853241775 240282963
REM
REM C.POTCAR (d86ddea03c3ceb6dc662c8ad6801f873)
REM 
CELL 1.54180   15.00000   15.00000   15.00000   90.00000   90.00000   90.00000
LATT -1
SFAC C  
C      1  0.2800025146482  0.5296868554943  0.5502814366695 1.0
C      1  0.3964276039838  0.3488566390979  0.5784403338512 1.0
C      1  0.5827176245919  0.4698956505223  0.7906340342711 1.0
C      1  0.2623435316520  0.4354998900144  0.5634154491481 1.0
C      1  0.5297524328997  0.7237656140774  0.5423799277810 1.0
C      1  0.5595302384108  0.4057624281150  0.5460925677515 1.0
C      1  0.5313275089872  0.5744917680251  0.2429585189496 1.0
C      1  0.5318334188061  0.6405603478328  0.7060271330153 1.0
C      1  0.2955251434694  0.3822960463024  0.3509399957578 1.0
C      1  0.4995042394459  0.6561869847201  0.6112567009073 1.0
C      1  0.4032160842231  0.4281536949537  0.7949955240441 1.0
C      1  0.6616561758766  0.4647053562986  0.6566766625450 1.0
C      1  0.4865484058712  0.4558659085716  0.6774146962607 1.0
C      1  0.4603282848145  0.4052011225576  0.5259427400513 1.0
C      1  0.4012027656938  0.6350540547999  0.5965128818246 1.0
C      1  0.6425336019782  0.3689796711086  0.6788087333039 1.0
C      1  0.3751428056558  0.5894668129763  0.2955575755825 1.0
C      1  0.3433183310730  0.3999977907977  0.7425958707838 1.0
C      1  0.5230931716519  0.3579102997321  0.6889756085744 1.0
C      1  0.6277579122892  0.4216967257040  0.4748150211973 1.0
C      1  0.3778299424160  0.5408945413916  0.5653680610891 1.0
C      1  0.7275655627259  0.4829623547566  0.3386429241472 1.0
C      1  0.5806122429564  0.3264274408172  0.6079350054114 1.0
C      1  0.4590544169411  0.6351279056700  0.2716662634579 1.0
C      1  0.3135598137978  0.6561633385435  0.4518192492969 1.0
C      1  0.4405061324120  0.4918426926515  0.5041688379503 1.0
C      1  0.5568071690661  0.5752263980071  0.5738463756614 1.0
C      1  0.3855918487452  0.5857056428520  0.6925946070218 1.0
C      1  0.3099733908196  0.6137957220818  0.3614940882930 1.0
C      1  0.6499912778637  0.6280230959167  0.5919356742900 1.0
C      1  0.5899495825925  0.3781170073105  0.7574488282955 1.0
C      1  0.2440243673930  0.5457188028455  0.3938108486045 1.0
C      1  0.7174679812170  0.6294964421484  0.4032761929749 1.0
C      1  0.3906222308437  0.4974452577331  0.2767411351343 1.0
C      1  0.5824323015557  0.2531512609790  0.5413779218965 1.0
C      1  0.3900714975135  0.4918471339716  0.6503027191733 1.0
C      1  0.5760409461662  0.2605849109849  0.3648498754934 1.0
C      1  0.4547922582816  0.7406117276290  0.4845273544461 1.0
C      1  0.2407406967305  0.3983167090709  0.4772629972191 1.0
C      1  0.5763365576458  0.2467307038429  0.4580700502685 1.0
C      1  0.6236615895991  0.3236008216465  0.3108979721587 1.0
C      1  0.6239785742434  0.6170436304158  0.7006630470907 1.0
C      1  0.6654931226057  0.4087414379064  0.3216457931698 1.0
C      1  0.6148392206742  0.6063434520287  0.2851282970628 1.0
C      1  0.5258277412255  0.3138044239986  0.3009679539625 1.0
C      1  0.4902726268938  0.7038898175070  0.3334858459318 1.0
C      1  0.3698839855215  0.4051685929979  0.2964230010691 1.0
C      1  0.5275653672175  0.4947430601290  0.3563095500174 1.0
C      1  0.7181220698294  0.4366958669031  0.4978659208977 1.0
C      1  0.5623087705461  0.4841094261818  0.6157036324383 1.0
C      1  0.2441885272572  0.4540733019023  0.3945471218855 1.0
C      1  0.6965718634531  0.5747296124230  0.3215037039511 1.0
C      1  0.4617308726210  0.5883955728657  0.7478215516409 1.0
C      1  0.5299220987378  0.5782053730797  0.4050814375058 1.0
C      1  0.4832631000997  0.4914216617877  0.7758302042464 1.0
C      1  0.7225138147941  0.4852366940788  0.5841849255153 1.0
C      1  0.4624857817685  0.3749925815405  0.2746210090618 1.0
C      1  0.3639029343478  0.2785355706744  0.5331251899725 1.0
C      1  0.4876395512627  0.4807816370013  0.2651140591647 1.0
C      1  0.5988538725952  0.4426773536261  0.3851430898034 1.0
C      1  0.7609393236506  0.5755780687839  0.4669094155906 1.0
C      1  0.3337221653071  0.4060558255723  0.6387159984468 1.0
C      1  0.4533064667267  0.7624369404062  0.3907667897073 1.0
C      1  0.6202212501280  0.7026089424780  0.5218681642965 1.0
C      1  0.2774710525104  0.3219492945609  0.4263361196803 1.0
C      1  0.3204641499662  0.2486309856659  0.4656036615204 1.0
C      1  0.5147050936208  0.5543183204398  0.4890186393321 1.0
C      1  0.7656071377043  0.4866657608831  0.4298858416973 1.0
C      1  0.5771199845260  0.6594451536649  0.3634224798465 1.0
C      1  0.7287921530096  0.5744684702167  0.5593394685534 1.0
C      1  0.3760511604210  0.6944895564033  0.5141218715506 1.0
C      1  0.6394465042927  0.5255591564603  0.7338991338082 1.0
C      1  0.2540149766286  0.5853815434696  0.4818510779512 1.0
C      1  0.6473809825093  0.6869993413952  0.4303379090774 1.0
END
