TITL C-30446-5047-24 -6.969 3375.00 -1224.30799751 0 0 154 (C1) n - 1
REM
REM Run started: at 2020.12.21 09:01:52 in /gpfs/home/chem/mssmkc/CARBON/AIRSS/Generating-Clusters/Str-Search/Higher-Symm/C100-200
REM VASP from code version vasp.5.4.4.18Apr17-6-g9f103f2a35 (build Oct 11 2019 16:45:47) gamma-only
REM
REM
REM
REM
REM ./C.cell (533062f00bc710175b3da973d35f2034)
REM AIRSS Version 0.9.1 bugfix July 2018 build 013d7b7c2542+ Fri, 06 Jul 2018 19:26:36 +0100
REM compiler GCC version 6.3.0
REM options -cpp -iprefix /gpfs/warwick/csc/orac/software/Core/GCCcore/6.3.0/bin/../lib/gcc/x86_64-pc-linux-gnu/6.3.0/ -mtune=generic -march=x86-64 -g -O0
REM seed 10762623 -1040165315 -412576069 1402615246 -1306623457 -373717730 -166375361 -583921521 285010496 -1698611324 -2007958364 1787729152
REM
REM C.POTCAR (d86ddea03c3ceb6dc662c8ad6801f873)
REM 
CELL 1.54180   15.00000   15.00000   15.00000   90.00000   90.00000   90.00000
LATT -1
SFAC C  
C      1  0.3327596140568  0.6018081222463  0.8206980424701 1.0
C      1  0.8167578223933  0.3275694337156  0.5875596978332 1.0
C      1  0.5830660376133  0.8066166897980  0.3251178311246 1.0
C      1  0.6449640091850  0.5716848683187  0.2010077146234 1.0
C      1  0.3497405564923  0.4232706932060  0.1972572650759 1.0
C      1  0.6735299905788  0.4245444492914  0.8041201321671 1.0
C      1  0.1921717532051  0.3291561061465  0.4047578588105 1.0
C      1  0.8052012131071  0.6680307566099  0.4078839225540 1.0
C      1  0.2074942683424  0.6688868132199  0.5852550040957 1.0
C      1  0.4194273172594  0.8183880445775  0.6762988041450 1.0
C      1  0.5780933744159  0.2056951306563  0.6433619173769 1.0
C      1  0.4329720787841  0.2038591699402  0.3421209904839 1.0
C      1  0.4767383066094  0.4255834550775  0.4664683622665 1.0
C      1  0.4407569165511  0.5028772352398  0.4186806801772 1.0
C      1  0.3846413848919  0.4649568008219  0.4919949570407 1.0
C      1  0.5404822863581  0.4208506498396  0.5311128592082 1.0
C      1  0.4910800660749  0.6123351354489  0.5649586529991 1.0
C      1  0.5471210096101  0.6136835348427  0.4887889895731 1.0
C      1  0.5371145785582  0.4664652914676  0.6151122379082 1.0
C      1  0.4622023525238  0.5280041815077  0.6103182806335 1.0
C      1  0.5026147481748  0.5722871649130  0.4110127759813 1.0
C      1  0.6204416539266  0.4791977276291  0.5489792166033 1.0
C      1  0.3784844953414  0.4886561013269  0.5785724674906 1.0
C      1  0.6331773084704  0.5644011105318  0.5068124831240 1.0
C      1  0.7286297182127  0.6316121965225  0.4486005902144 1.0
C      1  0.4779651753025  0.7564146788324  0.6408105683455 1.0
C      1  0.6260053170198  0.4725666373927  0.7362755162355 1.0
C      1  0.2838125007584  0.6221962436936  0.5475937710829 1.0
C      1  0.7670829845144  0.3773944945457  0.5170538937152 1.0
C      1  0.2419860570133  0.3818789216335  0.4735422927372 1.0
C      1  0.5131685438674  0.7594191650884  0.3803486723387 1.0
C      1  0.4848225327985  0.2720237474749  0.4013193184083 1.0
C      1  0.5306312224175  0.2703466220275  0.5752545488562 1.0
C      1  0.4042168692715  0.4771958951228  0.2677416473647 1.0
C      1  0.5842762222355  0.5229565639909  0.2732341641309 1.0
C      1  0.3883679401542  0.5366955187662  0.7677697738112 1.0
C      1  0.2364548432340  0.3327291357191  0.5633703206317 1.0
C      1  0.5734976412131  0.2877873461594  0.3557494194583 1.0
C      1  0.3587471312660  0.5652168911282  0.2810915599672 1.0
C      1  0.7758201134160  0.3249183118281  0.4311220702233 1.0
C      1  0.2943163642775  0.6384719468854  0.4538438726982 1.0
C      1  0.7056023395160  0.6303665540376  0.5421359517779 1.0
C      1  0.4425556440653  0.2977187555086  0.6206719720635 1.0
C      1  0.5712275629675  0.7669875675412  0.6709829207018 1.0
C      1  0.4268681510488  0.7692565661694  0.3295390669405 1.0
C      1  0.6497091083065  0.5640675444026  0.7198902608196 1.0
C      1  0.3354802071272  0.4481042371225  0.7641104684908 1.0
C      1  0.6299789247943  0.4359531406966  0.2936003269193 1.0
C      1  0.6696276627367  0.3935042239746  0.5388642633233 1.0
C      1  0.5346414258823  0.6623847786046  0.4003669360158 1.0
C      1  0.4076062860209  0.5837156452300  0.6733025961686 1.0
C      1  0.3391754546632  0.3994783937264  0.4368826404117 1.0
C      1  0.6702809110656  0.5673055879525  0.4076512526890 1.0
C      1  0.3244040673365  0.5609991528782  0.6144707824872 1.0
C      1  0.4553202196566  0.6655292979805  0.6255117368905 1.0
C      1  0.5920134270880  0.3416569637062  0.5433652578028 1.0
C      1  0.4337284919490  0.3565353309021  0.4129031744035 1.0
C      1  0.5835889085565  0.5787271887606  0.3562129898717 1.0
C      1  0.4019708953333  0.4352540897787  0.3558382280669 1.0
C      1  0.5638237575674  0.4238573233805  0.6945003519845 1.0
C      1  0.8101923683815  0.7033407058561  0.5639318955325 1.0
C      1  0.5547528206650  0.8270568702497  0.7594456594688 1.0
C      1  0.7139165150274  0.5786498708419  0.8017560293761 1.0
C      1  0.2019096267330  0.6948004811342  0.4363566385843 1.0
C      1  0.8283293386118  0.2404847735927  0.4565626657152 1.0
C      1  0.1854981913312  0.2453397592536  0.5412176408693 1.0
C      1  0.4510043686114  0.8199020405515  0.2431627575749 1.0
C      1  0.5824251703320  0.1940887826927  0.2944451873760 1.0
C      1  0.4304386026405  0.2108162980177  0.6881640103044 1.0
C      1  0.2977939165475  0.5759538137553  0.1968002952642 1.0
C      1  0.6981058297162  0.4263432252963  0.1993147410912 1.0
C      1  0.2455007835616  0.4663071471558  0.8163729110763 1.0
C      1  0.7729656176237  0.6399367605210  0.3158842927997 1.0
C      1  0.3324357592184  0.7826029421870  0.6423549799011 1.0
C      1  0.6460934237810  0.3317721428422  0.7682434642935 1.0
C      1  0.2303072206575  0.6526118326371  0.6804095350372 1.0
C      1  0.7768778185068  0.3690728988575  0.6681902099342 1.0
C      1  0.2309296964380  0.3677663342182  0.3220154340270 1.0
C      1  0.6679218439937  0.7698462171996  0.3572650249860 1.0
C      1  0.3397093195254  0.2301791370944  0.3617782116543 1.0
C      1  0.6716274562815  0.2296771642978  0.6268455493027 1.0
C      1  0.3739510789783  0.3318786668235  0.2266396597879 1.0
C      1  0.6281206776111  0.6659946360985  0.2231843110457 1.0
C      1  0.3707023033849  0.6861137838672  0.7878632185760 1.0
C      1  0.8487038466790  0.2539556714698  0.5445184307996 1.0
C      1  0.5392017152938  0.8413407207995  0.2535098887293 1.0
C      1  0.2609304156772  0.5518123877283  0.8426109559626 1.0
C      1  0.1625249699404  0.2591462243730  0.4538818475547 1.0
C      1  0.8498531561870  0.7012769153975  0.4815985267497 1.0
C      1  0.1491985714020  0.6975474325569  0.5195037500510 1.0
C      1  0.4679849156704  0.8526542259229  0.7507504763960 1.0
C      1  0.5154448937023  0.1631460708136  0.6902961586730 1.0
C      1  0.4945333275547  0.1542644369522  0.3002247081961 1.0
C      1  0.6915096406357  0.5108603094445  0.1558063378597 1.0
C      1  0.3019824867264  0.4850602255093  0.1542479387687 1.0
C      1  0.7211178053314  0.4894585982596  0.8487896052507 1.0
C      1  0.4768713182466  0.5933757993649  0.1854399983883 1.0
C      1  0.1939313299490  0.4833443991417  0.5864363255866 1.0
C      1  0.6001088301184  0.1821615470990  0.4719371317922 1.0
C      1  0.5220537255859  0.5971822030009  0.8201402306599 1.0
C      1  0.4805306922708  0.4155027710810  0.8090138344146 1.0
C      1  0.5213677545319  0.4037637204532  0.1874587298843 1.0
C      1  0.8068082759053  0.4775256602223  0.4074112650475 1.0
C      1  0.1919331702530  0.5153008225051  0.4075294480417 1.0
C      1  0.8148424797714  0.5141368777905  0.5837595369657 1.0
C      1  0.4106001787904  0.1867388223009  0.5120687523991 1.0
C      1  0.5921348889273  0.8038077123154  0.5095653564009 1.0
C      1  0.4091081080479  0.8082908752331  0.4846375275269 1.0
C      1  0.6699495066826  0.7746480108755  0.4546504818283 1.0
C      1  0.4730636233277  0.6780226613134  0.7948793572739 1.0
C      1  0.7821992354397  0.4691644325753  0.6643366181144 1.0
C      1  0.3327264169867  0.7837681881665  0.5448253827945 1.0
C      1  0.6745400108518  0.2106790157074  0.5254366618019 1.0
C      1  0.3358432815799  0.2153053911557  0.4614514386706 1.0
C      1  0.5275176833162  0.6692220389463  0.2104158527501 1.0
C      1  0.4745884146105  0.3265358103950  0.2157617959208 1.0
C      1  0.5398669828349  0.3481170257581  0.7546132345407 1.0
C      1  0.2223777544213  0.4693856255252  0.3272190610043 1.0
C      1  0.7530182827417  0.5361342013173  0.3417517914111 1.0
C      1  0.2363931688139  0.5437254857599  0.6625487450102 1.0
C      1  0.6370060363584  0.2124803594208  0.3832807660171 1.0
C      1  0.3870012798117  0.6308234358772  0.2122318658253 1.0
C      1  0.2199199373115  0.4049774151226  0.6320388249897 1.0
C      1  0.3767337454252  0.2219260572591  0.6005457303164 1.0
C      1  0.6293427546647  0.7774734344145  0.5944978267583 1.0
C      1  0.3647127347035  0.7814790531605  0.4035097819246 1.0
C      1  0.6155025954468  0.6291506057189  0.7885075988480 1.0
C      1  0.4019572121792  0.3783501033140  0.7744200250089 1.0
C      1  0.6115495240420  0.3737209992715  0.2170203357160 1.0
C      1  0.7818210262601  0.3974096729877  0.3656676324511 1.0
C      1  0.2255370919120  0.6079893581855  0.3852984147363 1.0
C      1  0.7832009202169  0.6080847659324  0.6061344689051 1.0
C      1  0.7296447253432  0.2321587649722  0.4420917514603 1.0
C      1  0.4415036149379  0.7220457525373  0.2333467229283 1.0
C      1  0.2464004785615  0.4568544618434  0.7164153715760 1.0
C      1  0.2845774784579  0.2399845807334  0.5480253067800 1.0
C      1  0.7076830235663  0.7354070420105  0.5481271866144 1.0
C      1  0.2900888487748  0.7425386295729  0.4524591456735 1.0
C      1  0.5627343925256  0.7245852472176  0.7658799187057 1.0
C      1  0.4471614646256  0.3059153512932  0.7214814353061 1.0
C      1  0.5658795599505  0.2864447136187  0.2539240321282 1.0
C      1  0.7291121613622  0.4435382168367  0.2954204097709 1.0
C      1  0.2611289745235  0.5615960667830  0.2939475338865 1.0
C      1  0.7474536102001  0.5648964809981  0.7002756800999 1.0
C      1  0.5045342442192  0.8046336676505  0.4717733110432 1.0
C      1  0.4759899938021  0.5149941355718  0.8131109588247 1.0
C      1  0.5047695531841  0.2165183023644  0.4899647240937 1.0
C      1  0.4966894616415  0.4983234596463  0.2210696198954 1.0
C      1  0.8114621916381  0.4679827846327  0.5033578087326 1.0
C      1  0.1971951205068  0.4718318188067  0.4899844612206 1.0
C      1  0.3016045119438  0.7130579614090  0.7105738287789 1.0
C      1  0.7025925761230  0.3024940855849  0.6934185528440 1.0
C      1  0.6959993590913  0.6978527995342  0.2898783498571 1.0
C      1  0.3096605245463  0.3026289879082  0.2971236896709 1.0
END
