TITL C-30580-1724-50 -5.947 3375.00 -1055.88664620 0 0 129 (Cs) n - 1
REM
REM Run started: at 2021.01.01 19:47:34 in /gpfs/home/chem/mssmkc/CARBON/AIRSS/Generating-Clusters/Str-Search/Higher-Symm/C100-200
REM VASP from code version vasp.5.4.4.18Apr17-6-g9f103f2a35 (build Oct 11 2019 16:45:47) gamma-only
REM
REM
REM
REM
REM ./C.cell (533062f00bc710175b3da973d35f2034)
REM AIRSS Version 0.9.1 bugfix July 2018 build 013d7b7c2542+ Fri, 06 Jul 2018 19:26:36 +0100
REM compiler GCC version 6.3.0
REM options -cpp -iprefix /gpfs/warwick/csc/orac/software/Core/GCCcore/6.3.0/bin/../lib/gcc/x86_64-pc-linux-gnu/6.3.0/ -mtune=generic -march=x86-64 -g -O0
REM seed 1829721609 752220700 -85923850 1926375947 1303668596 1703703779 -1242735012 -676611247 1767691942 1937790611 974848638 194050917
REM
REM C.POTCAR (d86ddea03c3ceb6dc662c8ad6801f873)
REM 
CELL 1.54180   15.00000   15.00000   15.00000   90.00000   90.00000   90.00000
LATT -1
SFAC C  
C      1  0.5458795044825  0.4525215235425  0.6237841727533 1.0
C      1  0.4405066144099  0.5524706997551  0.6345508131379 1.0
C      1  0.5458859526483  0.5489668134978  0.6237698880351 1.0
C      1  0.4405212675554  0.4490340622801  0.6345914564005 1.0
C      1  0.4585245484834  0.6671866165614  0.5274986276501 1.0
C      1  0.5481308214379  0.3342509196401  0.5249164958851 1.0
C      1  0.4585681132100  0.3342390640861  0.5275894921439 1.0
C      1  0.5480827295823  0.6672833694319  0.5248211794955 1.0
C      1  0.1924211112041  0.4518758184468  0.5024380688683 1.0
C      1  0.8262631024869  0.5505247350706  0.4842984486717 1.0
C      1  0.1924759578801  0.5495189467141  0.5023532787519 1.0
C      1  0.8262709481520  0.4509614858030  0.4843227828919 1.0
C      1  0.3096228091120  0.6075348584267  0.7131943085785 1.0
C      1  0.6924254977095  0.4503691331705  0.6755164414222 1.0
C      1  0.3096277018256  0.3939448576495  0.7131809630821 1.0
C      1  0.6923828950313  0.5511911685602  0.6754693629042 1.0
C      1  0.3023170771873  0.2223987221865  0.6759537244621 1.0
C      1  0.7114446819750  0.7622343739221  0.6779329363413 1.0
C      1  0.3022377489069  0.7790964265882  0.6756182485190 1.0
C      1  0.7116646103656  0.2395315281066  0.6782248751197 1.0
C      1  0.7373279690399  0.4032793148507  0.2623447200182 1.0
C      1  0.2621603020782  0.5989600685774  0.2728228185544 1.0
C      1  0.7372679407834  0.5980506506208  0.2623131987383 1.0
C      1  0.2622014986945  0.4022191968008  0.2729710686215 1.0
C      1  0.8162026015030  0.5484299247487  0.5818006065000 1.0
C      1  0.2067778689299  0.4494621873725  0.5984665660088 1.0
C      1  0.8162466519519  0.4530812991964  0.5818264730773 1.0
C      1  0.2068425319981  0.5519813863367  0.5984037317792 1.0
C      1  0.6703405303383  0.2782825289693  0.3690497199956 1.0
C      1  0.3367830443822  0.7262502376096  0.3722282691218 1.0
C      1  0.6702616091208  0.7231813622224  0.3688460291901 1.0
C      1  0.3366990308783  0.2751120067889  0.3725588034487 1.0
C      1  0.4556090981647  0.3077376441906  0.6333657343771 1.0
C      1  0.5579710528349  0.6882316335539  0.6325722419099 1.0
C      1  0.4554825440058  0.6938152297059  0.6332044835393 1.0
C      1  0.5580273633818  0.3133580527982  0.6327226625322 1.0
C      1  0.3878551083683  0.5455279359179  0.5488823035963 1.0
C      1  0.6031011984262  0.4563933009396  0.5402550473706 1.0
C      1  0.3878784195619  0.4558738371249  0.5489220443448 1.0
C      1  0.6031229269364  0.5451345484924  0.5402418449040 1.0
C      1  0.6931497967881  0.6842244816740  0.2810374788408 1.0
C      1  0.3077184280717  0.3158903451885  0.2872765497898 1.0
C      1  0.6932547453190  0.3171112877708  0.2811753013486 1.0
C      1  0.3076466994103  0.6853231760066  0.2869778552690 1.0
C      1  0.7372983016314  0.7016815268968  0.6102311491216 1.0
C      1  0.2683551473023  0.2832067008201  0.6106613014556 1.0
C      1  0.7374210413463  0.2999593687311  0.6103763036705 1.0
C      1  0.2683108010326  0.7182277992933  0.6103951642035 1.0
C      1  0.4091760295205  0.3741188037551  0.6964932541095 1.0
C      1  0.6006439140385  0.5953894110618  0.6933717922241 1.0
C      1  0.4091696068389  0.6273591338466  0.6963937877416 1.0
C      1  0.6006608081407  0.4060259200334  0.6933543978208 1.0
C      1  0.5525010429559  0.4025856505300  0.2947496643916 1.0
C      1  0.4473581793758  0.5991106164292  0.2965822826586 1.0
C      1  0.5524683739666  0.5986571634055  0.2946718079912 1.0
C      1  0.4474290673038  0.4020518602198  0.2966745040459 1.0
C      1  0.3967566762604  0.6842454620862  0.2979935063745 1.0
C      1  0.6051566097001  0.3180441921302  0.2973915106066 1.0
C      1  0.3967957286825  0.3169761305666  0.2982614430918 1.0
C      1  0.6050251177143  0.6833152580673  0.2972305975099 1.0
C      1  0.7571166037057  0.6030435875322  0.6305250379725 1.0
C      1  0.2477094185904  0.3783652187004  0.6423900609759 1.0
C      1  0.7571890516915  0.3985477906344  0.6306059836376 1.0
C      1  0.2477766429897  0.6230964617065  0.6423093756191 1.0
C      1  0.3799965194170  0.8048039827222  0.5025684477095 1.0
C      1  0.6362626867877  0.2010102240458  0.5022016242976 1.0
C      1  0.3801689542165  0.1967424973155  0.5029056577302 1.0
C      1  0.6361827168415  0.8005521936338  0.5019068011425 1.0
C      1  0.3709995658478  0.8181208956207  0.7012865223289 1.0
C      1  0.6478885912537  0.1927135832966  0.7042176148043 1.0
C      1  0.3711565592854  0.1835381542078  0.7016251957400 1.0
C      1  0.6476876844159  0.8090574304466  0.7039563255219 1.0
C      1  0.5475276144833  0.8380771702538  0.3737473168557 1.0
C      1  0.4654776528179  0.1639123210826  0.3719888383485 1.0
C      1  0.5475716931748  0.1636213011810  0.3740227591326 1.0
C      1  0.4654009950730  0.8378064687159  0.3717632348349 1.0
C      1  0.2290797952469  0.4020135726605  0.4332996707023 1.0
C      1  0.7783361066071  0.5974840425314  0.4221205354628 1.0
C      1  0.2291331526672  0.5993286716206  0.4331642342240 1.0
C      1  0.7783413494163  0.4039953765838  0.4221702641117 1.0
C      1  0.4614530218101  0.8323380205979  0.5594803707909 1.0
C      1  0.5580485745750  0.1722845782540  0.5604362122475 1.0
C      1  0.4616133759050  0.1692025352741  0.5598479159878 1.0
C      1  0.5578977178312  0.8292527307482  0.5601242604288 1.0
C      1  0.4555003966305  0.7972855419919  0.6536362132690 1.0
C      1  0.5631249469124  0.2086317479391  0.6548318385936 1.0
C      1  0.4556422548420  0.2043486817362  0.6539841075980 1.0
C      1  0.5629692339077  0.7930484214494  0.6545512637777 1.0
C      1  0.3076905807081  0.5476898263596  0.2096374808713 1.0
C      1  0.6894940514881  0.4539048544614  0.1998539885762 1.0
C      1  0.3077570602110  0.4533394919392  0.2097648656641 1.0
C      1  0.6895168426357  0.5472976486111  0.1998105607683 1.0
C      1  0.3843689460283  0.1962738595005  0.4092742733584 1.0
C      1  0.6289652708383  0.8038746858548  0.4084839333115 1.0
C      1  0.3843135198147  0.8052466461115  0.4089415639296 1.0
C      1  0.6290408378741  0.1976882930993  0.4087762627830 1.0
C      1  0.4217380812130  0.4496471685025  0.3910048018487 1.0
C      1  0.5797224321947  0.5511077456968  0.3859329748060 1.0
C      1  0.4217193693356  0.5515770417899  0.3909607036170 1.0
C      1  0.5797479046854  0.4502001305276  0.3859116196332 1.0
C      1  0.3054380256917  0.2630366518256  0.5276701921326 1.0
C      1  0.7056179619142  0.7292442624451  0.5259730472123 1.0
C      1  0.3054167860964  0.7383860763984  0.5273394334211 1.0
C      1  0.7056908473382  0.2723540696329  0.5261702156508 1.0
C      1  0.2271301095343  0.4503246868976  0.3490006991148 1.0
C      1  0.7739885622951  0.5497551441438  0.3362418370920 1.0
C      1  0.2271346470585  0.5509269373312  0.3489003668093 1.0
C      1  0.7739979267744  0.4516384039177  0.3362504123654 1.0
C      1  0.4208531658981  0.5908889870832  0.7923513888729 1.0
C      1  0.4940074124046  0.4498817172090  0.8285885244041 1.0
C      1  0.4207842923358  0.4104542272544  0.7924572641773 1.0
C      1  0.4940415346618  0.5515351308830  0.8285530929725 1.0
C      1  0.3046239390305  0.3318627524022  0.4522109670970 1.0
C      1  0.7031797808540  0.6645672163747  0.4469488087735 1.0
C      1  0.3046829052786  0.6695215869073  0.4519620588976 1.0
C      1  0.7032155954731  0.3369681494913  0.4470885419986 1.0
C      1  0.4080798917687  0.4541356482498  0.2203845868391 1.0
C      1  0.5885814793385  0.5463469496704  0.2163890339435 1.0
C      1  0.4077749495276  0.5466376272050  0.2207308513014 1.0
C      1  0.5884164272210  0.4546529197141  0.2161997547385 1.0
C      1  0.3907678529101  0.3905794303061  0.4748443598219 1.0
C      1  0.6129336102517  0.6100675520377  0.4682801677723 1.0
C      1  0.3907452954689  0.6107930007466  0.4747270131819 1.0
C      1  0.6129283275164  0.3914331978452  0.4683475152241 1.0
C      1  0.3319576980743  0.4516178044231  0.7839649084618 1.0
C      1  0.5765108312303  0.5497694753032  0.7803002652308 1.0
C      1  0.3319933266407  0.5497912032005  0.7839084208788 1.0
C      1  0.5764815783692  0.4515657941278  0.7803241976105 1.0
C      1  0.5008406646490  0.5007078432657  0.4233146759824 1.0
END
