TITL C-30538-2259-13 -4.361 3375.00 -723.25198645 0 0 90 (Ci) n - 1
REM
REM Run started: at 2020.12.28 04:46:21 in /rds/project/t2_vol4/rds-t2-cs072/BORA/CARBON/AIRSS/Generating-Clusters/Str-Search/Higher-Symm/C10-100
REM VASP from code version vasp.5.4.4.18Apr17-6-g9f103f2a35 (build Oct 11 2019 16:45:47) gamma-only
REM
REM
REM
REM
REM ./C.cell (f39ce9773e2efe3fa5bbdf770a4156b8)
REM AIRSS Version 0.9.1 bugfix July 2018 build 013d7b7c2542+ Fri, 06 Jul 2018 19:26:36 +0100
REM compiler GCC version 4.8.5 20150623 (Red Hat 4.8.5-39)
REM options -cpp -mtune=generic -march=x86-64 -g -O0
REM seed -1766246762 444398748 -1864358606 -874684008 1246906166 -1942299100 744887232 -74656802 79587237 1170758341 -267932562 1272053814
REM
REM C.POTCAR (d86ddea03c3ceb6dc662c8ad6801f873)
REM 
CELL 1.54180   15.00000   15.00000   15.00000   90.00000   90.00000   90.00000
LATT -1
SFAC C  
C      1  0.6346319285099  0.6007854836323  0.7500160709164 1.0
C      1  0.3632496794403  0.4352917458312  0.7608742995707 1.0
C      1  0.6344622973833  0.2934473443666  0.6727918740851 1.0
C      1  0.3633145796345  0.2321109177759  0.5176771263066 1.0
C      1  0.6354721669552  0.2712647488364  0.3570283239292 1.0
C      1  0.3653693955799  0.3992136257173  0.2499828374503 1.0
C      1  0.6367504628867  0.5647095590930  0.2391258663750 1.0
C      1  0.3655377006843  0.7065530403318  0.3272083189513 1.0
C      1  0.6366858315387  0.7678891492611  0.4823236677384 1.0
C      1  0.3645274080775  0.7287356812365  0.6429714038833 1.0
C      1  0.6097871287149  0.4391550755996  0.4393032084621 1.0
C      1  0.3906169152036  0.4874556031463  0.4151652605050 1.0
C      1  0.6100732878368  0.5386635558267  0.4241969193126 1.0
C      1  0.3907559604747  0.5769474296731  0.4613534096100 1.0
C      1  0.6098562222567  0.5840717243667  0.5141136546570 1.0
C      1  0.3902124256170  0.5608451569264  0.5606966688043 1.0
C      1  0.6093827210124  0.5125440381064  0.5848346922961 1.0
C      1  0.3899263984458  0.4613365604451  0.5758030801422 1.0
C      1  0.6092433719971  0.4230525135210  0.5386463731148 1.0
C      1  0.3901438353144  0.4159280404706  0.4858864813448 1.0
C      1  0.4004475557506  0.2705916244667  0.3588096926369 1.0
C      1  0.6004456710161  0.3969147565164  0.2516890588510 1.0
C      1  0.4010609675979  0.5629941158682  0.2389524905625 1.0
C      1  0.6014831654311  0.7036190580874  0.3265435398204 1.0
C      1  0.4006741253857  0.7677601572755  0.4794376865209 1.0
C      1  0.5995526408832  0.7294083104743  0.6411907482487 1.0
C      1  0.3995553523889  0.6030868398433  0.7483119159323 1.0
C      1  0.5989385987409  0.4370061217123  0.7610473928267 1.0
C      1  0.3985170917994  0.2963813268645  0.6734569327632 1.0
C      1  0.5993258584657  0.2322405840482  0.5205621140539 1.0
C      1  0.7190015491200  0.4350863541891  0.4379155770235 1.0
C      1  0.2815394141553  0.4858458726101  0.4111229388872 1.0
C      1  0.7192759514119  0.5388083548948  0.4204984265513 1.0
C      1  0.2813946382304  0.5801425107386  0.4578541754721 1.0
C      1  0.7190704733529  0.5877023690717  0.5136784663687 1.0
C      1  0.2809977540000  0.5649136515408  0.5620844280230 1.0
C      1  0.7184604972089  0.5141531070770  0.5888772091820 1.0
C      1  0.2807239102875  0.4611917049560  0.5795018014117 1.0
C      1  0.7186048185982  0.4198569841729  0.5421453006321 1.0
C      1  0.2809297256500  0.4122970933981  0.4863222336134 1.0
C      1  0.5282500897537  0.3962729090686  0.3927450918458 1.0
C      1  0.4723076429460  0.4792767137696  0.3524694047396 1.0
C      1  0.5288219512247  0.5696686399000  0.3686446913533 1.0
C      1  0.4725686505002  0.6339383516571  0.4349278928642 1.0
C      1  0.5286161999721  0.6465950653547  0.5261194834047 1.0
C      1  0.4717495543580  0.6037272361682  0.6072548829509 1.0
C      1  0.5276922223048  0.5207233113207  0.6475307549125 1.0
C      1  0.4711789410588  0.4303314259504  0.6313558254209 1.0
C      1  0.5274311370138  0.3660616165183  0.5650723996144 1.0
C      1  0.4713835765345  0.3534047296257  0.4738805524848 1.0
C      1  0.4226865589490  0.6599148558550  0.6781608435395 1.0
C      1  0.5763642001934  0.5244171158664  0.7379365701336 1.0
C      1  0.4216898464590  0.3803645833657  0.7065094785224 1.0
C      1  0.5763118518454  0.2812380700815  0.5964292051750 1.0
C      1  0.4223833259062  0.2662817840402  0.4491998386391 1.0
C      1  0.5773133556490  0.3400857450354  0.3218383290151 1.0
C      1  0.4236363162372  0.4755829249912  0.2620628063130 1.0
C      1  0.5783101251343  0.6196361295270  0.2934910965387 1.0
C      1  0.4236880968262  0.7187623081771  0.4035708371042 1.0
C      1  0.5776165105522  0.7337184454430  0.5508003419787 1.0
C      1  0.7250024643826  0.2966792788530  0.6443790348475 1.0
C      1  0.2729456347892  0.2523925176220  0.4963308978783 1.0
C      1  0.7261139297861  0.2994417431537  0.3526091393931 1.0
C      1  0.2750243100005  0.4250211557148  0.2633492422874 1.0
C      1  0.7270539027063  0.5777784959787  0.2653872504874 1.0
C      1  0.2749974170964  0.7033210971476  0.3556208927700 1.0
C      1  0.7270544326269  0.7476080032298  0.5036708073516 1.0
C      1  0.2738860522298  0.7005587200988  0.6473901897124 1.0
C      1  0.7249766618721  0.5749766248577  0.7366497098607 1.0
C      1  0.2729462061352  0.4222222836539  0.7346124032838 1.0
C      1  0.6116063446188  0.3586274457313  0.7360279521519 1.0
C      1  0.3856213704788  0.2477185224584  0.6072215093424 1.0
C      1  0.6122406071440  0.2311770907606  0.4383671978015 1.0
C      1  0.3883307014100  0.3187222452821  0.2919731174598 1.0
C      1  0.6135031041362  0.4749233659440  0.2257236237829 1.0
C      1  0.3883937206069  0.6413725388217  0.2639725017142 1.0
C      1  0.6143792501930  0.7522815917237  0.3927791703713 1.0
C      1  0.3877589813974  0.7688232197190  0.5616326606354 1.0
C      1  0.6116707323603  0.6812773801190  0.7080267506976 1.0
C      1  0.3864964000091  0.5250772292408  0.7742754223877 1.0
C      1  0.2369676992540  0.6537917880151  0.4105809109989 1.0
C      1  0.7642148518440  0.6746983238955  0.5188494493572 1.0
C      1  0.2363469968307  0.6325152244451  0.6175530557553 1.0
C      1  0.7630782442972  0.5364595490141  0.6734466772208 1.0
C      1  0.2354257809119  0.4296551318790  0.6606574604472 1.0
C      1  0.7630320471777  0.3462081340681  0.5894184535072 1.0
C      1  0.2357844458837  0.3253009725026  0.4811497462428 1.0
C      1  0.7636516615705  0.3674851650045  0.3824464875333 1.0
C      1  0.2369227443218  0.4635363092308  0.3265535510444 1.0
C      1  0.7645736734718  0.5703449981493  0.3393427402885 1.0
END
