TITL C-30219-7198-5 -1.227 3375.00 -186.39562655 0 0 24 (C1) n - 1
REM
REM Run started: at 2020.12.17 05:38:51 in /rds/project/t2_vol4/rds-t2-cs072/BORA/CARBON/AIRSS/Generating-Clusters/Str-Search/Higher-Symm/C10-100
REM VASP from code version vasp.5.4.4.18Apr17-6-g9f103f2a35 (build Oct 11 2019 16:45:47) gamma-only
REM
REM
REM
REM
REM ./C.cell (f39ce9773e2efe3fa5bbdf770a4156b8)
REM AIRSS Version 0.9.1 bugfix July 2018 build 013d7b7c2542+ Fri, 06 Jul 2018 19:26:36 +0100
REM compiler GCC version 4.8.5 20150623 (Red Hat 4.8.5-39)
REM options -cpp -mtune=generic -march=x86-64 -g -O0
REM seed 270914920 -525881962 1228755555 -1629859374 -1505346755 -1010274946 -691606108 -1235546695 86566417 -1154940940 -650840482 1896875194
REM
REM C.POTCAR (d86ddea03c3ceb6dc662c8ad6801f873)
REM 
CELL 1.54180   15.00000   15.00000   15.00000   90.00000   90.00000   90.00000
LATT -1
SFAC C  
C      1  0.5941565653170  0.5455654564415  0.5942963748432 1.0
C      1  0.5856028300633  0.4495759547063  0.5757717275898 1.0
C      1  0.4942215591766  0.4242674750861  0.5852271498820 1.0
C      1  0.4383558313535  0.5053991803566  0.6288659784567 1.0
C      1  0.5068744220990  0.5813166869917  0.6104284004523 1.0
C      1  0.3647959972455  0.5194463030691  0.5634050565237 1.0
C      1  0.4820514983468  0.6528277106007  0.5556271012416 1.0
C      1  0.6467386589103  0.5912656485666  0.5309604749880 1.0
C      1  0.6396444395498  0.4172255547926  0.5049626238083 1.0
C      1  0.4554592429585  0.3742287222891  0.5184424480535 1.0
C      1  0.4216540674340  0.4355992998044  0.3686414322661 1.0
C      1  0.4127690972775  0.5273099970705  0.4023895915762 1.0
C      1  0.4862008990748  0.5935516143300  0.4000243521642 1.0
C      1  0.5816863596079  0.5729593407758  0.3847655181435 1.0
C      1  0.6094308221091  0.4846733891764  0.3523419740144 1.0
C      1  0.6456082201544  0.4338494313102  0.4240294768755 1.0
C      1  0.4224220123131  0.3759193475505  0.4414110642900 1.0
C      1  0.3625837021090  0.5335465443847  0.4823571116824 1.0
C      1  0.4774511560412  0.6558491486478  0.4726039755607 1.0
C      1  0.6388558968259  0.6121797114860  0.4508335868343 1.0
C      1  0.4676267010397  0.4211995695093  0.2864517748944 1.0
C      1  0.5479006101358  0.4435117612903  0.2980519880936 1.0
C      1  0.4126428632124  0.5014087288156  0.8074206276375 1.0
C      1  0.4258718476449  0.5025725229481  0.7243373901282 1.0
END
