TITL C-30580-1724-16 -9.239 3375.00 -1629.14972080 0 0 198 (C1) n - 1
REM
REM Run started: at 2020.12.31 19:04:31 in /gpfs/home/chem/mssmkc/CARBON/AIRSS/Generating-Clusters/Str-Search/Higher-Symm/C100-200
REM VASP from code version vasp.5.4.4.18Apr17-6-g9f103f2a35 (build Oct 11 2019 16:45:47) gamma-only
REM
REM
REM
REM
REM ./C.cell (533062f00bc710175b3da973d35f2034)
REM AIRSS Version 0.9.1 bugfix July 2018 build 013d7b7c2542+ Fri, 06 Jul 2018 19:26:36 +0100
REM compiler GCC version 6.3.0
REM options -cpp -iprefix /gpfs/warwick/csc/orac/software/Core/GCCcore/6.3.0/bin/../lib/gcc/x86_64-pc-linux-gnu/6.3.0/ -mtune=generic -march=x86-64 -g -O0
REM seed 2074534251 -787735379 800166730 812393010 -1770469362 -294763594 -574684623 -709866226 -730935336 -1799218904 425032873 -351561467
REM
REM C.POTCAR (d86ddea03c3ceb6dc662c8ad6801f873)
REM 
CELL 1.54180   15.00000   15.00000   15.00000   90.00000   90.00000   90.00000
LATT -1
SFAC C  
C      1  0.3760397094888  0.4072318208215  0.3027370958498 1.0
C      1  0.4049856082205  0.6666993585066  0.3584286600372 1.0
C      1  0.3871071928851  0.6996958313590  0.6265653624045 1.0
C      1  0.4040028029103  0.4475161925084  0.7329737405363 1.0
C      1  0.3741372374266  0.2846800700026  0.5258292678791 1.0
C      1  0.6255037217311  0.5928398743772  0.2978001909705 1.0
C      1  0.5987752473722  0.3351980780985  0.3537456626320 1.0
C      1  0.6076208282517  0.3006470637285  0.6206798912679 1.0
C      1  0.6212792370666  0.5450368605811  0.7205115584614 1.0
C      1  0.6079113442003  0.7001422673824  0.5197478965676 1.0
C      1  0.4721390113598  0.1324974875787  0.4901878159544 1.0
C      1  0.4664391402379  0.3900412508059  0.1480433542688 1.0
C      1  0.4409123408314  0.7437206767262  0.3020321253598 1.0
C      1  0.4325366408359  0.7739378232575  0.6766158614672 1.0
C      1  0.4504533654009  0.4007046726873  0.8119547193270 1.0
C      1  0.5174413470625  0.8765502225983  0.4973339106472 1.0
C      1  0.5215380195689  0.6101254143120  0.1448002305021 1.0
C      1  0.5555024782027  0.2571997362347  0.3016349668944 1.0
C      1  0.5583244981638  0.2267961085345  0.6723287555537 1.0
C      1  0.5255229202408  0.6601702641393  0.8249025856414 1.0
C      1  0.8019989253951  0.5805688193659  0.6395765972090 1.0
C      1  0.8243607487541  0.3925964634095  0.6273841974312 1.0
C      1  0.8424028414733  0.3777011458966  0.3998043590414 1.0
C      1  0.8151066537269  0.5286255466918  0.3284753091004 1.0
C      1  0.8276216327206  0.6593455782579  0.4673257181555 1.0
C      1  0.1623087426809  0.4271534830578  0.6374250829735 1.0
C      1  0.1741792291515  0.6122347872309  0.6173499581620 1.0
C      1  0.1662163581704  0.6289714930115  0.4396036916691 1.0
C      1  0.1875641396159  0.4757877392915  0.3506922069313 1.0
C      1  0.1694684207857  0.3458265426384  0.4749469641673 1.0
C      1  0.7818338877503  0.2116274459778  0.4736797383612 1.0
C      1  0.7603066062636  0.4538693656575  0.1908643815016 1.0
C      1  0.7710285160226  0.7708251444705  0.3634447694578 1.0
C      1  0.7719147565729  0.7186274353853  0.7120976056006 1.0
C      1  0.7770023796278  0.3616379619394  0.7757360812403 1.0
C      1  0.2256491301014  0.7889195495709  0.4619102968925 1.0
C      1  0.2286153330607  0.5499528193218  0.2120419863877 1.0
C      1  0.2159073331805  0.2318473769927  0.3679506891799 1.0
C      1  0.2282409743337  0.2930855513053  0.7010407506103 1.0
C      1  0.2194084336319  0.6309251706866  0.7684645524934 1.0
C      1  0.6550123299922  0.4926914759082  0.4163096040556 1.0
C      1  0.5838854173394  0.5391089576373  0.4759913555733 1.0
C      1  0.6398571039697  0.5408176708056  0.5658085579588 1.0
C      1  0.6636441563720  0.4432647849305  0.5696122455257 1.0
C      1  0.6525943445400  0.4087175246494  0.4737903419534 1.0
C      1  0.3640620458324  0.5006321359857  0.4277143541513 1.0
C      1  0.4177940487350  0.4346345491613  0.4834927351316 1.0
C      1  0.3733767070457  0.4510626897444  0.5765021919731 1.0
C      1  0.3588002821721  0.5504345412388  0.5807443593769 1.0
C      1  0.3792646015790  0.5841454629418  0.4836575670564 1.0
C      1  0.2181645807718  0.6692622803742  0.6859871810058 1.0
C      1  0.2467252408757  0.3893688840109  0.6795999287499 1.0
C      1  0.2236328905382  0.2601260773598  0.4538131927751 1.0
C      1  0.2345532180017  0.4733739726142  0.2601981698565 1.0
C      1  0.2480406076489  0.6993961654125  0.4250291560630 1.0
C      1  0.7832349197607  0.3169764642101  0.6875691286088 1.0
C      1  0.7619752948999  0.6285968916363  0.7197671705907 1.0
C      1  0.7622173484451  0.7364531651516  0.4470892991939 1.0
C      1  0.7608188440694  0.5316244904025  0.2411227524279 1.0
C      1  0.7735691536449  0.2960350655936  0.4134506647961 1.0
C      1  0.5650899530324  0.2977740897577  0.2051431692093 1.0
C      1  0.5833516939839  0.7532102051389  0.2194294454633 1.0
C      1  0.5763625027103  0.8416481021950  0.6499364088484 1.0
C      1  0.5751267994428  0.4472000466121  0.8742268433935 1.0
C      1  0.5707956297578  0.1504707035200  0.5969319695361 1.0
C      1  0.4252497927790  0.7018469936170  0.2069738509003 1.0
C      1  0.4077217595141  0.2462030790848  0.2238772602591 1.0
C      1  0.4100073369449  0.1519249376085  0.6485696000907 1.0
C      1  0.4190919271091  0.5450218143332  0.8826304466530 1.0
C      1  0.4168037236376  0.8530523025448  0.6059325842576 1.0
C      1  0.4019748713698  0.3406758269014  0.4529947150683 1.0
C      1  0.3966016269929  0.4983131417679  0.3355361403002 1.0
C      1  0.4477022583719  0.6531344521517  0.4567082474893 1.0
C      1  0.4006477238043  0.6016769034481  0.6530861542767 1.0
C      1  0.4183795147709  0.3978465058280  0.6457671170094 1.0
C      1  0.5539901822554  0.6364749532946  0.4480381173723 1.0
C      1  0.6147959667551  0.4980968624140  0.3273364897453 1.0
C      1  0.5700130232479  0.3628471153306  0.4546988359200 1.0
C      1  0.6109205963394  0.3981852009303  0.6398256580624 1.0
C      1  0.5999713828456  0.5951685247041  0.6399048951876 1.0
C      1  0.2536002778043  0.8009785023959  0.6053717005795 1.0
C      1  0.2630696858667  0.4936727553170  0.8062688776704 1.0
C      1  0.2510808435551  0.1957124833061  0.5927679748086 1.0
C      1  0.2531472852911  0.3157546215078  0.2482203523502 1.0
C      1  0.2670219239932  0.6830152470230  0.2654475430743 1.0
C      1  0.7314962240359  0.1868772730995  0.6146610421296 1.0
C      1  0.7330090244587  0.5023215425071  0.8250793082621 1.0
C      1  0.7266528262377  0.7910795915308  0.5890929755131 1.0
C      1  0.7403288103087  0.6920330581727  0.2384947585052 1.0
C      1  0.7294346483926  0.3195046986042  0.2516939140953 1.0
C      1  0.7036633399299  0.2672613692546  0.6510488068903 1.0
C      1  0.7020424658080  0.3025399718151  0.3395524967566 1.0
C      1  0.6986764910187  0.6062798939009  0.2407450095465 1.0
C      1  0.6872462495678  0.7493876735676  0.5103307956240 1.0
C      1  0.6965746952165  0.5721020406510  0.7689551024866 1.0
C      1  0.2865889978007  0.7279793774483  0.6495850297183 1.0
C      1  0.3058197173827  0.6909677681005  0.3480477885190 1.0
C      1  0.2974409254286  0.3998875760682  0.2532905981033 1.0
C      1  0.2927259179130  0.2332668627036  0.5175525535197 1.0
C      1  0.3028402258000  0.4380765591678  0.7459366795169 1.0
C      1  0.6076448590877  0.1781236989495  0.3309656204889 1.0
C      1  0.5810004375625  0.5497441233074  0.1068184692101 1.0
C      1  0.5804691924965  0.8823111939183  0.4302431925640 1.0
C      1  0.5867460540002  0.7186867542338  0.8379768700518 1.0
C      1  0.6019913516414  0.2300086752163  0.7616986472380 1.0
C      1  0.3939305230319  0.8247592371527  0.3330339967840 1.0
C      1  0.4034393298282  0.4503440778900  0.1148885381909 1.0
C      1  0.4096383485652  0.1211853946754  0.4236093159930 1.0
C      1  0.4043591113589  0.3182899505398  0.8320229366660 1.0
C      1  0.3849137209144  0.7703003873644  0.7644640172846 1.0
C      1  0.3012580867740  0.5835951658438  0.1536426196767 1.0
C      1  0.2965553269494  0.8549782152722  0.4707030802441 1.0
C      1  0.2923328923260  0.6422036258623  0.8324960323415 1.0
C      1  0.2943115360160  0.2324998380987  0.7333965586739 1.0
C      1  0.2869782727269  0.1832338027924  0.3213891645246 1.0
C      1  0.6836877074114  0.4173792948832  0.1400277417726 1.0
C      1  0.7038669239060  0.1515933772355  0.4732729406443 1.0
C      1  0.7047744666723  0.3501775759455  0.8341257703460 1.0
C      1  0.7037843067808  0.7845142392048  0.7404939271051 1.0
C      1  0.6979565049890  0.8179096843962  0.3198638803942 1.0
C      1  0.4300719047053  0.5545989541468  0.7262643044663 1.0
C      1  0.4175635833207  0.3086565184155  0.6205191723571 1.0
C      1  0.4103701970497  0.3289337021649  0.3585652800735 1.0
C      1  0.4254426384910  0.5779513929672  0.3024031954993 1.0
C      1  0.4290982053744  0.7210979672963  0.5275950487087 1.0
C      1  0.5911130632809  0.4471121778885  0.7148706947961 1.0
C      1  0.5775634192639  0.6825444355936  0.6177819164880 1.0
C      1  0.5767923276632  0.6590130727452  0.3496375262899 1.0
C      1  0.5779822449781  0.4210780508729  0.2970308771861 1.0
C      1  0.5677350058854  0.2871110301657  0.5217106220242 1.0
C      1  0.1914919090336  0.5391244115036  0.7557433088502 1.0
C      1  0.1844462848007  0.2657994390241  0.6212462728027 1.0
C      1  0.1849295408314  0.3116630180730  0.3186153256069 1.0
C      1  0.1929792843288  0.6172530501356  0.2741448861951 1.0
C      1  0.1828623075860  0.7630863756561  0.5435431888314 1.0
C      1  0.7983672426669  0.4559395828464  0.7684021484766 1.0
C      1  0.8029416567495  0.7376153569003  0.6209589519501 1.0
C      1  0.8096502551091  0.6974198065793  0.3085715812246 1.0
C      1  0.8005773198665  0.3861547842023  0.2461775724300 1.0
C      1  0.8092645777638  0.2262862160105  0.5658707977454 1.0
C      1  0.2407596204207  0.4088765442714  0.4982366236740 1.0
C      1  0.2599286608739  0.4805714113595  0.4314897897347 1.0
C      1  0.2935579326126  0.6344261654026  0.4880544564324 1.0
C      1  0.2581403976475  0.5836709187677  0.5663534919435 1.0
C      1  0.2837425828831  0.4087927617280  0.5799962430097 1.0
C      1  0.7668790302625  0.5880415833311  0.4798279335123 1.0
C      1  0.7550218092549  0.5175891306251  0.4156998562644 1.0
C      1  0.7355959552717  0.3611373974398  0.4765584417946 1.0
C      1  0.7671519276684  0.4133883272730  0.5536230830160 1.0
C      1  0.7335547911377  0.5779744378973  0.5629992661296 1.0
C      1  0.6516119497961  0.1479153488177  0.3942594738202 1.0
C      1  0.6266368560758  0.4809878742675  0.1009789597859 1.0
C      1  0.6360276651115  0.8661892238920  0.3699604616866 1.0
C      1  0.6529040569023  0.7673565607269  0.8131971691567 1.0
C      1  0.6443486550252  0.2799072972188  0.8129717392480 1.0
C      1  0.3526092610467  0.8613520164926  0.3941650842000 1.0
C      1  0.3555584499593  0.5177692180015  0.1129753258065 1.0
C      1  0.3484416626535  0.1314139479707  0.3678739347218 1.0
C      1  0.3541487158122  0.2627865691030  0.7984633423004 1.0
C      1  0.3441361977220  0.7206021176421  0.8167185381713 1.0
C      1  0.3118215041938  0.2406626374526  0.2474481356755 1.0
C      1  0.3266116291297  0.6691313887246  0.1878398650704 1.0
C      1  0.3191378557245  0.8611420005935  0.5647843559195 1.0
C      1  0.3226089746991  0.5557654706996  0.8581955655406 1.0
C      1  0.3148920011885  0.1703202151296  0.6625852836532 1.0
C      1  0.6778791453005  0.7636539272625  0.2412714588414 1.0
C      1  0.6622493349748  0.3324674512202  0.1799745689000 1.0
C      1  0.6696641922564  0.1360668948372  0.5638922743362 1.0
C      1  0.6753382240618  0.4408312483488  0.8683100006078 1.0
C      1  0.6741763265801  0.8279126837875  0.6576642807904 1.0
C      1  0.1378959840993  0.3403178124155  0.5776667963253 1.0
C      1  0.1492234075666  0.3799519350462  0.3732981665769 1.0
C      1  0.1510785232447  0.5809350463557  0.3505874271490 1.0
C      1  0.1402798254048  0.6757471203214  0.5386363127555 1.0
C      1  0.1527686241717  0.5201669655080  0.6690794670452 1.0
C      1  0.8448628035097  0.6662332393714  0.5774959786013 1.0
C      1  0.8518483451438  0.6288007391831  0.3564180702617 1.0
C      1  0.8471836831023  0.4245928981968  0.3200806494866 1.0
C      1  0.8551055914762  0.2922637751586  0.6228728537802 1.0
C      1  0.8284906578862  0.4793809687924  0.6805894529092 1.0
C      1  0.4524420517047  0.8090310106026  0.5214395039098 1.0
C      1  0.4660537903169  0.5959226810972  0.8109037119025 1.0
C      1  0.4578312479547  0.2325228321366  0.6672230413063 1.0
C      1  0.4540959804243  0.2577557802320  0.3072878338077 1.0
C      1  0.4590636611634  0.6065987896681  0.2162708028455 1.0
C      1  0.5392195592821  0.2000473927599  0.5136321125950 1.0
C      1  0.5470396414588  0.4093956050405  0.7935228639942 1.0
C      1  0.5331513235975  0.7603151081558  0.6668880767944 1.0
C      1  0.5405483848188  0.7356305331302  0.3042608485321 1.0
C      1  0.5329057223760  0.3933004679045  0.2162722970354 1.0
C      1  0.4747964898239  0.1098556225712  0.5857233057588 1.0
C      1  0.4779892590029  0.4688308095441  0.8863838432187 1.0
C      1  0.5123632174842  0.8934219969952  0.5946640358106 1.0
C      1  0.5204502763071  0.7070149629891  0.1634124293882 1.0
C      1  0.4685564809632  0.2929230066219  0.1657443430395 1.0
C      1  0.8009803892205  0.4401361977679  0.4642559762359 1.0
C      1  0.2274174855464  0.5596163919154  0.4784549337237 1.0
C      1  0.5162277927284  0.4508021127719  0.4735411669467 1.0
END
