TITL C-30513-3949-31 -7.148 3375.00 -1214.08693066 0 0 151 (C1) n - 1
REM
REM Run started: at 2020.12.22 18:08:12 in /gpfs/home/chem/mssmkc/CARBON/AIRSS/Generating-Clusters/Str-Search/Higher-Symm/C100-200
REM VASP from code version vasp.5.4.4.18Apr17-6-g9f103f2a35 (build Oct 11 2019 16:45:47) gamma-only
REM
REM
REM
REM
REM ./C.cell (533062f00bc710175b3da973d35f2034)
REM AIRSS Version 0.9.1 bugfix July 2018 build 013d7b7c2542+ Fri, 06 Jul 2018 19:26:36 +0100
REM compiler GCC version 6.3.0
REM options -cpp -iprefix /gpfs/warwick/csc/orac/software/Core/GCCcore/6.3.0/bin/../lib/gcc/x86_64-pc-linux-gnu/6.3.0/ -mtune=generic -march=x86-64 -g -O0
REM seed 1115183465 1576771849 -59043006 1938217467 -1024894581 -467309681 488561311 1881415111 -1253437766 -954732187 -1028049499 -703802444
REM
REM C.POTCAR (d86ddea03c3ceb6dc662c8ad6801f873)
REM 
CELL 1.54180   15.00000   15.00000   15.00000   90.00000   90.00000   90.00000
LATT -1
SFAC C  
C      1  0.5928994505355  0.3454021410293  0.4614224583265 1.0
C      1  0.6738029808063  0.5482182659272  0.4635287252835 1.0
C      1  0.5111692258729  0.6767931505326  0.4601107930098 1.0
C      1  0.3302547220765  0.5640202403151  0.4597885474408 1.0
C      1  0.3801659190714  0.3635666588689  0.4666892849110 1.0
C      1  0.4454621376886  0.5593551814638  0.8296182814926 1.0
C      1  0.4303655984876  0.4631492224920  0.8305480591552 1.0
C      1  0.5179122892502  0.4188273673097  0.8280430465516 1.0
C      1  0.5873405429468  0.4872891379410  0.8279246749184 1.0
C      1  0.5419362646673  0.5746209592691  0.8292783079912 1.0
C      1  0.1465017995530  0.6059916920161  0.6205331630124 1.0
C      1  0.2878676378626  0.1978521225019  0.6296043415739 1.0
C      1  0.7145636448354  0.1942776405701  0.6168603349211 1.0
C      1  0.8479978778332  0.6347965772233  0.6176181389391 1.0
C      1  0.4866270204750  0.8702395986732  0.6115421782659 1.0
C      1  0.5081200581456  0.1367336135071  0.4800431761928 1.0
C      1  0.8449978295147  0.4107430376157  0.4949525118257 1.0
C      1  0.6978494938520  0.8133130906203  0.4912083287536 1.0
C      1  0.2681042322742  0.7813477394550  0.4886824920364 1.0
C      1  0.1510419414273  0.3686378015754  0.4909023865303 1.0
C      1  0.7513243805743  0.2493461041896  0.6804921227296 1.0
C      1  0.8005218774079  0.6798698752636  0.6820588593813 1.0
C      1  0.4302129734703  0.8401074115871  0.6776900508558 1.0
C      1  0.1564219367552  0.5396295234292  0.6833895572317 1.0
C      1  0.3586370140266  0.1836610752346  0.6859725244825 1.0
C      1  0.4803419731674  0.3418035911545  0.4276422428025 1.0
C      1  0.6460481277608  0.4371701716367  0.4269438818377 1.0
C      1  0.6021043233569  0.6208955201116  0.4264446520994 1.0
C      1  0.4133317976647  0.6324593916529  0.4245835884956 1.0
C      1  0.3437007991762  0.4604034822171  0.4252874368727 1.0
C      1  0.7109509165449  0.5793434882377  0.5532452666723 1.0
C      1  0.4945620011804  0.7244592877250  0.5473335123181 1.0
C      1  0.2843642893367  0.5651469708018  0.5500168368995 1.0
C      1  0.3665375556082  0.3204344863237  0.5576741924241 1.0
C      1  0.6341750569391  0.3153273553500  0.5499777997749 1.0
C      1  0.2369961650498  0.7713229069372  0.3503277533153 1.0
C      1  0.1569052796270  0.3228810085421  0.3539956519382 1.0
C      1  0.5436634386035  0.1270422858199  0.3421248195858 1.0
C      1  0.8736988029872  0.4385988836854  0.3612444583001 1.0
C      1  0.6820004676929  0.8385227340867  0.3510375714428 1.0
C      1  0.3677966760815  0.3386747132960  0.7501902185433 1.0
C      1  0.6148003608891  0.3231076523547  0.7398570167388 1.0
C      1  0.7089572149429  0.5526794363418  0.7456737151507 1.0
C      1  0.5173281433668  0.7115559722136  0.7464732348358 1.0
C      1  0.3075303605991  0.5792538845322  0.7464919924339 1.0
C      1  0.3333183613529  0.2778078212272  0.4076941317104 1.0
C      1  0.6518280628807  0.2874154662959  0.3939058645676 1.0
C      1  0.7498557848813  0.5862690899420  0.3983921524850 1.0
C      1  0.4993738323940  0.7584029024803  0.3919823428024 1.0
C      1  0.2381738235557  0.5751324108867  0.3950222838689 1.0
C      1  0.4749648260077  0.6651376859942  0.2342032460519 1.0
C      1  0.3672222281020  0.4613814121049  0.2500163786334 1.0
C      1  0.4179728723212  0.3711115166996  0.2257694389717 1.0
C      1  0.6390090723141  0.3809935916693  0.2341140546757 1.0
C      1  0.6616421360324  0.5820209970069  0.2390189235629 1.0
C      1  0.5888937918536  0.5393526518442  0.1977997013248 1.0
C      1  0.4972892052207  0.5787722947943  0.1984009079859 1.0
C      1  0.4372464427021  0.5062905586018  0.1898608861252 1.0
C      1  0.4859069983319  0.4233852345034  0.1848334580189 1.0
C      1  0.5802314968251  0.4417687615042  0.1941292262992 1.0
C      1  0.4536522997167  0.7892580363437  0.7584435241904 1.0
C      1  0.2145462316720  0.5434523585605  0.7624096887614 1.0
C      1  0.3749313015190  0.2386384484119  0.7651137121757 1.0
C      1  0.7062500409089  0.2900755611597  0.7594812920107 1.0
C      1  0.7615982015540  0.6382347730072  0.7613887483937 1.0
C      1  0.4727438789062  0.1656582233403  0.3902153250631 1.0
C      1  0.8155263360560  0.3778204574025  0.4103670247905 1.0
C      1  0.7171703415515  0.7683257660416  0.4035964633289 1.0
C      1  0.3154906982821  0.7830145460248  0.4006730582923 1.0
C      1  0.1740889218175  0.4045175161282  0.4010745215917 1.0
C      1  0.7482278896724  0.5660719556137  0.2914119870211 1.0
C      1  0.5110443844466  0.7481274407229  0.2823631031576 1.0
C      1  0.2470492786715  0.5755582592897  0.2932209589933 1.0
C      1  0.3137738056943  0.2901679359416  0.3123073151443 1.0
C      1  0.6449246633489  0.2908187819452  0.2821494657517 1.0
C      1  0.7013529295939  0.3740153133055  0.5942316325429 1.0
C      1  0.6707693982653  0.6506443577786  0.6086042800796 1.0
C      1  0.4182284540083  0.7088987498882  0.6058208611865 1.0
C      1  0.2744115666414  0.4849397491598  0.6062119272653 1.0
C      1  0.4419347701944  0.2811906902722  0.6066802089751 1.0
C      1  0.6309330251687  0.8597736639749  0.4333324392959 1.0
C      1  0.1980369601926  0.7339868928067  0.4339418914644 1.0
C      1  0.1731488203285  0.2825499299529  0.4444501977294 1.0
C      1  0.5932847909563  0.1335860118432  0.4274674060504 1.0
C      1  0.8792917588941  0.4902152700852  0.4444572441511 1.0
C      1  0.6464956136519  0.8387304112586  0.2656246310695 1.0
C      1  0.2299745627848  0.7352619768727  0.2646931149885 1.0
C      1  0.1433384739536  0.2836519347535  0.2627943329275 1.0
C      1  0.5780317391349  0.1405054068609  0.2566156045524 1.0
C      1  0.8907756378306  0.4697036474171  0.2746666854288 1.0
C      1  0.6754323100545  0.6416017160872  0.7860497455872 1.0
C      1  0.4216963818333  0.7087665727069  0.7842876003634 1.0
C      1  0.2810649126314  0.4876513017865  0.7859904687856 1.0
C      1  0.4483938094532  0.2853046109199  0.7858118541143 1.0
C      1  0.6917325640641  0.3775396869142  0.7797023321126 1.0
C      1  0.6711180522275  0.2220779838108  0.5423371496021 1.0
C      1  0.8110170157516  0.5932341660701  0.5470174918462 1.0
C      1  0.5134904756950  0.8232737799889  0.5392431872322 1.0
C      1  0.1960422693417  0.6156203427007  0.5462271589230 1.0
C      1  0.2888811519563  0.2527509063637  0.5591390675370 1.0
C      1  0.4893917470898  0.4225949750322  0.3731698612395 1.0
C      1  0.5738740681065  0.4682309591961  0.3682227781839 1.0
C      1  0.5511888191246  0.5603948706524  0.3674305117979 1.0
C      1  0.4546893878120  0.5619511977709  0.3708149934559 1.0
C      1  0.4098851251489  0.4758768046518  0.3462552905476 1.0
C      1  0.4015704731035  0.2956381887442  0.2818581756057 1.0
C      1  0.7148290335051  0.3622672841195  0.2799986642590 1.0
C      1  0.6991650561767  0.6554214064334  0.2782233808152 1.0
C      1  0.4160386603828  0.7205310861878  0.2749537411633 1.0
C      1  0.2745935570304  0.4884920584083  0.2822185320908 1.0
C      1  0.4375179950257  0.1839302728942  0.6256950886205 1.0
C      1  0.7824690347183  0.3250846633562  0.6313577755698 1.0
C      1  0.7305123684249  0.7269741471397  0.6300657491291 1.0
C      1  0.3628242130711  0.7894439611510  0.6263196810654 1.0
C      1  0.1804853727876  0.4605541151271  0.6288119914157 1.0
C      1  0.3959234381260  0.7301377735282  0.3751188497756 1.0
C      1  0.2484461511361  0.4664609523800  0.3798322400903 1.0
C      1  0.4363983137885  0.2575763097658  0.3743891095755 1.0
C      1  0.7217348908381  0.3688026534386  0.3811277136611 1.0
C      1  0.6947946023448  0.6746204963048  0.3783987087257 1.0
C      1  0.1858193384688  0.6430545908338  0.4521841693144 1.0
C      1  0.2573291692924  0.2493268231132  0.4677799493458 1.0
C      1  0.6582643691000  0.1982354712083  0.4466748005824 1.0
C      1  0.8349319686509  0.5710313718605  0.4549191284747 1.0
C      1  0.5411882541783  0.8364248582546  0.4458663445263 1.0
C      1  0.4037133085908  0.3567593860588  0.6534432649974 1.0
C      1  0.6123654924133  0.3629293464563  0.6411729978642 1.0
C      1  0.6663138418273  0.5626215472254  0.6503821063925 1.0
C      1  0.4954603563472  0.6736216945591  0.6520661510293 1.0
C      1  0.3337856882629  0.5487758411468  0.6492512594923 1.0
C      1  0.1459248455136  0.4037176665100  0.5714034333358 1.0
C      1  0.4765001436531  0.1374602361872  0.5618280202656 1.0
C      1  0.8024403002857  0.3906299697602  0.5769097439068 1.0
C      1  0.7204390014345  0.7936836956860  0.5734328321194 1.0
C      1  0.2956658905375  0.7980344407014  0.5702152176916 1.0
C      1  0.4566890641913  0.4361197824517  0.6373235669123 1.0
C      1  0.5508497580831  0.4367973079240  0.6335035566079 1.0
C      1  0.5782922819285  0.5253703972000  0.6363019793482 1.0
C      1  0.5012332776607  0.5797460261716  0.6354198644645 1.0
C      1  0.4262971825480  0.5248687785283  0.6347501537797 1.0
C      1  0.6278395713634  0.2058139470240  0.2455539216035 1.0
C      1  0.8271002001562  0.5240132052831  0.2629651951324 1.0
C      1  0.5692771522534  0.8142665498878  0.2475430319857 1.0
C      1  0.2373859189516  0.6551734846158  0.2459338049465 1.0
C      1  0.2287577396493  0.2982358145451  0.2761150715166 1.0
C      1  0.5310172200681  0.3318276889457  0.7946093634073 1.0
C      1  0.6751168193868  0.4718332496515  0.7963472062430 1.0
C      1  0.5817970707017  0.6544121332355  0.7991088182895 1.0
C      1  0.3821270096098  0.6227412436395  0.7983643861801 1.0
C      1  0.3501082240291  0.4228602360498  0.8016195249929 1.0
C      1  0.5050028799355  0.5023377583044  0.4470615106079 1.0
END
