TITL C-30346-9193-13 -3.568 3375.00 -577.91516945 0 0 71 (C1) n - 1
REM
REM Run started: at 2020.12.17 07:12:32 in /rds/project/t2_vol4/rds-t2-cs072/BORA/CARBON/AIRSS/Generating-Clusters/Str-Search/Higher-Symm/C10-100
REM VASP from code version vasp.5.4.4.18Apr17-6-g9f103f2a35 (build Oct 11 2019 16:45:47) gamma-only
REM
REM
REM
REM
REM ./C.cell (f39ce9773e2efe3fa5bbdf770a4156b8)
REM AIRSS Version 0.9.1 bugfix July 2018 build 013d7b7c2542+ Fri, 06 Jul 2018 19:26:36 +0100
REM compiler GCC version 4.8.5 20150623 (Red Hat 4.8.5-39)
REM options -cpp -mtune=generic -march=x86-64 -g -O0
REM seed 308765836 1839933622 -815921599 1558475565 2015967405 -1768627056 -1876951937 -1089419425 1931450785 1583458291 -752980957 -206827804
REM
REM C.POTCAR (d86ddea03c3ceb6dc662c8ad6801f873)
REM 
CELL 1.54180   15.00000   15.00000   15.00000   90.00000   90.00000   90.00000
LATT -1
SFAC C  
C      1  0.4012378715292  0.4885163566422  0.2368532903052 1.0
C      1  0.4029069349222  0.4834161889920  0.7460111952170 1.0
C      1  0.6123565496489  0.4989738762178  0.2391672368764 1.0
C      1  0.6077647518121  0.5237502034836  0.7556725976427 1.0
C      1  0.3850820890271  0.2412032539952  0.4975416056188 1.0
C      1  0.3964637590025  0.7737885713617  0.5199629272481 1.0
C      1  0.5917597063944  0.2370959960541  0.5056870962501 1.0
C      1  0.6074645584740  0.7637268702639  0.4950395770935 1.0
C      1  0.5487149955535  0.6844632747264  0.7800365456185 1.0
C      1  0.5293130204825  0.3438978174179  0.2124969864044 1.0
C      1  0.4535553042115  0.3215327957440  0.7712233783139 1.0
C      1  0.4398493462783  0.6573196737282  0.2367994724212 1.0
C      1  0.5273371571667  0.7943109611979  0.6572531341170 1.0
C      1  0.5666328814946  0.2370323427022  0.3356351702726 1.0
C      1  0.4760581110769  0.7648351080433  0.3569999517694 1.0
C      1  0.4713626971058  0.2080643563225  0.6529878442518 1.0
C      1  0.3185853419457  0.4925418397310  0.2783536227295 1.0
C      1  0.3160951664261  0.4882166698592  0.7151385451201 1.0
C      1  0.6954713027519  0.4910604683428  0.2812672746133 1.0
C      1  0.6951361403948  0.5213719333288  0.7281859155881 1.0
C      1  0.3026074000060  0.2859467475573  0.5018461100021 1.0
C      1  0.3171124660963  0.7282954668683  0.5157374818379 1.0
C      1  0.6743972754501  0.2792212670798  0.5068239326764 1.0
C      1  0.6877417459305  0.7174151595892  0.4971191279890 1.0
C      1  0.2328347332152  0.5068558284841  0.4280037692430 1.0
C      1  0.2293581359100  0.5054614382282  0.5673163670195 1.0
C      1  0.7687738281502  0.4930717529844  0.4373383948366 1.0
C      1  0.7704562138415  0.4991345241745  0.5762759038482 1.0
C      1  0.2248349903818  0.4381437973678  0.4966763007266 1.0
C      1  0.2356985010732  0.5770996705033  0.5001668714743 1.0
C      1  0.7644660339631  0.4264174589585  0.5103908027328 1.0
C      1  0.7697400653235  0.5657848006745  0.5017617745551 1.0
C      1  0.5455394478845  0.5945425905581  0.7640398843267 1.0
C      1  0.5584527024181  0.4297448770595  0.2048711687802 1.0
C      1  0.4623646322862  0.4126259017631  0.7634124322407 1.0
C      1  0.4563557617961  0.5672500566993  0.2366117675722 1.0
C      1  0.5597926690611  0.7907336843264  0.5722948420438 1.0
C      1  0.5404921775166  0.2343950966888  0.4242987511956 1.0
C      1  0.4471963637823  0.7818466529807  0.4398892081289 1.0
C      1  0.4367773504060  0.2079131764674  0.5698211876262 1.0
C      1  0.4750778575257  0.5451271839614  0.7071881454157 1.0
C      1  0.4695815374173  0.4143570641501  0.2547357658634 1.0
C      1  0.5398374974393  0.4601503322552  0.7133709885531 1.0
C      1  0.5438596029901  0.5514583637682  0.2834982757240 1.0
C      1  0.4681801134677  0.7490620019509  0.5888957570340 1.0
C      1  0.4479574009433  0.2730533909661  0.4326473137897 1.0
C      1  0.5330472921976  0.7278679439896  0.4334645315659 1.0
C      1  0.5266884805630  0.2545212655585  0.5817001864180 1.0
C      1  0.7399917768638  0.6522101913324  0.4965450406561 1.0
C      1  0.7293756688156  0.3419893104655  0.5125249233171 1.0
C      1  0.2498112439707  0.3493403178668  0.4963396657762 1.0
C      1  0.2665272634951  0.6618362373294  0.5067792996690 1.0
C      1  0.7453979041156  0.5059334392475  0.6629410018985 1.0
C      1  0.7419689114332  0.4908886190698  0.3496952090255 1.0
C      1  0.2664509768617  0.5011323176970  0.3432193739809 1.0
C      1  0.2622700049527  0.4994896556059  0.6525239727135 1.0
C      1  0.5256830192125  0.5100509827374  0.3744525435774 1.0
C      1  0.5467561569832  0.4310510053167  0.6193400551209 1.0
C      1  0.4845900030230  0.4281039817774  0.3548867093877 1.0
C      1  0.4692121172581  0.5694860437138  0.6099531966750 1.0
C      1  0.5140942321441  0.3540784379099  0.5795101978023 1.0
C      1  0.5165970439085  0.6388031604059  0.4786948062556 1.0
C      1  0.4540840126123  0.3713022700958  0.4245522164863 1.0
C      1  0.4813866717049  0.6506370559368  0.5687090756057 1.0
C      1  0.4511293287174  0.7296448297859  0.2767145184578 1.0
C      1  0.4561070778848  0.2466104031146  0.7356361733396 1.0
C      1  0.5578275835400  0.2699745705904  0.2600326201870 1.0
C      1  0.5464226071559  0.7561539340572  0.7377781289642 1.0
C      1  0.4682780225792  0.4037439396146  0.5120310261401 1.0
C      1  0.5308330997591  0.5483000758783  0.4620243177703 1.0
C      1  0.5021290102732  0.4957781666830  0.5465579165023 1.0
END
