TITL C-30330-4833-19 -3.608 3375.00 -598.36944354 0 0 74 (C2) n - 1
REM
REM Run started: at 2020.12.17 12:12:50 in /rds/project/t2_vol4/rds-t2-cs072/BORA/CARBON/AIRSS/Generating-Clusters/Str-Search/Higher-Symm/C10-100
REM VASP from code version vasp.5.4.4.18Apr17-6-g9f103f2a35 (build Oct 11 2019 16:45:47) gamma-only
REM
REM
REM
REM
REM ./C.cell (f39ce9773e2efe3fa5bbdf770a4156b8)
REM AIRSS Version 0.9.1 bugfix July 2018 build 013d7b7c2542+ Fri, 06 Jul 2018 19:26:36 +0100
REM compiler GCC version 4.8.5 20150623 (Red Hat 4.8.5-39)
REM options -cpp -mtune=generic -march=x86-64 -g -O0
REM seed 1141092573 699295596 62503878 -1882201489 -1410961543 1093569603 -1793773358 -10240498 1048226675 769955913 -524733374 -438799284
REM
REM C.POTCAR (d86ddea03c3ceb6dc662c8ad6801f873)
REM 
CELL 1.54180   15.00000   15.00000   15.00000   90.00000   90.00000   90.00000
LATT -1
SFAC C  
C      1  0.6064539008684  0.6944097204249  0.3420301785767 1.0
C      1  0.3935456109972  0.6944087991257  0.6579708650674 1.0
C      1  0.3053279080075  0.3287947180733  0.5635828779926 1.0
C      1  0.6946710944730  0.3287980739873  0.4364165774772 1.0
C      1  0.5210494164431  0.2692275708972  0.5431963547319 1.0
C      1  0.4789516405208  0.2692275114068  0.4568027957849 1.0
C      1  0.3913366956267  0.7395229073704  0.4309337929983 1.0
C      1  0.6086614626913  0.7395240466300  0.5690687028799 1.0
C      1  0.3967326358433  0.6055107649957  0.2708922380866 1.0
C      1  0.6032670794723  0.6055096442542  0.7291093501075 1.0
C      1  0.4742338726472  0.5113072171798  0.7613872998593 1.0
C      1  0.5257650732012  0.5113089878806  0.2386122967191 1.0
C      1  0.5336423364229  0.2952260747621  0.3794150513073 1.0
C      1  0.4663572166656  0.2952250185297  0.6205840366047 1.0
C      1  0.5490066214269  0.7612180428519  0.3701864172630 1.0
C      1  0.4509931104392  0.7612179778260  0.6298116799306 1.0
C      1  0.5476864492793  0.6169023212756  0.3488609937011 1.0
C      1  0.4523132905847  0.6169004167718  0.6511397020112 1.0
C      1  0.5196206167525  0.3434800462688  0.6812592457812 1.0
C      1  0.4803779724295  0.3434820890309  0.3187395539445 1.0
C      1  0.3173610150004  0.4700037729052  0.6853267212952 1.0
C      1  0.6826376188385  0.4700068738665  0.3146711449238 1.0
C      1  0.7481857728032  0.5214588713013  0.6517483032882 1.0
C      1  0.2518127364978  0.5214587370956  0.3482528963338 1.0
C      1  0.4862177991045  0.5955893969570  0.2722694725532 1.0
C      1  0.5137811229441  0.5955868228474  0.7277322137611 1.0
C      1  0.4858286471787  0.4364424146709  0.6941684693945 1.0
C      1  0.5141712498086  0.4364437488853  0.3058303878657 1.0
C      1  0.2931881825284  0.6045566495630  0.4939981206470 1.0
C      1  0.7068128514863  0.6045577336788  0.5060039439727 1.0
C      1  0.6699237735304  0.3947639790210  0.6894045468471 1.0
C      1  0.3300761562866  0.3947636608199  0.3105963728954 1.0
C      1  0.7374436593920  0.6102573380198  0.4106071781719 1.0
C      1  0.2625565451137  0.6102571661524  0.5893953641775 1.0
C      1  0.3527827697572  0.4826284922863  0.3461051533682 1.0
C      1  0.6472172194917  0.4826278772768  0.6538952011382 1.0
C      1  0.2182570683654  0.4588932428968  0.4865789405838 1.0
C      1  0.7817459472014  0.4588929106121  0.5134220485091 1.0
C      1  0.6102113564529  0.3270703242085  0.6616721394058 1.0
C      1  0.3897868132980  0.3270711003668  0.3383270169572 1.0
C      1  0.6151969215991  0.5519080221579  0.4981097175511 1.0
C      1  0.3848038802686  0.5519078268101  0.5018904175969 1.0
C      1  0.3996399625777  0.4681233133206  0.7346295564248 1.0
C      1  0.6003598352381  0.4681251171243  0.2653678389451 1.0
C      1  0.5907566952634  0.4971642276158  0.5747946739834 1.0
C      1  0.4092435279734  0.4971645779480  0.4252047438583 1.0
C      1  0.3308895530937  0.6876373034629  0.4562531322659 1.0
C      1  0.6691179639814  0.6876361601454  0.5437456638915 1.0
C      1  0.4682562709284  0.7684194773452  0.3958246918912 1.0
C      1  0.5317438876156  0.7684182292624  0.6041735805210 1.0
C      1  0.6192948590023  0.2888977614812  0.5735988543843 1.0
C      1  0.3807048078743  0.2888967338944  0.4264006574195 1.0
C      1  0.3076017887025  0.6523273023460  0.6580803295360 1.0
C      1  0.6924001136095  0.6523284249769  0.3419206478655 1.0
C      1  0.7019033426946  0.3193989551952  0.5298059666889 1.0
C      1  0.2980964450394  0.3193972818904  0.4701927327587 1.0
C      1  0.3749589382061  0.3157687115890  0.6219824623184 1.0
C      1  0.6250409498280  0.3157716630861  0.3780175989964 1.0
C      1  0.7677949790016  0.3834755953118  0.5680715049234 1.0
C      1  0.2322055833897  0.3834758992173  0.4319284577515 1.0
C      1  0.7659578809489  0.5400658382517  0.5585503390715 1.0
C      1  0.2340422931976  0.5400667777188  0.4414504053098 1.0
C      1  0.3239842980018  0.5622849386744  0.2934088557646 1.0
C      1  0.6760157441955  0.5622855650538  0.7065907091304 1.0
C      1  0.3121151523305  0.3856150192867  0.6386468415716 1.0
C      1  0.6878845367408  0.3856175658887  0.3613516789758 1.0
C      1  0.2813385205615  0.5563685548610  0.6641964667988 1.0
C      1  0.7186601437200  0.5563708187093  0.3358045344030 1.0
C      1  0.4965782499547  0.4827610885190  0.3977419605633 1.0
C      1  0.5034211759975  0.4827606247893  0.6022575882968 1.0
C      1  0.4414589879200  0.5554096635606  0.5790100965496 1.0
C      1  0.5585418528429  0.5554103854799  0.4209909953027 1.0
C      1  0.7557869234035  0.4171041593020  0.6586092320011 1.0
C      1  0.2442116244249  0.4171035527495  0.3413914197748 1.0
END
