TITL C-30219-7198-36 -1.552 3375.00 -241.39263324 0 0 30 (D3h) n - 1
REM
REM Run started: at 2020.12.17 13:26:48 in /rds/project/t2_vol4/rds-t2-cs072/BORA/CARBON/AIRSS/Generating-Clusters/Str-Search/Higher-Symm/C10-100
REM VASP from code version vasp.5.4.4.18Apr17-6-g9f103f2a35 (build Oct 11 2019 16:45:47) gamma-only
REM
REM
REM
REM
REM ./C.cell (f39ce9773e2efe3fa5bbdf770a4156b8)
REM AIRSS Version 0.9.1 bugfix July 2018 build 013d7b7c2542+ Fri, 06 Jul 2018 19:26:36 +0100
REM compiler GCC version 4.8.5 20150623 (Red Hat 4.8.5-39)
REM options -cpp -mtune=generic -march=x86-64 -g -O0
REM seed -760586614 -433485668 -1619365849 1886280523 1833024673 1647574093 1703837235 -451212497 -1593181376 317548098 1520103769 423565043
REM
REM C.POTCAR (d86ddea03c3ceb6dc662c8ad6801f873)
REM 
CELL 1.54180   15.00000   15.00000   15.00000   90.00000   90.00000   90.00000
LATT -1
SFAC C  
C      1  0.4553852324698  0.3138166433339  0.3438960552627 1.0
C      1  0.4554051113829  0.4568661730706  0.7387228835373 1.0
C      1  0.4554027807851  0.7287912898640  0.4184872793359 1.0
C      1  0.5446147478701  0.3138166967927  0.3438958878338 1.0
C      1  0.5445947780195  0.4568661601814  0.7387225945894 1.0
C      1  0.5445971769041  0.7287912945523  0.4184870583416 1.0
C      1  0.5418485280105  0.3571166283898  0.5516162243875 1.0
C      1  0.5418642646836  0.6163474558281  0.5976686000362 1.0
C      1  0.5418760909495  0.5267868497719  0.3501479038433 1.0
C      1  0.4581514738365  0.3571165702499  0.5516161967010 1.0
C      1  0.4581357519138  0.6163474609278  0.5976686504019 1.0
C      1  0.4581239895267  0.5267869002692  0.3501479246174 1.0
C      1  0.3835502743759  0.5165269059775  0.4066450980092 1.0
C      1  0.3834961550445  0.4108885901079  0.5322629434811 1.0
C      1  0.3834115346387  0.5725925877653  0.5608786923734 1.0
C      1  0.6164498428614  0.5165268026593  0.4066450105118 1.0
C      1  0.6165038277449  0.4108885735637  0.5322628501256 1.0
C      1  0.6165885095727  0.5725925916875  0.5608786248530 1.0
C      1  0.3697284518435  0.5922260395941  0.4664757848578 1.0
C      1  0.3697180186259  0.4248737370338  0.4368003012559 1.0
C      1  0.3697017434448  0.4829483450666  0.5964470303929 1.0
C      1  0.6302716125585  0.5922259895398  0.4664756744996 1.0
C      1  0.6302820246891  0.4248736588582  0.4368002376937 1.0
C      1  0.6302982163877  0.4829483372320  0.5964469002453 1.0
C      1  0.6068515565790  0.4673804747204  0.6842992095911 1.0
C      1  0.6066869638878  0.6761566077938  0.4364295412881 1.0
C      1  0.6068244548424  0.3566816968509  0.3792227341321 1.0
C      1  0.3931484628981  0.4673804943326  0.6842992821141 1.0
C      1  0.3933128401638  0.6761567364923  0.4364299156913 1.0
C      1  0.3931755834893  0.3566817074925  0.3792229099960 1.0
END
