TITL C-30346-9193-39 -1.473 3375.00 -251.34664205 0 0 30 (C3v) n - 1
REM
REM Run started: at 2020.12.17 13:18:14 in /rds/project/t2_vol4/rds-t2-cs072/BORA/CARBON/AIRSS/Generating-Clusters/Str-Search/Higher-Symm/C10-100
REM VASP from code version vasp.5.4.4.18Apr17-6-g9f103f2a35 (build Oct 11 2019 16:45:47) gamma-only
REM
REM
REM
REM
REM ./C.cell (f39ce9773e2efe3fa5bbdf770a4156b8)
REM AIRSS Version 0.9.1 bugfix July 2018 build 013d7b7c2542+ Fri, 06 Jul 2018 19:26:36 +0100
REM compiler GCC version 4.8.5 20150623 (Red Hat 4.8.5-39)
REM options -cpp -mtune=generic -march=x86-64 -g -O0
REM seed -1231674663 -170190240 827072733 1705420789 -963731446 2130587299 537006583 1424428595 -1763876125 1129194387 -1908135732 1251007706
REM
REM C.POTCAR (d86ddea03c3ceb6dc662c8ad6801f873)
REM 
CELL 1.54180   15.00000   15.00000   15.00000   90.00000   90.00000   90.00000
LATT -1
SFAC C  
C      1  0.5929282329246  0.5186842502552  0.3575494029006 1.0
C      1  0.4699460233885  0.4101910552988  0.3575081362932 1.0
C      1  0.4374209515978  0.5708918516587  0.3574322807249 1.0
C      1  0.4509548855452  0.3535202848586  0.4323507488724 1.0
C      1  0.3975283193774  0.6158265851808  0.4320936468016 1.0
C      1  0.6518648634652  0.5307643353274  0.4322298317525 1.0
C      1  0.6570261929861  0.4808129730472  0.5751422426349 1.0
C      1  0.4048099042824  0.3738307225050  0.5750673299462 1.0
C      1  0.4380902139631  0.6452953274942  0.5749015008473 1.0
C      1  0.3627550041952  0.5791624765878  0.5749595045037 1.0
C      1  0.6371690347360  0.5790604557527  0.5751041308118 1.0
C      1  0.4998866081226  0.3420378139811  0.5751529951010 1.0
C      1  0.5209879586435  0.4057474884990  0.6439911735019 1.0
C      1  0.4073498174825  0.5289533830958  0.6438539727048 1.0
C      1  0.5711600809143  0.5655341363573  0.6437516560109 1.0
C      1  0.5491544961718  0.6463038365814  0.4415852100388 1.0
C      1  0.6024754865165  0.3842243677887  0.4417044584488 1.0
C      1  0.3483828966373  0.4692562896421  0.4414753730195 1.0
C      1  0.4645839516977  0.6623155923950  0.4851789188621 1.0
C      1  0.6586779271751  0.4495006591212  0.4853226216060 1.0
C      1  0.3768676943773  0.3880760223335  0.4852636036705 1.0
C      1  0.4058395554989  0.4808576663390  0.3603197698372 1.0
C      1  0.5307140795306  0.5911240919335  0.3603152708885 1.0
C      1  0.5637622476984  0.4278501696566  0.3604206115057 1.0
C      1  0.3427077409104  0.5551612919874  0.4850981652411 1.0
C      1  0.6264801816095  0.6084694225391  0.4852408162140 1.0
C      1  0.5308655903192  0.3365237277367  0.4853888939974 1.0
C      1  0.4259352822503  0.4374878988095  0.6439607416622 1.0
C      1  0.4825891256697  0.5950957992661  0.6437407692728 1.0
C      1  0.5910854523129  0.4674400239708  0.6438959223276 1.0
END
