TITL C-30025-7149-5 -7.317 3375.00 -1576.02495984 0 0 191 (C1) n - 1
REM
REM Run started: at 2020.12.27 19:05:42 in /rds/project/t2_vol4/rds-t2-cs072/BORA/CARBON/AIRSS/Generating-Clusters/Str-Search/Higher-Symm/C100-200
REM VASP from code version vasp.5.4.4.18Apr17-6-g9f103f2a35 (build Oct 11 2019 16:45:47) gamma-only
REM
REM
REM
REM
REM ./C.cell (533062f00bc710175b3da973d35f2034)
REM AIRSS Version 0.9.1 bugfix July 2018 build 013d7b7c2542+ Fri, 06 Jul 2018 19:26:36 +0100
REM compiler GCC version 4.8.5 20150623 (Red Hat 4.8.5-39)
REM options -cpp -mtune=generic -march=x86-64 -g -O0
REM seed 1826898000 -238408503 1083056626 -665823344 -2118545292 -895930441 -1215546984 1189427293 -1877932020 577251798 -2005474775 -1563730266
REM
REM C.POTCAR (d86ddea03c3ceb6dc662c8ad6801f873)
REM 
CELL 1.54180   15.00000   15.00000   15.00000   90.00000   90.00000   90.00000
LATT -1
SFAC C  
C      1  0.4843618327019  0.6753365810757  0.8935295561115 1.0
C      1  0.4859196977986  0.3259504990265  0.1128061179071 1.0
C      1  0.5487043676364  0.3233005895035  0.8913221104228 1.0
C      1  0.5468039917599  0.6808631745120  0.1085024245925 1.0
C      1  0.4503285077187  0.8422711970173  0.3916289854454 1.0
C      1  0.4532070045228  0.1598453764359  0.6134296131827 1.0
C      1  0.5632056016425  0.1555325605051  0.3769866658021 1.0
C      1  0.5669754961902  0.8527356496014  0.6255493806937 1.0
C      1  0.8321385976563  0.5648447098590  0.6208264728013 1.0
C      1  0.7981567917493  0.4412998942990  0.3713576276309 1.0
C      1  0.1976282078601  0.4352254659018  0.6435256243674 1.0
C      1  0.1614491115801  0.5527706812639  0.3637836067122 1.0
C      1  0.3645313893961  0.3924360783460  0.0271272537472 1.0
C      1  0.3643819899263  0.6097110656665  0.9859933371817 1.0
C      1  0.6723922273763  0.6160053359912  0.0182874158834 1.0
C      1  0.6720070729680  0.3919426287817  0.9753603653613 1.0
C      1  0.7576699252323  0.5152321530878  0.2439158719831 1.0
C      1  0.7634984078159  0.4883597581336  0.7468280648387 1.0
C      1  0.2473452942681  0.4910908214411  0.2383532557454 1.0
C      1  0.2489723223935  0.5127106427430  0.7787543034438 1.0
C      1  0.4695562642504  0.6530871400643  0.0936405129621 1.0
C      1  0.4743576099527  0.3479114715441  0.9200132158060 1.0
C      1  0.5595883834526  0.3498549098903  0.0802731377033 1.0
C      1  0.5619893435328  0.6524319066056  0.9144990722997 1.0
C      1  0.3739571380055  0.5740588746296  0.5420193679635 1.0
C      1  0.3386421205218  0.3910342287036  0.4493059183963 1.0
C      1  0.6472442618553  0.4121175472827  0.5361449589875 1.0
C      1  0.6233117551287  0.5926871709899  0.4783002202713 1.0
C      1  0.3617494723134  0.2753829813375  0.5506375652224 1.0
C      1  0.3610851273426  0.6868256347998  0.4411625188583 1.0
C      1  0.6448439058617  0.7173546909268  0.5611009135710 1.0
C      1  0.6448849060169  0.2935711701297  0.4361816035660 1.0
C      1  0.6156048275985  0.7873597102162  0.3300176107540 1.0
C      1  0.6192062070802  0.2214346613340  0.6679539251258 1.0
C      1  0.3310944390243  0.2533024617288  0.3041987147522 1.0
C      1  0.3264470806758  0.7365670042505  0.6922563750129 1.0
C      1  0.2523754043158  0.4716440186360  0.5783281031879 1.0
C      1  0.2113455071702  0.4898376984064  0.4142516120683 1.0
C      1  0.7736648605765  0.5154376114827  0.5691333281140 1.0
C      1  0.7448209561363  0.5221242902249  0.4011744884329 1.0
C      1  0.4135743532197  0.6426820633468  0.2435693898955 1.0
C      1  0.4207633473063  0.3584750276524  0.7634788953100 1.0
C      1  0.5973456008709  0.3633826561400  0.2452699516128 1.0
C      1  0.5997061906968  0.6418998635855  0.7529753883226 1.0
C      1  0.4132371446324  0.2001008398400  0.6962186506554 1.0
C      1  0.4081269380127  0.8026672996611  0.3086042901280 1.0
C      1  0.6121121450245  0.8060294662762  0.7043238223397 1.0
C      1  0.6050097634219  0.2001253976456  0.2953392513005 1.0
C      1  0.5653950829191  0.7272714038370  0.7250006645068 1.0
C      1  0.5597691216298  0.2802853916487  0.2777988676222 1.0
C      1  0.4540756147186  0.2840633220754  0.7166639687472 1.0
C      1  0.4465449350507  0.7191515116559  0.2869985088898 1.0
C      1  0.6954224528194  0.5732420238769  0.8579287548211 1.0
C      1  0.6899179444529  0.4309250339355  0.1355020845936 1.0
C      1  0.3348122516630  0.4240672173462  0.8739519855366 1.0
C      1  0.3271810723258  0.5751336886834  0.1369981735124 1.0
C      1  0.2985954821684  0.4368544499496  0.2947982029595 1.0
C      1  0.2856138020936  0.5950975056387  0.7390469304937 1.0
C      1  0.7250604746518  0.5720549392765  0.3112134302284 1.0
C      1  0.7097615564862  0.4372803752930  0.6889053048430 1.0
C      1  0.7661092448367  0.3451839058765  0.2514063067489 1.0
C      1  0.7719656756910  0.6537454384910  0.7392681939385 1.0
C      1  0.2423497381241  0.6524022977975  0.2536210285540 1.0
C      1  0.2525119593722  0.3452944765311  0.7593647179688 1.0
C      1  0.4450240259089  0.6436532667612  0.4204223319796 1.0
C      1  0.4316810821828  0.3407829113328  0.5703129368926 1.0
C      1  0.5694171985791  0.3429362848690  0.4092316947578 1.0
C      1  0.5555202909564  0.6819278867853  0.5879383362906 1.0
C      1  0.6859359397116  0.3643522197353  0.2056361429829 1.0
C      1  0.6909808533148  0.6367972841792  0.7859694993531 1.0
C      1  0.3234138546396  0.6384940925170  0.2071870445334 1.0
C      1  0.3335087889464  0.3598730423785  0.8045000738566 1.0
C      1  0.8106577949749  0.2822694597513  0.6356918225064 1.0
C      1  0.8016599995185  0.7176862603624  0.3543861271737 1.0
C      1  0.1306565121704  0.7174436359743  0.6336566984542 1.0
C      1  0.1556766611148  0.2755279811574  0.3833933408724 1.0
C      1  0.8099262180688  0.5679407953440  0.7129224921850 1.0
C      1  0.7945157095244  0.4335719902808  0.2793382845826 1.0
C      1  0.2180012233457  0.4343480647373  0.7362123688438 1.0
C      1  0.2002371224697  0.5669239581908  0.2769879151687 1.0
C      1  0.2104316793357  0.2543488084570  0.6175862943687 1.0
C      1  0.2110452451157  0.7362471710479  0.3999448561784 1.0
C      1  0.8006525245453  0.7484442970687  0.5930109481307 1.0
C      1  0.7980001456178  0.2531751056160  0.3975059694968 1.0
C      1  0.3889838572583  0.4041527688627  0.2761415817624 1.0
C      1  0.3835026202441  0.6009529517634  0.7299024909138 1.0
C      1  0.6319401730063  0.6071302520456  0.2953493300066 1.0
C      1  0.6224951529229  0.3977875773994  0.7129568138451 1.0
C      1  0.6939083423495  0.8052468357665  0.2667784804818 1.0
C      1  0.6974383469948  0.2145836938541  0.7344408609109 1.0
C      1  0.2500283077771  0.2764084960486  0.2630043016287 1.0
C      1  0.2513464875696  0.6802571410314  0.7244701649477 1.0
C      1  0.6737128472895  0.8066071925218  0.4099618291636 1.0
C      1  0.6758819897473  0.1977783877877  0.5872748473434 1.0
C      1  0.3181221298938  0.1986623079736  0.3886958480871 1.0
C      1  0.3231424044622  0.7779152562941  0.6066690403830 1.0
C      1  0.1009302201434  0.4727430915027  0.5275716923952 1.0
C      1  0.0505507552870  0.5425060316271  0.4930706888047 1.0
C      1  0.9530177537750  0.5464004404564  0.4989342202295 1.0
C      1  0.8914768157959  0.4822997199456  0.4728834938229 1.0
C      1  0.1066800238066  0.6053787715412  0.4303909510266 1.0
C      1  0.1223645828672  0.3916605808958  0.5869083169239 1.0
C      1  0.8607351813205  0.4000438307986  0.4337447266001 1.0
C      1  0.8780777089351  0.6100484248195  0.5374462663096 1.0
C      1  0.2405790853659  0.7288670750029  0.3095719937228 1.0
C      1  0.2462587911453  0.2679084401814  0.7048060887099 1.0
C      1  0.7717807455247  0.2668109733578  0.3044717993880 1.0
C      1  0.7768002916148  0.7332947488728  0.6872670100997 1.0
C      1  0.4897092903287  0.7250984594537  0.6604223056645 1.0
C      1  0.4874935490852  0.2841076491583  0.3466504073100 1.0
C      1  0.4939829616676  0.3234340291978  0.6354796983942 1.0
C      1  0.5010575972158  0.6813805139821  0.3586492467618 1.0
C      1  0.3268764418154  0.5821794846976  0.9071537595226 1.0
C      1  0.3250581334802  0.4161077392227  0.1073354518122 1.0
C      1  0.7048873227964  0.4153249353627  0.8912373193805 1.0
C      1  0.7027229881608  0.5906078390341  0.1020899026029 1.0
C      1  0.3847332623768  0.1726030405008  0.5384705191354 1.0
C      1  0.3867850948509  0.8327777055029  0.4659723523286 1.0
C      1  0.6297209644578  0.8631263599597  0.5531313144191 1.0
C      1  0.6279721239025  0.1428319251350  0.4456086240836 1.0
C      1  0.8318847859427  0.7328852699697  0.4388951424151 1.0
C      1  0.8365248186308  0.2785274349344  0.5496908959933 1.0
C      1  0.1521819963334  0.2631637816091  0.4717542753216 1.0
C      1  0.1687043785725  0.7129717763560  0.5485398757194 1.0
C      1  0.5482541523453  0.5599807099734  0.7471137112258 1.0
C      1  0.5522666396155  0.4476770178195  0.2540500727500 1.0
C      1  0.4662670285391  0.4431511355593  0.7521192471725 1.0
C      1  0.4682040169501  0.5620863930678  0.2516571375753 1.0
C      1  0.5908949970206  0.6880910889193  0.3281243252750 1.0
C      1  0.5832993075516  0.3191495993176  0.6717908138245 1.0
C      1  0.4029441558873  0.3159635474931  0.3068975246459 1.0
C      1  0.4068348963001  0.6876319130884  0.7002448964470 1.0
C      1  0.7721892081569  0.2500151530883  0.7140465569975 1.0
C      1  0.7666065784417  0.7628119933946  0.2800419814393 1.0
C      1  0.1625641696823  0.7122713867260  0.7115307187179 1.0
C      1  0.1707873986593  0.2652088813884  0.2951018187999 1.0
C      1  0.6760045387854  0.6731165162832  0.4860590325552 1.0
C      1  0.6788527015088  0.3289893726218  0.5162276858918 1.0
C      1  0.3098502264266  0.3107386383605  0.4771266937309 1.0
C      1  0.3233280923396  0.6530404537835  0.5169647269869 1.0
C      1  0.8499018061787  0.3065928961626  0.4567993464098 1.0
C      1  0.8547340610188  0.7070000930643  0.5283006559161 1.0
C      1  0.1492147722664  0.6870181315227  0.4557378889650 1.0
C      1  0.1479058264931  0.3027273349992  0.5613280551699 1.0
C      1  0.2897318962220  0.5043195040672  0.8639976012221 1.0
C      1  0.2856038654332  0.4937591549879  0.1497505460840 1.0
C      1  0.7335577198981  0.4915054559949  0.8399681640479 1.0
C      1  0.7275146834423  0.5132740076228  0.1527080873238 1.0
C      1  0.4769192633530  0.1926142583529  0.3893943783922 1.0
C      1  0.4792428925325  0.8153176933878  0.6150585975860 1.0
C      1  0.5445009998699  0.8455213455492  0.3907160494625 1.0
C      1  0.5456626068508  0.1591154150585  0.6100901049671 1.0
C      1  0.4521503588261  0.5403421119803  0.7462928308000 1.0
C      1  0.4567158700153  0.4648144650601  0.2587557129324 1.0
C      1  0.5607611489095  0.4605542917207  0.7407367608257 1.0
C      1  0.5657163324769  0.5465044876700  0.2629532886321 1.0
C      1  0.5443329170332  0.6090511151551  0.5334556115823 1.0
C      1  0.5755686754254  0.4369654291225  0.4593882154013 1.0
C      1  0.4101769868340  0.4228478268146  0.5167576803307 1.0
C      1  0.4626918038229  0.5727091930958  0.4926276409788 1.0
C      1  0.3957334933751  0.3931841275344  0.9413109986707 1.0
C      1  0.3913960302868  0.6077271749672  0.0726874301239 1.0
C      1  0.6428994060216  0.6106326976637  0.9310616571456 1.0
C      1  0.6387895811008  0.3949081820770  0.0613460060510 1.0
C      1  0.2618766864798  0.7192590766244  0.5573453439707 1.0
C      1  0.2455555345968  0.2465998544675  0.4391444666706 1.0
C      1  0.7381494132753  0.2664223760366  0.5636761802293 1.0
C      1  0.7325414268406  0.7333824474943  0.4304226799095 1.0
C      1  0.7014167870615  0.2086486574744  0.4092501089445 1.0
C      1  0.7050254758584  0.7979679271716  0.5864019933049 1.0
C      1  0.3106380328937  0.7759373231244  0.4203683484686 1.0
C      1  0.2984934512039  0.2031662351563  0.5939373463984 1.0
C      1  0.3979729886371  0.8210620190955  0.5615306389700 1.0
C      1  0.3935164471679  0.1704268864338  0.4364280220804 1.0
C      1  0.6138251908528  0.1490642762206  0.5398084469369 1.0
C      1  0.6135045758896  0.8576758461961  0.4588637204220 1.0
C      1  0.6312542278570  0.6504364120973  0.0946056001489 1.0
C      1  0.6340153538737  0.3551639221398  0.8986349161423 1.0
C      1  0.4012374315821  0.3602719372184  0.1056809987347 1.0
C      1  0.4013109365088  0.6401207342170  0.9067455889155 1.0
C      1  0.3173948244534  0.7857037769172  0.3220833772390 1.0
C      1  0.3212371358817  0.2068676583242  0.6892364261080 1.0
C      1  0.6968126486508  0.2093321109121  0.3107927917587 1.0
C      1  0.7035803284905  0.7933744050948  0.6847323255569 1.0
C      1  0.7064467994386  0.4594032038378  0.5974319969677 1.0
C      1  0.6456347718739  0.5128011007626  0.4375859891540 1.0
C      1  0.3475463528558  0.4912840630328  0.5659173364882 1.0
C      1  0.2860090410323  0.4424485118940  0.3855692048076 1.0
C      1  0.8089206214827  0.5426370760837  0.4825304737753 1.0
C      1  0.1933210035078  0.4818102559118  0.5049529045100 1.0
C      1  0.4858103099081  0.4753820181355  0.4804651329130 1.0
END
