TITL C-30219-7198-17 -3.131 3375.00 -526.37767147 0 0 66 (C3) n - 1
REM
REM Run started: at 2020.12.17 08:09:37 in /rds/project/t2_vol4/rds-t2-cs072/BORA/CARBON/AIRSS/Generating-Clusters/Str-Search/Higher-Symm/C10-100
REM VASP from code version vasp.5.4.4.18Apr17-6-g9f103f2a35 (build Oct 11 2019 16:45:47) gamma-only
REM
REM
REM
REM
REM ./C.cell (f39ce9773e2efe3fa5bbdf770a4156b8)
REM AIRSS Version 0.9.1 bugfix July 2018 build 013d7b7c2542+ Fri, 06 Jul 2018 19:26:36 +0100
REM compiler GCC version 4.8.5 20150623 (Red Hat 4.8.5-39)
REM options -cpp -mtune=generic -march=x86-64 -g -O0
REM seed 2114629307 -438771031 -1386578378 1520002214 -2031081044 -684227007 397847498 102613283 1777292746 1568341070 -1410677717 1332128980
REM
REM C.POTCAR (d86ddea03c3ceb6dc662c8ad6801f873)
REM 
CELL 1.54180   15.00000   15.00000   15.00000   90.00000   90.00000   90.00000
LATT -1
SFAC C  
C      1  0.6658584436812  0.3524210514148  0.4251591322385 1.0
C      1  0.5448048165771  0.7175418324356  0.4251710782472 1.0
C      1  0.2890983263253  0.4300996748608  0.4251836072838 1.0
C      1  0.4058789970823  0.5642154573900  0.6843818121461 1.0
C      1  0.4914377740616  0.3863238572429  0.6847011079463 1.0
C      1  0.6031653456957  0.5493532530455  0.6849703095175 1.0
C      1  0.4026140439998  0.5427116866724  0.3072138900729 1.0
C      1  0.5116877371017  0.3944045162305  0.3074693688291 1.0
C      1  0.5855103873281  0.5629371448178  0.3072467555185 1.0
C      1  0.5989970567894  0.2896243687338  0.3922230210078 1.0
C      1  0.6325592198329  0.6908693677573  0.3922227773548 1.0
C      1  0.2679866766020  0.5192641133564  0.3920421452821 1.0
C      1  0.2426129767448  0.5221695975919  0.5610813551803 1.0
C      1  0.6095908778516  0.2660981644497  0.5609750619866 1.0
C      1  0.6479166309802  0.7116548299043  0.5610575267869 1.0
C      1  0.4590805337464  0.2577363779316  0.4911983115091 1.0
C      1  0.7307715230926  0.5856690411446  0.4911614180169 1.0
C      1  0.3102441059073  0.6567029643630  0.4911961122054 1.0
C      1  0.4086897028612  0.7105359364546  0.6062034339857 1.0
C      1  0.3631915375968  0.3156857708016  0.6062283847679 1.0
C      1  0.7282747677889  0.4736308715503  0.6061811629541 1.0
C      1  0.6636932598370  0.3174843012239  0.6165259457355 1.0
C      1  0.5762804338333  0.7328036165687  0.6165622924210 1.0
C      1  0.2603506205166  0.4496678296815  0.6166085498339 1.0
C      1  0.5521998197965  0.5229411118221  0.7625867316703 1.0
C      1  0.4538808440118  0.5337673073940  0.7623077586445 1.0
C      1  0.4936948990660  0.4432347731838  0.7625507725210 1.0
C      1  0.6410063367946  0.2656400961847  0.4686619429037 1.0
C      1  0.6323961194422  0.7390220039798  0.4688093115632 1.0
C      1  0.2265453414827  0.4951539742550  0.4687701900460 1.0
C      1  0.3004850046432  0.3785063848949  0.6331796913827 1.0
C      1  0.7047821226222  0.3880974029179  0.6331130775522 1.0
C      1  0.4945718396328  0.7332245351098  0.6330510332438 1.0
C      1  0.5465103911366  0.5316082320397  0.6107479446985 1.0
C      1  0.4501194334160  0.5240832987081  0.6103481446957 1.0
C      1  0.5047950728403  0.4443939623574  0.6105636089757 1.0
C      1  0.3869939257360  0.7223572699132  0.3985922293641 1.0
C      1  0.3636569881688  0.2908513657999  0.3985522557414 1.0
C      1  0.7492515723230  0.4863446055975  0.3984613893551 1.0
C      1  0.4717336029432  0.6966507813009  0.3633758752776 1.0
C      1  0.3438739811699  0.3773224565630  0.3635393137252 1.0
C      1  0.6842719296855  0.4260087217203  0.3634086527688 1.0
C      1  0.3783449961456  0.4061768600066  0.4662165622883 1.0
C      1  0.6421481902328  0.4417588431820  0.4662185649932 1.0
C      1  0.4792097727515  0.6524246287965  0.4661945925578 1.0
C      1  0.5200623029176  0.3069599114913  0.3456642736677 1.0
C      1  0.6570108197968  0.6139026173695  0.3456315068229 1.0
C      1  0.3226188054875  0.5789604750255  0.3455916566937 1.0
C      1  0.3952285358927  0.7046052986287  0.5053375222969 1.0
C      1  0.3751269864369  0.3074490718060  0.5053011207148 1.0
C      1  0.7296118663933  0.4880606347615  0.5052779346528 1.0
C      1  0.3557923469411  0.6357684845119  0.6369887987500 1.0
C      1  0.4545230888153  0.3074901825930  0.6369808037127 1.0
C      1  0.6899107750272  0.5569431632895  0.6370294191800 1.0
C      1  0.7357728497785  0.5793797591804  0.3941012865627 1.0
C      1  0.3130395652114  0.6643418600012  0.3941084552126 1.0
C      1  0.4508565319945  0.2558745283966  0.3940952475006 1.0
C      1  0.5875096096791  0.4626445868579  0.3307562145758 1.0
C      1  0.4885099135458  0.5945307774177  0.3307206529399 1.0
C      1  0.4237791787985  0.4429544209885  0.3307746889526 1.0
C      1  0.4539943260508  0.4632667544357  0.4318806529872 1.0
C      1  0.5549623972591  0.4789949710630  0.4318885707031 1.0
C      1  0.4907261258388  0.5584353143435  0.4318465774520 1.0
C      1  0.2891243114545  0.6068872933959  0.5680119288144 1.0
C      1  0.5129691567886  0.2643883263944  0.5678656535745 1.0
C      1  0.6981025260169  0.6289876266978  0.5679325294363 1.0
END
