TITL C-30754-8729-16 -3.402 3375.00 -592.52376937 0 0 75 (C1) n - 1
REM
REM Run started: at 2020.12.17 11:52:12 in /rds/project/t2_vol4/rds-t2-cs072/BORA/CARBON/AIRSS/Generating-Clusters/Str-Search/Higher-Symm/C10-100
REM VASP from code version vasp.5.4.4.18Apr17-6-g9f103f2a35 (build Oct 11 2019 16:45:47) gamma-only
REM
REM
REM
REM
REM ./C.cell (f39ce9773e2efe3fa5bbdf770a4156b8)
REM AIRSS Version 0.9.1 bugfix July 2018 build 013d7b7c2542+ Fri, 06 Jul 2018 19:26:36 +0100
REM compiler GCC version 4.8.5 20150623 (Red Hat 4.8.5-39)
REM options -cpp -mtune=generic -march=x86-64 -g -O0
REM seed -395252748 -1611318735 585389083 1187045281 82758524 -769755324 -860320854 1825332044 1840096594 -960075741 -680477285 -727259406
REM
REM C.POTCAR (d86ddea03c3ceb6dc662c8ad6801f873)
REM 
CELL 1.54180   15.00000   15.00000   15.00000   90.00000   90.00000   90.00000
LATT -1
SFAC C  
C      1  0.6592321477256  0.7313102218969  0.4941876160125 1.0
C      1  0.3400978402085  0.6721763641676  0.6430102100173 1.0
C      1  0.6669152301152  0.5157965081731  0.7285418790529 1.0
C      1  0.3429917217430  0.3621998045298  0.6720902660773 1.0
C      1  0.6633623386625  0.2737708389543  0.5094858494350 1.0
C      1  0.3318067953227  0.3287376543588  0.3484304741050 1.0
C      1  0.6637500644140  0.4988365776408  0.2777690557537 1.0
C      1  0.3360700141035  0.6491032686837  0.3311933442937 1.0
C      1  0.6389040988081  0.4399481886117  0.7729914573517 1.0
C      1  0.3668121132257  0.2731830605506  0.6580971474305 1.0
C      1  0.6287929574873  0.2295688028813  0.4340212790881 1.0
C      1  0.3596914720634  0.3435161179024  0.2602002872964 1.0
C      1  0.6302892701715  0.5728971538145  0.2322437474009 1.0
C      1  0.3637633837147  0.7400481385831  0.3349017547979 1.0
C      1  0.6282535424865  0.7745475843556  0.5695487803202 1.0
C      1  0.3652142209897  0.6696569219050  0.7339632967962 1.0
C      1  0.5831007999098  0.6315205101468  0.2779992455645 1.0
C      1  0.4049488039092  0.7623590100812  0.4118875649104 1.0
C      1  0.5820292195505  0.7284558930656  0.6280702272406 1.0
C      1  0.4069847831679  0.5957249229768  0.7624516907436 1.0
C      1  0.5899592080632  0.3782717320385  0.7328967852157 1.0
C      1  0.4071902449371  0.2477503192373  0.5824494886941 1.0
C      1  0.5856048005309  0.2752851164276  0.3710801831064 1.0
C      1  0.4025439674003  0.4183504007945  0.2358520728505 1.0
C      1  0.3810299838126  0.7045847110779  0.4937085122914 1.0
C      1  0.6207970105023  0.6397376567844  0.6572865627750 1.0
C      1  0.3838779002122  0.5109715420177  0.7052235461120 1.0
C      1  0.6193677571476  0.3522989559624  0.6386486145611 1.0
C      1  0.3827328897961  0.2981946540057  0.4973320656236 1.0
C      1  0.6122906653137  0.3728385038476  0.3483379344118 1.0
C      1  0.3850451793654  0.4988482755054  0.3000047474552 1.0
C      1  0.6185876264674  0.6595072617325  0.3691689077866 1.0
C      1  0.4836792434557  0.6755555708763  0.4916263782099 1.0
C      1  0.5201588152463  0.6050711275027  0.6469745545800 1.0
C      1  0.4874874545340  0.5139272740540  0.6827138008660 1.0
C      1  0.5193192972470  0.3675830494170  0.6131714847230 1.0
C      1  0.4848509015363  0.3201206772365  0.4860055480329 1.0
C      1  0.5125020474835  0.3946734114084  0.3465506006658 1.0
C      1  0.4846345989773  0.4919931824311  0.3217899865566 1.0
C      1  0.5175937333172  0.6454706250923  0.4002516817128 1.0
C      1  0.6718112608505  0.4241827236767  0.5835335475795 1.0
C      1  0.3264039211835  0.3864734365015  0.5067197825762 1.0
C      1  0.6646444417346  0.4241595636488  0.4205329015785 1.0
C      1  0.3254413039046  0.4961857562586  0.3842250381281 1.0
C      1  0.6804786716838  0.5951174488337  0.4148722788766 1.0
C      1  0.3150620934525  0.6289479247277  0.4915678825644 1.0
C      1  0.6825465366343  0.5955393471820  0.5918119441841 1.0
C      1  0.3212311978273  0.5120225739544  0.6260650453297 1.0
C      1  0.3099099298628  0.5974314099159  0.5842044579519 1.0
C      1  0.6939059431643  0.5097447652943  0.6311465197786 1.0
C      1  0.3104079588892  0.4205165079223  0.5991787007415 1.0
C      1  0.6968519944178  0.3691893718092  0.5001552678507 1.0
C      1  0.2986273175783  0.4038825448470  0.4097717477198 1.0
C      1  0.6886402842717  0.5099894519533  0.3739025928445 1.0
C      1  0.3021796161607  0.5927799454757  0.4050453559429 1.0
C      1  0.6872202324615  0.6337022246323  0.5033940034995 1.0
C      1  0.6141118758846  0.2653602514883  0.5900601701313 1.0
C      1  0.3870047764927  0.2717311825933  0.3999027570206 1.0
C      1  0.6187704674509  0.4157676823382  0.2594715590474 1.0
C      1  0.3958386814466  0.5944086717454  0.2808009575560 1.0
C      1  0.6135294658745  0.7482870589554  0.4118178628223 1.0
C      1  0.3972708905631  0.7261745549433  0.5892949372938 1.0
C      1  0.6183255539293  0.5971787895385  0.7467446177505 1.0
C      1  0.3974321704424  0.4158406827015  0.7310139195363 1.0
C      1  0.4858679273240  0.3004809492066  0.3874727896622 1.0
C      1  0.5088289933966  0.4246211140216  0.2508103525315 1.0
C      1  0.4924343039994  0.5967237497764  0.3138604738752 1.0
C      1  0.5072602571468  0.7448782149748  0.4215298455463 1.0
C      1  0.4920029872111  0.6888496142298  0.5941804318370 1.0
C      1  0.5108958545867  0.5870030900699  0.7468460511265 1.0
C      1  0.4958110069590  0.4116831805477  0.7009032574780 1.0
C      1  0.5088858610144  0.2704667148005  0.5749902452643 1.0
C      1  0.6077986515718  0.4348202900742  0.5036740430108 1.0
C      1  0.3812118813995  0.4541151828977  0.4578149278851 1.0
C      1  0.5185644461043  0.4042729377340  0.5204472035593 1.0
END
