TITL C-30580-1724-11 -6.871 3375.00 -1240.95326875 0 0 152 (C1) n - 1
REM
REM Run started: at 2020.12.31 15:21:23 in /gpfs/home/chem/mssmkc/CARBON/AIRSS/Generating-Clusters/Str-Search/Higher-Symm/C100-200
REM VASP from code version vasp.5.4.4.18Apr17-6-g9f103f2a35 (build Oct 11 2019 16:45:47) gamma-only
REM
REM
REM
REM
REM ./C.cell (533062f00bc710175b3da973d35f2034)
REM AIRSS Version 0.9.1 bugfix July 2018 build 013d7b7c2542+ Fri, 06 Jul 2018 19:26:36 +0100
REM compiler GCC version 6.3.0
REM options -cpp -iprefix /gpfs/warwick/csc/orac/software/Core/GCCcore/6.3.0/bin/../lib/gcc/x86_64-pc-linux-gnu/6.3.0/ -mtune=generic -march=x86-64 -g -O0
REM seed -1106674497 -728006211 -1508718159 1988513347 1961203911 1862273155 2030542722 -1781071233 -197845907 1048195202 -271860684 -1076371099
REM
REM C.POTCAR (d86ddea03c3ceb6dc662c8ad6801f873)
REM 
CELL 1.54180   15.00000   15.00000   15.00000   90.00000   90.00000   90.00000
LATT -1
SFAC C  
C      1  0.5944239840613  0.7927100862618  0.2526628500557 1.0
C      1  0.7734840647349  0.7705554641451  0.5236414038891 1.0
C      1  0.5630054105914  0.7884516075831  0.7630195200166 1.0
C      1  0.2639228927336  0.8014811205833  0.6519260857591 1.0
C      1  0.2809149826607  0.7992332962276  0.3318468950393 1.0
C      1  0.5294892681845  0.7206941004064  0.5825211121410 1.0
C      1  0.4261769056417  0.7272586303642  0.5634933764040 1.0
C      1  0.4117621836985  0.7277615847689  0.4623973016963 1.0
C      1  0.5080275183401  0.7244077573955  0.4213981703961 1.0
C      1  0.5813405547630  0.7160358859215  0.4950450069466 1.0
C      1  0.2793042971257  0.4180078105241  0.6927155654925 1.0
C      1  0.2695853621113  0.4133040236480  0.3119498755333 1.0
C      1  0.6261928982843  0.3756907175961  0.1897728366963 1.0
C      1  0.8438675252799  0.3636379290069  0.5319305545646 1.0
C      1  0.6042530328867  0.4074194124350  0.7588797586413 1.0
C      1  0.8402414082469  0.5181681198947  0.5025491916895 1.0
C      1  0.4569543876905  0.5463662605390  0.8569406201241 1.0
C      1  0.1359291069774  0.5627352301333  0.6146390958316 1.0
C      1  0.2874728705853  0.5649324198683  0.1861172420373 1.0
C      1  0.7285237636504  0.5255324570180  0.2061120899652 1.0
C      1  0.7125956626352  0.6262542675727  0.5711263701572 1.0
C      1  0.4967083433504  0.6482414462521  0.7302467186775 1.0
C      1  0.2707996956523  0.6589246200608  0.5858391388135 1.0
C      1  0.3484114094159  0.6565352367211  0.3210063268824 1.0
C      1  0.6156980772657  0.6556443836750  0.3275561644959 1.0
C      1  0.4894189156731  0.4935469117428  0.3301736328881 1.0
C      1  0.6540876460687  0.4773657037159  0.3842717433391 1.0
C      1  0.6269848545770  0.4516935758431  0.6462289054316 1.0
C      1  0.3781839869569  0.4624136249668  0.6836286017760 1.0
C      1  0.2752197299890  0.4662577515625  0.4620210017009 1.0
C      1  0.5399663247321  0.3321258141184  0.7661680312596 1.0
C      1  0.2681496874502  0.3596666570176  0.6049490390225 1.0
C      1  0.3534904254748  0.3604830601560  0.3121028756775 1.0
C      1  0.6568725928707  0.3154092262715  0.2647671171134 1.0
C      1  0.8064050317318  0.2919353362365  0.5792205473589 1.0
C      1  0.3732737095298  0.6535908965211  0.6072006501812 1.0
C      1  0.3500109830083  0.6541017566564  0.4260920049953 1.0
C      1  0.5194063870211  0.6491599300736  0.3519736859919 1.0
C      1  0.6448139785928  0.6341839993459  0.4876431172734 1.0
C      1  0.5513386644391  0.6426571120462  0.6420953424554 1.0
C      1  0.1478371286851  0.4927232323487  0.4000483126673 1.0
C      1  0.4995325875754  0.4806079251125  0.1568670312932 1.0
C      1  0.8028776763440  0.4817748760951  0.4216652138021 1.0
C      1  0.7343810000249  0.4932277657339  0.7621968935284 1.0
C      1  0.2310243992452  0.4238677788189  0.8603823415113 1.0
C      1  0.5904756670741  0.1644898160157  0.4821864943590 1.0
C      1  0.5520381670635  0.1729118496050  0.5725954463039 1.0
C      1  0.4576325514438  0.1753756583730  0.5664835432084 1.0
C      1  0.4305632274439  0.1727723697071  0.4720380894414 1.0
C      1  0.5143208904034  0.1687332197179  0.4201276761726 1.0
C      1  0.7255626709690  0.7268243040959  0.3690092250367 1.0
C      1  0.6933877950420  0.7212930390200  0.6785939229265 1.0
C      1  0.3870902794455  0.7373049386310  0.7491444410372 1.0
C      1  0.2220025670436  0.7441557816874  0.4819091730441 1.0
C      1  0.4326730834993  0.7437118527727  0.2448371958665 1.0
C      1  0.5140526872978  0.5626086811020  0.5861661565681 1.0
C      1  0.4104503326742  0.5697775383111  0.5589311326214 1.0
C      1  0.4035999406682  0.5718457802273  0.4522894087045 1.0
C      1  0.4971597320464  0.5674325005251  0.4087504641743 1.0
C      1  0.5661854400726  0.5571020884442  0.4925359991352 1.0
C      1  0.4231366285737  0.8316596370277  0.4663376095970 1.0
C      1  0.5144525461755  0.8247305625735  0.4282600293550 1.0
C      1  0.5844061855954  0.8220456445568  0.4963308568091 1.0
C      1  0.5341099986576  0.8226955524831  0.5774543638498 1.0
C      1  0.4353124445749  0.8303982615814  0.5604923056416 1.0
C      1  0.6154763058324  0.3402537205292  0.4216167571234 1.0
C      1  0.6926004199264  0.3463015002301  0.4902691038922 1.0
C      1  0.4687423224098  0.3761078840470  0.5879364794416 1.0
C      1  0.3931337875783  0.3592218791998  0.5285578095170 1.0
C      1  0.4376528402958  0.3490755482805  0.4353545538378 1.0
C      1  0.7324588345210  0.5385442557676  0.3718048308900 1.0
C      1  0.6623197042052  0.5362436172096  0.7083873792126 1.0
C      1  0.3545136106866  0.5465762977795  0.7388975093243 1.0
C      1  0.2069114897570  0.5477826612453  0.4685659090206 1.0
C      1  0.4547099282208  0.5453946063476  0.2359097202055 1.0
C      1  0.3941279040535  0.6392518948616  0.7079229829501 1.0
C      1  0.2558340881123  0.6436002782795  0.4788237821251 1.0
C      1  0.4487980871941  0.6459176552960  0.2772462377684 1.0
C      1  0.6890153831448  0.6312170379229  0.3938571861655 1.0
C      1  0.6545865604191  0.6257551312537  0.6582998362279 1.0
C      1  0.3388062670818  0.2838441529738  0.5831276504650 1.0
C      1  0.3833237380699  0.2803136501391  0.3728762071226 1.0
C      1  0.6141417175689  0.2294999058051  0.3062930487754 1.0
C      1  0.7195806489444  0.2540840861193  0.5340933406283 1.0
C      1  0.5433463427066  0.2485933781623  0.7182069302044 1.0
C      1  0.7629133166240  0.2953731711611  0.6664932956507 1.0
C      1  0.4396581240487  0.3228680340883  0.7775306093908 1.0
C      1  0.2119551021763  0.3117694565729  0.5251438604376 1.0
C      1  0.4146510677640  0.3204295246244  0.2406133042364 1.0
C      1  0.7447582308957  0.2862142873177  0.3144003962798 1.0
C      1  0.8255448872450  0.4422717401830  0.3299077511525 1.0
C      1  0.8107386899324  0.4576615965704  0.7163960810276 1.0
C      1  0.3275635032906  0.4376209082639  0.8643338226437 1.0
C      1  0.1069657711322  0.4480298026466  0.4766794271208 1.0
C      1  0.4133361302676  0.4536413889160  0.1287945085750 1.0
C      1  0.3467395751154  0.5020285272833  0.5985015691338 1.0
C      1  0.3521651201210  0.4961877451952  0.4070799751962 1.0
C      1  0.5863596992659  0.4682684708860  0.3110679687375 1.0
C      1  0.6200207758939  0.4786279470163  0.4777836482905 1.0
C      1  0.5352107544308  0.4892268739342  0.6568626082642 1.0
C      1  0.6309898532459  0.3856509011009  0.3399408644335 1.0
C      1  0.6358455938268  0.4106248234529  0.5509673708361 1.0
C      1  0.4633920517626  0.4243781118611  0.6656404794478 1.0
C      1  0.3165968116589  0.4261261406419  0.5426634376687 1.0
C      1  0.4177107657352  0.4271838935489  0.3704646042479 1.0
C      1  0.7844022625850  0.3789281426832  0.4506738013253 1.0
C      1  0.7006745570945  0.4060979968397  0.7819930622291 1.0
C      1  0.2769940470419  0.3803084844524  0.7859730006547 1.0
C      1  0.2091356121356  0.4119905557327  0.3901883890927 1.0
C      1  0.5430474854008  0.3902700093104  0.1561043028761 1.0
C      1  0.2845044333102  0.2508019380269  0.5078546317190 1.0
C      1  0.4482433358490  0.2553579134324  0.3008579764458 1.0
C      1  0.6903669920401  0.2205976424317  0.3647683097884 1.0
C      1  0.6858231300695  0.2463040646255  0.6291273274413 1.0
C      1  0.4462830859577  0.2469283250736  0.7122744785093 1.0
C      1  0.3656178417777  0.3565533811217  0.8200902130516 1.0
C      1  0.1583391105932  0.3645993184860  0.4642957374236 1.0
C      1  0.4476008509240  0.3672382091757  0.1635058274280 1.0
C      1  0.7998863122504  0.3524303429487  0.3528360953422 1.0
C      1  0.7726756894038  0.3632519713176  0.7323791308777 1.0
C      1  0.3654686376695  0.5226211576159  0.1762920770530 1.0
C      1  0.7753953058389  0.5110659728712  0.2834279004868 1.0
C      1  0.8377304059841  0.4957334126135  0.6387257991341 1.0
C      1  0.3725787501953  0.5217895624312  0.8373573459963 1.0
C      1  0.1337542039763  0.5188173475011  0.5378427613447 1.0
C      1  0.3483131285495  0.7513159944417  0.2858866767847 1.0
C      1  0.6545348682933  0.7380409845000  0.3029868511689 1.0
C      1  0.7407713764888  0.7230853296519  0.5960536800211 1.0
C      1  0.4808116996580  0.7428688792494  0.7616466096107 1.0
C      1  0.2385976727540  0.7535431052680  0.5743616246502 1.0
C      1  0.5173703600243  0.5749674341202  0.7973655619590 1.0
C      1  0.2152425187122  0.5950511270785  0.6418529651789 1.0
C      1  0.2899316873930  0.5874249992567  0.2802845832025 1.0
C      1  0.6574813006121  0.5481301173763  0.1591183986298 1.0
C      1  0.7941221554363  0.5625103068892  0.5723452307014 1.0
C      1  0.5257260288704  0.2059654303263  0.3305620070309 1.0
C      1  0.6780771721069  0.1940868788522  0.4590463990455 1.0
C      1  0.5987620524240  0.2173002695980  0.6463777167499 1.0
C      1  0.4053639259001  0.2258981345671  0.6317748254286 1.0
C      1  0.3491883905976  0.2152869742398  0.4406997990555 1.0
C      1  0.2358783084435  0.7931339240445  0.4021319209006 1.0
C      1  0.5135296243227  0.7918518365856  0.2327581673621 1.0
C      1  0.7662548373299  0.7696254338941  0.4394068783915 1.0
C      1  0.6403942294629  0.7760202565669  0.7322537548793 1.0
C      1  0.3168427188720  0.7901281788571  0.7158928558849 1.0
C      1  0.2736649581570  0.5246625296216  0.6773705242234 1.0
C      1  0.2981906367925  0.5087780051122  0.3235695228078 1.0
C      1  0.6389440720847  0.4718904880795  0.2192671176280 1.0
C      1  0.8721964243430  0.4476490545090  0.5614014068789 1.0
C      1  0.5738908514034  0.5088037331091  0.7513271764361 1.0
C      1  0.5475628272805  0.3598082009927  0.5474803522239 1.0
C      1  0.5321282661060  0.3320889783633  0.4596363922113 1.0
END
