TITL C-30538-2259-29 -4.386 3375.00 -755.91394708 0 0 95 (C1) n - 1
REM
REM Run started: at 2020.12.28 08:53:34 in /rds/project/t2_vol4/rds-t2-cs072/BORA/CARBON/AIRSS/Generating-Clusters/Str-Search/Higher-Symm/C10-100
REM VASP from code version vasp.5.4.4.18Apr17-6-g9f103f2a35 (build Oct 11 2019 16:45:47) gamma-only
REM
REM
REM
REM
REM ./C.cell (f39ce9773e2efe3fa5bbdf770a4156b8)
REM AIRSS Version 0.9.1 bugfix July 2018 build 013d7b7c2542+ Fri, 06 Jul 2018 19:26:36 +0100
REM compiler GCC version 4.8.5 20150623 (Red Hat 4.8.5-39)
REM options -cpp -mtune=generic -march=x86-64 -g -O0
REM seed -1567565268 -60307615 1056172685 1401785485 1030043945 370332786 827428846 -39415529 1774123658 -638699802 -1535444674 611997316
REM
REM C.POTCAR (d86ddea03c3ceb6dc662c8ad6801f873)
REM 
CELL 1.54180   15.00000   15.00000   15.00000   90.00000   90.00000   90.00000
LATT -1
SFAC C  
C      1  0.3246897184099  0.7626469921553  0.5502104299470 1.0
C      1  0.7060833786296  0.2518176519748  0.6396074604815 1.0
C      1  0.3193513256563  0.7666143323864  0.4568796284650 1.0
C      1  0.6972092903296  0.2505576102695  0.3836676765881 1.0
C      1  0.7020325831799  0.7416143339981  0.6237856454152 1.0
C      1  0.3313579906852  0.2358262625990  0.5494231651015 1.0
C      1  0.6943923351719  0.7460527184181  0.3864372960068 1.0
C      1  0.3327040550162  0.2346995974896  0.4548827245829 1.0
C      1  0.6073258589130  0.3761634888385  0.3910654998532 1.0
C      1  0.3798732384200  0.6351628810339  0.3887399160207 1.0
C      1  0.6159076368765  0.3722832770059  0.6194705557627 1.0
C      1  0.3960137118600  0.6285059303121  0.5963548927442 1.0
C      1  0.3854641688206  0.3763719417036  0.3907330208362 1.0
C      1  0.6082837120496  0.6218649365169  0.3836913685982 1.0
C      1  0.4042112690172  0.3726722744290  0.5897424714372 1.0
C      1  0.6175481334107  0.6142417284877  0.6262689603919 1.0
C      1  0.7135358808340  0.3384002123185  0.6073360037058 1.0
C      1  0.3080309779947  0.6561779478492  0.5515104195062 1.0
C      1  0.7005757230127  0.3390648846695  0.4109813851690 1.0
C      1  0.2989757023760  0.6601842134891  0.4466398943313 1.0
C      1  0.3135609821437  0.3428177786973  0.5497518268450 1.0
C      1  0.7114763190451  0.6523676074695  0.6058036795407 1.0
C      1  0.3065081351995  0.3408712591086  0.4465544550579 1.0
C      1  0.7004655576374  0.6564272426318  0.4077503660803 1.0
C      1  0.4069443479311  0.2061583796284  0.3986530176251 1.0
C      1  0.6066493734937  0.7717708262838  0.3685245135482 1.0
C      1  0.4085839507381  0.2154682092112  0.6070202250932 1.0
C      1  0.6129531755664  0.7657684834642  0.6328374597514 1.0
C      1  0.6105087242199  0.2280184336883  0.3610565349939 1.0
C      1  0.3973659012628  0.8004244753785  0.4024716773414 1.0
C      1  0.6183499489166  0.2241748071270  0.6500100765231 1.0
C      1  0.4102805377373  0.7839768042036  0.6008998684863 1.0
C      1  0.5372349721756  0.7010724844223  0.2447691621893 1.0
C      1  0.4467167374211  0.3075534739933  0.2721251388502 1.0
C      1  0.5368018105351  0.6993848564309  0.7539326745175 1.0
C      1  0.4364423139934  0.2998777597635  0.7397862218774 1.0
C      1  0.4366073755034  0.7006059704515  0.2535174062605 1.0
C      1  0.5444903129052  0.3005036208881  0.2482530833700 1.0
C      1  0.4355022704267  0.7046088569501  0.7434486638596 1.0
C      1  0.5355216358757  0.3007617616502  0.7543932338088 1.0
C      1  0.5478571312323  0.7816938966388  0.7050405035972 1.0
C      1  0.4446088237673  0.2128107208123  0.6950554991497 1.0
C      1  0.5464691766117  0.7837558282460  0.2917249820752 1.0
C      1  0.4458440342890  0.2134504547242  0.3101699789932 1.0
C      1  0.4477231398474  0.7866889981224  0.6898861287886 1.0
C      1  0.5475081530620  0.2138300493732  0.7153685531349 1.0
C      1  0.4416658057372  0.7804934245216  0.3108345854308 1.0
C      1  0.5502930257338  0.2123085502957  0.2878485805941 1.0
C      1  0.7556862859900  0.5817389990556  0.4519877149143 1.0
C      1  0.2358112956920  0.4176854980671  0.4532130005024 1.0
C      1  0.7630937020280  0.5790599419072  0.5566905887506 1.0
C      1  0.2434885532321  0.4185387514435  0.5537262293450 1.0
C      1  0.2327389479075  0.5794819298027  0.4530630697082 1.0
C      1  0.7563312974243  0.4125974352433  0.4553694005880 1.0
C      1  0.2395032180755  0.5790264723490  0.5543831681849 1.0
C      1  0.7679842021787  0.4102542124591  0.5585493518338 1.0
C      1  0.4464461159061  0.7163810957095  0.3918359458033 1.0
C      1  0.5467613254026  0.2963457898010  0.4149099867937 1.0
C      1  0.4624362941546  0.7037120834117  0.5734737512262 1.0
C      1  0.5677020593855  0.2891619339468  0.5880445521067 1.0
C      1  0.5452886453157  0.7061833330392  0.4134778400906 1.0
C      1  0.4529981836578  0.2992308890212  0.3809149610999 1.0
C      1  0.5621963639209  0.6916361200101  0.5874321962447 1.0
C      1  0.4679483985258  0.2919468287773  0.5705288626235 1.0
C      1  0.6001146920641  0.4463256004322  0.5567922232937 1.0
C      1  0.4321518821603  0.5496899150311  0.5462655217169 1.0
C      1  0.5912579549921  0.4481980568730  0.4581819996998 1.0
C      1  0.4213464170873  0.5567621349404  0.4347284242564 1.0
C      1  0.4206264388186  0.4531160736226  0.5350676852369 1.0
C      1  0.6118240564310  0.5366670749430  0.5639771398795 1.0
C      1  0.4161217818495  0.4550892831673  0.4424854933537 1.0
C      1  0.5868007557095  0.5459831958297  0.4579992168454 1.0
C      1  0.3951635297648  0.6274352576890  0.7007568930920 1.0
C      1  0.5874197471673  0.3767017855603  0.7223378350966 1.0
C      1  0.3815218223617  0.6267085648893  0.2846481143562 1.0
C      1  0.5912209346098  0.3785411493393  0.2847096427056 1.0
C      1  0.5861117225724  0.6193106201111  0.7279925248957 1.0
C      1  0.4002187671084  0.3769897448285  0.6935303088121 1.0
C      1  0.5839343523523  0.6216610854134  0.2798268294905 1.0
C      1  0.3839297614004  0.3820583200824  0.2879719941361 1.0
C      1  0.3886725516270  0.4597076883807  0.7278859172271 1.0
C      1  0.5890030475248  0.5393901065552  0.7675789827527 1.0
C      1  0.3702369920988  0.4611673440654  0.2486574668997 1.0
C      1  0.5917279736072  0.5413606593266  0.2424321155723 1.0
C      1  0.5925430035462  0.4561164045900  0.7617206234123 1.0
C      1  0.3877399674020  0.5430955400197  0.7327618780116 1.0
C      1  0.5965339029788  0.4582430861072  0.2465395179990 1.0
C      1  0.3686939226763  0.5452639070415  0.2495300388939 1.0
C      1  0.2378450252478  0.4987100859146  0.5971414596488 1.0
C      1  0.7769642629686  0.4950959529312  0.5937075616329 1.0
C      1  0.2268066561589  0.4986861395404  0.4107978322587 1.0
C      1  0.7595318350087  0.4969529576518  0.4168503473090 1.0
C      1  0.5222338409966  0.6775479295500  0.5012085451842 1.0
C      1  0.5312837858094  0.2734384164969  0.5035766461635 1.0
C      1  0.5006986634304  0.5821874749111  0.4822442880236 1.0
END
