TITL C-30513-3949-34 -5.941 3375.00 -1011.27022470 0 0 125 (C1) n - 1
REM
REM Run started: at 2020.12.22 20:50:17 in /gpfs/home/chem/mssmkc/CARBON/AIRSS/Generating-Clusters/Str-Search/Higher-Symm/C100-200
REM VASP from code version vasp.5.4.4.18Apr17-6-g9f103f2a35 (build Oct 11 2019 16:45:47) gamma-only
REM
REM
REM
REM
REM ./C.cell (533062f00bc710175b3da973d35f2034)
REM AIRSS Version 0.9.1 bugfix July 2018 build 013d7b7c2542+ Fri, 06 Jul 2018 19:26:36 +0100
REM compiler GCC version 6.3.0
REM options -cpp -iprefix /gpfs/warwick/csc/orac/software/Core/GCCcore/6.3.0/bin/../lib/gcc/x86_64-pc-linux-gnu/6.3.0/ -mtune=generic -march=x86-64 -g -O0
REM seed -1059801100 -1983806018 504347289 -1617489294 1491347227 -1846780153 -277842535 26808108 -702051754 -753342424 1103685773 99547408
REM
REM C.POTCAR (d86ddea03c3ceb6dc662c8ad6801f873)
REM 
CELL 1.54180   15.00000   15.00000   15.00000   90.00000   90.00000   90.00000
LATT -1
SFAC C  
C      1  0.2275726883918  0.5877738564642  0.6027808254395 1.0
C      1  0.7736444247009  0.4006899759221  0.3806702762238 1.0
C      1  0.7144063484969  0.6463910932928  0.3478912615336 1.0
C      1  0.2495945712885  0.3328192123160  0.6701317954268 1.0
C      1  0.6927096287560  0.3512389783336  0.3621041830194 1.0
C      1  0.2988436747246  0.6399225499954  0.6340514040017 1.0
C      1  0.2568071824850  0.3029176160460  0.5785077620308 1.0
C      1  0.7510857604298  0.6658314383888  0.4428353993573 1.0
C      1  0.5814953406222  0.7856936296120  0.2099431328844 1.0
C      1  0.4376837442610  0.2124392985266  0.7877268399426 1.0
C      1  0.7682040368398  0.4342183880219  0.5589181063941 1.0
C      1  0.2209856497233  0.5854573332653  0.4287567077637 1.0
C      1  0.6398415460023  0.4577826617414  0.8249885843238 1.0
C      1  0.3677717911416  0.5488547037653  0.1740518692643 1.0
C      1  0.5878920296714  0.1446397253283  0.3990918468006 1.0
C      1  0.4036798026448  0.8371654911214  0.5996588464246 1.0
C      1  0.4268598320926  0.4126069211998  0.8372887453547 1.0
C      1  0.5982531221075  0.5753662973297  0.1505119673626 1.0
C      1  0.3604322080816  0.3877074200043  0.7700561314636 1.0
C      1  0.6722601855377  0.6091279011577  0.1951657617930 1.0
C      1  0.5566205765537  0.3818920769910  0.1643263899706 1.0
C      1  0.4625926019112  0.6002347359802  0.8438456809219 1.0
C      1  0.6527850686550  0.2909110422059  0.5966800325427 1.0
C      1  0.3312900102712  0.7232983128028  0.3869115940341 1.0
C      1  0.5953009761171  0.3772787375137  0.8367701142794 1.0
C      1  0.4208593598268  0.6231914186541  0.1691304761210 1.0
C      1  0.5279335648612  0.5340283910937  0.5343178600462 1.0
C      1  0.4842986625371  0.4352825522126  0.4133263039848 1.0
C      1  0.3667780623834  0.7714137173330  0.4604537957434 1.0
C      1  0.6114067033958  0.2368557871286  0.5288900217338 1.0
C      1  0.5480062516650  0.3044223071563  0.3257401957160 1.0
C      1  0.4427944522188  0.6851930744890  0.6912663205033 1.0
C      1  0.5881683124716  0.4934703032346  0.6781218350457 1.0
C      1  0.4023184301250  0.5287153086691  0.3187882954978 1.0
C      1  0.5204314403412  0.3202987088642  0.2279579770522 1.0
C      1  0.4878047181394  0.6666155047692  0.7807929871451 1.0
C      1  0.6156207861427  0.5417333476614  0.3473931701230 1.0
C      1  0.3582944989289  0.4392475689513  0.6811319088411 1.0
C      1  0.5110572704239  0.2652396875357  0.8103072741175 1.0
C      1  0.5122531786343  0.7227838500901  0.1951676890858 1.0
C      1  0.4222674574464  0.1604992420534  0.3952207616562 1.0
C      1  0.5669250445975  0.8674172730878  0.5933871408677 1.0
C      1  0.3868912419748  0.7681921434315  0.6667194098028 1.0
C      1  0.6035119905185  0.2226644207020  0.3462735660962 1.0
C      1  0.3693737795782  0.2132449649836  0.3591265134924 1.0
C      1  0.6015520117903  0.8098927922803  0.6449488016762 1.0
C      1  0.3303720362726  0.7924102761124  0.5451291634383 1.0
C      1  0.6527521757034  0.2042543657127  0.4479081252474 1.0
C      1  0.2043447344692  0.4948304304496  0.6247269102802 1.0
C      1  0.7977890710384  0.4792427873591  0.3183292789180 1.0
C      1  0.6174033953807  0.5457714763756  0.8598187451227 1.0
C      1  0.4217024818208  0.4662708915821  0.1753987685830 1.0
C      1  0.3601294002185  0.2341008280413  0.7665745875389 1.0
C      1  0.6579236196177  0.7498601514099  0.2210840062280 1.0
C      1  0.8287682112790  0.6355684313439  0.4904561556822 1.0
C      1  0.2252852661238  0.3506838121097  0.4999493452199 1.0
C      1  0.7039960588569  0.3795102827532  0.6975186933898 1.0
C      1  0.2805063023400  0.6348126978116  0.2853457608760 1.0
C      1  0.3115359265095  0.3835966579548  0.2803244122126 1.0
C      1  0.7239332267224  0.6188046634876  0.7490760145763 1.0
C      1  0.6906372512256  0.2536199640028  0.3731608751600 1.0
C      1  0.3102768143466  0.7344631541361  0.6201804015305 1.0
C      1  0.7810266228362  0.5075540598099  0.4064777418198 1.0
C      1  0.1557622808954  0.4883329481635  0.5375158542788 1.0
C      1  0.7060375712544  0.6757963087073  0.2489883027852 1.0
C      1  0.3101241561629  0.3095196249465  0.7424376841171 1.0
C      1  0.2574669645020  0.4321637535658  0.6631403935951 1.0
C      1  0.7148385840315  0.5432855111316  0.3399995476312 1.0
C      1  0.4038787861002  0.4930360751010  0.4066788872644 1.0
C      1  0.6024274390562  0.5374481441902  0.5940901137046 1.0
C      1  0.3516219859027  0.7202164467775  0.2875467610997 1.0
C      1  0.6460449434613  0.2951246807133  0.6963483833269 1.0
C      1  0.5954712932192  0.2946145511074  0.7770419964177 1.0
C      1  0.4193507387778  0.7063323176176  0.2214716093110 1.0
C      1  0.6095124623926  0.3809747586620  0.3359613348013 1.0
C      1  0.3791085034789  0.6098058590118  0.6739152593254 1.0
C      1  0.4617369852631  0.7847565566999  0.4901049522344 1.0
C      1  0.5159877063946  0.2158405251870  0.5143960003108 1.0
C      1  0.5811557967470  0.6836381808781  0.7730029685848 1.0
C      1  0.4255284925519  0.3163548655323  0.2324410053831 1.0
C      1  0.5840430927806  0.4789841323362  0.1256238520093 1.0
C      1  0.4492138906126  0.5040075065063  0.8600708341934 1.0
C      1  0.3795805794381  0.3050435634565  0.3235193579325 1.0
C      1  0.5953839634182  0.7247567024587  0.6821320035613 1.0
C      1  0.5192183892114  0.6343674326004  0.1545308148851 1.0
C      1  0.5007672274319  0.3524955636873  0.8527142581140 1.0
C      1  0.7404907899032  0.5403852695174  0.7057210300652 1.0
C      1  0.2655245034280  0.4620303324452  0.3037648790878 1.0
C      1  0.6769293452106  0.6422601065595  0.4999691011848 1.0
C      1  0.3138102294987  0.3744997148132  0.4812133829910 1.0
C      1  0.1875202308151  0.5792222221368  0.5172319113429 1.0
C      1  0.7885828655099  0.4367768115986  0.4688885499853 1.0
C      1  0.4137644467126  0.5221270996103  0.6828514591344 1.0
C      1  0.5533542008492  0.4652861199239  0.3385101362822 1.0
C      1  0.6736673984190  0.4665656716351  0.7304068704091 1.0
C      1  0.3168746902245  0.5451713010289  0.2630282006159 1.0
C      1  0.5869946575393  0.6608586974458  0.4622170722402 1.0
C      1  0.3596574422856  0.3161386867082  0.5477007297914 1.0
C      1  0.4627130832934  0.3336026066030  0.3913703300146 1.0
C      1  0.5239585580216  0.6948758583172  0.6248822082606 1.0
C      1  0.4562451461272  0.2947899217383  0.5026192867405 1.0
C      1  0.5117302751301  0.7014639983573  0.5230006505400 1.0
C      1  0.5018461342977  0.1523837241089  0.4442803188158 1.0
C      1  0.4829753311097  0.8578050575978  0.5535415985194 1.0
C      1  0.5002943474183  0.4433079113166  0.1219515041858 1.0
C      1  0.5279430217437  0.5495743986440  0.8867146666340 1.0
C      1  0.6819656405358  0.5779171558294  0.5680354929321 1.0
C      1  0.3252989054604  0.4591374957350  0.4434515497734 1.0
C      1  0.5000915505936  0.6098555355125  0.4840088352123 1.0
C      1  0.4816545828547  0.3742392951876  0.5587586539530 1.0
C      1  0.1752450121521  0.4288596614121  0.4703671584076 1.0
C      1  0.8343911710825  0.5959976488529  0.5640621438486 1.0
C      1  0.7575778409791  0.3033456384076  0.7126110122975 1.0
C      1  0.2615537612397  0.7134148445088  0.2357782736946 1.0
C      1  0.2659763159416  0.6519811835216  0.3824712395322 1.0
C      1  0.7234077187719  0.3620136274223  0.6015534416629 1.0
C      1  0.3717028317991  0.3856904759603  0.2050869807448 1.0
C      1  0.6477277172751  0.6224036031714  0.8069378320119 1.0
C      1  0.6152139581002  0.6314940904540  0.3721855748033 1.0
C      1  0.4047247047921  0.3764425932344  0.6122976938085 1.0
C      1  0.5016133793197  0.5024778808251  0.6992811114554 1.0
C      1  0.4711231884819  0.4923460788105  0.2706301976689 1.0
C      1  0.2345869305650  0.4853201556104  0.4004360883651 1.0
C      1  0.7687457625452  0.5338107668918  0.6060167773770 1.0
C      1  0.5109448826179  0.4473689573481  0.5084663320177 1.0
END
