TITL C-30105-6208-9 -7.453 3375.00 -1321.50752857 0 0 162 (C1) n - 1
REM
REM Run started: at 2021.01.04 13:20:13 in /gpfs/home/chem/mssmkc/CARBON/AIRSS/Generating-Clusters/Str-Search/Higher-Symm/C100-200
REM VASP from code version vasp.5.4.4.18Apr17-6-g9f103f2a35 (build Oct 11 2019 16:45:47) gamma-only
REM
REM
REM
REM
REM ./C.cell (533062f00bc710175b3da973d35f2034)
REM AIRSS Version 0.9.1 bugfix July 2018 build 013d7b7c2542+ Fri, 06 Jul 2018 19:26:36 +0100
REM compiler GCC version 6.3.0
REM options -cpp -iprefix /gpfs/warwick/csc/orac/software/Core/GCCcore/6.3.0/bin/../lib/gcc/x86_64-pc-linux-gnu/6.3.0/ -mtune=generic -march=x86-64 -g -O0
REM seed -276623707 -1463411519 1409134701 -215687583 -1752355695 1923831112 -2075320289 -735946664 932080329 -1573261020 -1658632931 -1297074757
REM
REM C.POTCAR (d86ddea03c3ceb6dc662c8ad6801f873)
REM 
CELL 1.54180   15.00000   15.00000   15.00000   90.00000   90.00000   90.00000
LATT -1
SFAC C  
C      1  0.2206291580340  0.5709412820028  0.3384493293567 1.0
C      1  0.2206670555804  0.6510894487198  0.4009398815210 1.0
C      1  0.2176556724610  0.6852054466569  0.4929540068167 1.0
C      1  0.2133127544028  0.6636047830606  0.5920177275598 1.0
C      1  0.2097774989446  0.5952677957590  0.6625309353448 1.0
C      1  0.2157056387171  0.4948773390625  0.6821400012937 1.0
C      1  0.2298324348205  0.4102354481172  0.6419117222659 1.0
C      1  0.2505758737885  0.3569934881501  0.5546152705137 1.0
C      1  0.2246212257128  0.3385813651369  0.4570271716861 1.0
C      1  0.2216043053221  0.3849875842902  0.3731717673874 1.0
C      1  0.2194329347803  0.4742301565174  0.3275557849014 1.0
C      1  0.4801332241093  0.6059791432564  0.6257724818838 1.0
C      1  0.4749210891064  0.5178863659607  0.6732709712990 1.0
C      1  0.4743199344285  0.4174967299092  0.6659201722881 1.0
C      1  0.5330379758919  0.3669527797618  0.6036680615221 1.0
C      1  0.5133468637630  0.3246413540763  0.5172285462851 1.0
C      1  0.5219188994604  0.3468237853805  0.4159856515439 1.0
C      1  0.5485220281955  0.4219755278325  0.3644018593410 1.0
C      1  0.5116338175751  0.5049996901151  0.3365102084360 1.0
C      1  0.5126711857711  0.5996735463663  0.3700019417151 1.0
C      1  0.5089836964264  0.6629815621084  0.4450050703481 1.0
C      1  0.4958360838642  0.6614984792674  0.5418184942454 1.0
C      1  0.7508268668804  0.6902127451129  0.5799187962538 1.0
C      1  0.7827552823511  0.6330755160612  0.6587247505620 1.0
C      1  0.7901043942085  0.5381238876812  0.7021417305548 1.0
C      1  0.7602759181696  0.4521598620378  0.6796481438367 1.0
C      1  0.7367533432558  0.2217141558064  0.6392888547446 1.0
C      1  0.7377658843418  0.2332212571938  0.5418262818550 1.0
C      1  0.7678602694963  0.3408399575725  0.3358708258922 1.0
C      1  0.7930216253642  0.4256059977626  0.2770611280101 1.0
C      1  0.7573731234807  0.5167013668049  0.2712131558240 1.0
C      1  0.7545310957324  0.6165799903820  0.3013483001880 1.0
C      1  0.7534711915606  0.7152746947171  0.4788815646214 1.0
C      1  0.2714355081359  0.7713136612032  0.4886124395834 1.0
C      1  0.2664182776337  0.7385582544808  0.6339776688084 1.0
C      1  0.2592089585809  0.6353865746807  0.7401403675441 1.0
C      1  0.2640635880028  0.4891979831012  0.7713628233840 1.0
C      1  0.3034746565430  0.3636593620587  0.6990425558872 1.0
C      1  0.2775664692500  0.2633833551365  0.5905045578926 1.0
C      1  0.2687854836689  0.2505525173873  0.4398466081478 1.0
C      1  0.2691257808337  0.3228205288928  0.3094710012825 1.0
C      1  0.2711509763870  0.4562632963435  0.2434919897855 1.0
C      1  0.2727072689289  0.6030512102348  0.2590090271975 1.0
C      1  0.2742993162854  0.7196887406789  0.3506817220088 1.0
C      1  0.6809472314043  0.5619886110028  0.8284071724039 1.0
C      1  0.6752945175317  0.3867093596262  0.8101683093188 1.0
C      1  0.6749170055403  0.2364657245861  0.7621063800155 1.0
C      1  0.7366823622613  0.1534021198395  0.3933471027929 1.0
C      1  0.7088912424049  0.2190051200655  0.2472787281775 1.0
C      1  0.6842179877601  0.3625616865898  0.1628455638702 1.0
C      1  0.6725707788922  0.5373118782459  0.1321474712846 1.0
C      1  0.6735822185885  0.7030948539699  0.1892789404987 1.0
C      1  0.6999784386572  0.8739130297111  0.4670347175937 1.0
C      1  0.6825835700410  0.8273906061373  0.6248697596783 1.0
C      1  0.6793197585711  0.7188720754718  0.7610269576270 1.0
C      1  0.3758618623609  0.4140924932931  0.6413470394535 1.0
C      1  0.3615016651329  0.3831917604420  0.5492662260215 1.0
C      1  0.4163306246822  0.3072223263578  0.5063586518718 1.0
C      1  0.4222739787276  0.3322167791028  0.4058870001448 1.0
C      1  0.3872242417662  0.4270814463665  0.4016322938489 1.0
C      1  0.4133734295381  0.4985188418492  0.3475097600436 1.0
C      1  0.4135347397762  0.5886633698278  0.3718944938208 1.0
C      1  0.4052492931203  0.6517183349843  0.4405167269253 1.0
C      1  0.3945920757083  0.6524178843745  0.5318378360157 1.0
C      1  0.3814335393734  0.5976772916703  0.6081026259634 1.0
C      1  0.3768199738509  0.5158580416487  0.6520454724790 1.0
C      1  0.4091953712194  0.2006541970835  0.5152821684541 1.0
C      1  0.4081713415176  0.2457149723248  0.3463224104655 1.0
C      1  0.4067147666606  0.3620185378979  0.2173039110202 1.0
C      1  0.4046993809842  0.5355312305648  0.1841821366549 1.0
C      1  0.4088860398433  0.6996773144482  0.2536438475489 1.0
C      1  0.4121473140210  0.8041889421685  0.4005502668841 1.0
C      1  0.4060182940656  0.8138691971348  0.5788259305361 1.0
C      1  0.3977675291195  0.7301543055424  0.7342983484594 1.0
C      1  0.3908824174381  0.5856562939368  0.8297344813136 1.0
C      1  0.4019585198981  0.4204112435256  0.8192933697312 1.0
C      1  0.4092434730269  0.2246199362284  0.6845976273360 1.0
C      1  0.3159618334687  0.7829822574204  0.4071805350939 1.0
C      1  0.3113324063652  0.7917846552492  0.5708286082689 1.0
C      1  0.3034297687513  0.7156242266436  0.7164792248101 1.0
C      1  0.2980118066970  0.5742915299503  0.7990338147459 1.0
C      1  0.3140008916730  0.4118737287626  0.7837163978842 1.0
C      1  0.3203420481530  0.2682867939754  0.6713241616544 1.0
C      1  0.3086680106529  0.2127960798893  0.5152742411091 1.0
C      1  0.3074681500035  0.2498746852835  0.3519629705739 1.0
C      1  0.3120762007557  0.3724307327701  0.2415339186626 1.0
C      1  0.3109310703884  0.5340090558732  0.2090757637900 1.0
C      1  0.3140914823671  0.6863450882726  0.2734257108998 1.0
C      1  0.5631213386921  0.2079605562645  0.6163877888948 1.0
C      1  0.5493461141000  0.2043753028756  0.4314222381999 1.0
C      1  0.5591778149933  0.2883068306854  0.2694915926052 1.0
C      1  0.5518592210983  0.4435189788985  0.1974758183944 1.0
C      1  0.5494503785311  0.6101986094760  0.2185251099375 1.0
C      1  0.5594649544566  0.7488681478457  0.3203631437087 1.0
C      1  0.5564663174339  0.8069706309645  0.4984583857038 1.0
C      1  0.5450487450425  0.7566972496658  0.6626873696761 1.0
C      1  0.5375064906191  0.6315767504016  0.7754174818001 1.0
C      1  0.5358993581092  0.4713165381853  0.8173970271858 1.0
C      1  0.5327067054064  0.2999078822017  0.7598940751293 1.0
C      1  0.6205550233132  0.5283517022391  0.6728244043516 1.0
C      1  0.6731550643312  0.4536928096335  0.6244297324215 1.0
C      1  0.6328309607440  0.3621382677109  0.6086667501468 1.0
C      1  0.6649898374504  0.3015921215275  0.5236623058107 1.0
C      1  0.6797316505710  0.3367292728318  0.3905078382496 1.0
C      1  0.6421928818938  0.4203820733584  0.3479617341764 1.0
C      1  0.6605499422530  0.5133830090177  0.3131267956224 1.0
C      1  0.6647184045810  0.6160743018845  0.3539050700116 1.0
C      1  0.6626717834615  0.6767758030789  0.4453785243840 1.0
C      1  0.6466520962485  0.6686765518697  0.5581011004072 1.0
C      1  0.6188019741447  0.6108824313700  0.6356032370267 1.0
C      1  0.7110280775998  0.1522961193061  0.3109262756264 1.0
C      1  0.6423578554720  0.2748627465182  0.2022224099516 1.0
C      1  0.6366671015037  0.4447321644769  0.1397076756637 1.0
C      1  0.6234422924001  0.6235865818319  0.1520044291145 1.0
C      1  0.6385041346974  0.7610051995122  0.2537280234039 1.0
C      1  0.6382181408598  0.8629231514955  0.5361568911571 1.0
C      1  0.6378979744536  0.7840256365647  0.6987896809936 1.0
C      1  0.6310423089772  0.6480669006442  0.8113023919630 1.0
C      1  0.6379215559526  0.4698117314757  0.8384778432752 1.0
C      1  0.6236895174284  0.2998208176681  0.8049385310392 1.0
C      1  0.6550266712092  0.1869427772450  0.6759986105170 1.0
C      1  0.7510654154336  0.2820754332950  0.7176268881615 1.0
C      1  0.7514370742948  0.1723170126094  0.4767777830970 1.0
C      1  0.7792064893613  0.2832470529433  0.2624965076228 1.0
C      1  0.7703081530915  0.3648017264293  0.2074662640721 1.0
C      1  0.7518612282464  0.5614277570841  0.1794282224569 1.0
C      1  0.7553915219015  0.6534278973093  0.2137238694513 1.0
C      1  0.7632287380947  0.8080996956617  0.4953505491572 1.0
C      1  0.7646249202760  0.7907545086477  0.5929206932023 1.0
C      1  0.7615197542464  0.6702352149462  0.7426721618142 1.0
C      1  0.7639693281749  0.5800203774035  0.7862091530620 1.0
C      1  0.7501576709525  0.3740588995036  0.7423389690026 1.0
C      1  0.5435674193897  0.5343251658385  0.7434124195431 1.0
C      1  0.4865268914318  0.3910341487749  0.7699176803402 1.0
C      1  0.5664382810828  0.2979618332732  0.6626474029015 1.0
C      1  0.5783399816752  0.2441915907255  0.5209637851924 1.0
C      1  0.5853855827480  0.2751746588094  0.3699234812866 1.0
C      1  0.5727097437996  0.3843700318684  0.2750586610124 1.0
C      1  0.5686295053036  0.5207450703514  0.2554219769025 1.0
C      1  0.5737571278682  0.6498768757512  0.3074435428013 1.0
C      1  0.5795739316295  0.7398854263133  0.4222720802636 1.0
C      1  0.5627591839849  0.7344781305766  0.5668583625000 1.0
C      1  0.5441108954482  0.6602264077989  0.6826731255043 1.0
C      1  0.4388133547430  0.5008549269356  0.8502358951275 1.0
C      1  0.4563652108834  0.2367855472115  0.7674603965760 1.0
C      1  0.4573915721475  0.1892396686110  0.6100263155235 1.0
C      1  0.4585833904758  0.1865368232749  0.4227530877023 1.0
C      1  0.4540973447898  0.2862838313463  0.2606634588964 1.0
C      1  0.4501911061968  0.4448801991869  0.1831956652091 1.0
C      1  0.4499433408720  0.6214539851646  0.2037797428165 1.0
C      1  0.4575660969889  0.7647031194974  0.3144841189104 1.0
C      1  0.4549396728820  0.8255874574695  0.4898447126640 1.0
C      1  0.4464540589845  0.7840451007419  0.6661609883783 1.0
C      1  0.4400265091660  0.6610306504218  0.7953676576609 1.0
C      1  0.7440121604212  0.4997742300646  0.4835210382277 1.0
C      1  0.5735385556158  0.4965560378277  0.5059572493085 1.0
C      1  0.4019837451714  0.4546834226010  0.4920618609727 1.0
C      1  0.9159001325560  0.4932805570184  0.4694786797250 1.0
C      1  0.0014332230697  0.4895662618969  0.4668029489437 1.0
C      1  0.6644222328921  0.4878779831292  0.5272092601631 1.0
C      1  0.8282568190017  0.4960095077002  0.4799060465811 1.0
C      1  0.4896618636716  0.4871533683134  0.5068803835511 1.0
END
