TITL C-30025-7149-4 -7.352 3375.00 -1326.93018816 0 0 162 (C2) n - 1
REM
REM Run started: at 2020.12.27 17:35:56 in /rds/project/t2_vol4/rds-t2-cs072/BORA/CARBON/AIRSS/Generating-Clusters/Str-Search/Higher-Symm/C100-200
REM VASP from code version vasp.5.4.4.18Apr17-6-g9f103f2a35 (build Oct 11 2019 16:45:47) gamma-only
REM
REM
REM
REM
REM ./C.cell (533062f00bc710175b3da973d35f2034)
REM AIRSS Version 0.9.1 bugfix July 2018 build 013d7b7c2542+ Fri, 06 Jul 2018 19:26:36 +0100
REM compiler GCC version 4.8.5 20150623 (Red Hat 4.8.5-39)
REM options -cpp -mtune=generic -march=x86-64 -g -O0
REM seed 979618580 -1576070635 -763085392 -514114700 221229509 -1127483145 -1676724312 1613120767 -60934744 -230323148 2035797873 1788035788
REM
REM C.POTCAR (d86ddea03c3ceb6dc662c8ad6801f873)
REM 
CELL 1.54180   15.00000   15.00000   15.00000   90.00000   90.00000   90.00000
LATT -1
SFAC C  
C      1  0.5483348915850  0.4004214057017  0.6782010195022 1.0
C      1  0.4414793963957  0.4109110745218  0.6762760805941 1.0
C      1  0.3911653439166  0.5056587835295  0.6770939777523 1.0
C      1  0.4516684425279  0.5995775096442  0.6782038947589 1.0
C      1  0.5585245906498  0.5890876850357  0.6762755910072 1.0
C      1  0.6088396075884  0.4943395606588  0.6770906340585 1.0
C      1  0.6767715683558  0.1401503847328  0.5024486871901 1.0
C      1  0.2779702157073  0.1672105900789  0.5015419322003 1.0
C      1  0.1018196547211  0.5281113038528  0.4959651855372 1.0
C      1  0.3232274944681  0.8598519030378  0.5024556685195 1.0
C      1  0.7220304056656  0.8327918344697  0.5015392654774 1.0
C      1  0.8981729810035  0.4718894572035  0.4959472507042 1.0
C      1  0.1924360449925  0.6158455220305  0.3710572526871 1.0
C      1  0.4449741231160  0.8295666040548  0.3737882119823 1.0
C      1  0.7552489964866  0.7127384207312  0.3712903076549 1.0
C      1  0.8075591526823  0.3841570273794  0.3710473728055 1.0
C      1  0.5550192129785  0.1704315389323  0.3737857404625 1.0
C      1  0.2447492688979  0.2872653706910  0.3712956168504 1.0
C      1  0.3536859621503  0.7049177018467  0.7631913219480 1.0
C      1  0.6152079273587  0.7182927375770  0.7603152115050 1.0
C      1  0.7556249937913  0.5315685924587  0.7604672055918 1.0
C      1  0.6463204848794  0.2950817435394  0.7631833658258 1.0
C      1  0.3848002768746  0.2817056225527  0.7603163230796 1.0
C      1  0.2443833330021  0.4684284148868  0.7604737405665 1.0
C      1  0.7853766950299  0.5071422340596  0.2344151262289 1.0
C      1  0.6467952740265  0.2542228116434  0.2365576992381 1.0
C      1  0.3643873966692  0.2472953840451  0.2360952256441 1.0
C      1  0.2146137920849  0.4928623329934  0.2344248176994 1.0
C      1  0.3531959239377  0.7457751747238  0.2365620025168 1.0
C      1  0.6356066198572  0.7527045067225  0.2360939795660 1.0
C      1  0.2191300543536  0.3857648888237  0.3823893749384 1.0
C      1  0.2632505489166  0.6871738231337  0.3842284464443 1.0
C      1  0.5426500381577  0.8026813171873  0.3854780770954 1.0
C      1  0.7808661350409  0.6142371141173  0.3823827478580 1.0
C      1  0.7367430690316  0.3128279934033  0.3842218925747 1.0
C      1  0.4573454536943  0.1973199861681  0.3854782727892 1.0
C      1  0.7456123477450  0.6793622671679  0.5146897332165 1.0
C      1  0.7792657779464  0.3739852021463  0.5170795052371 1.0
C      1  0.5315098211095  0.1944740613172  0.5179260561746 1.0
C      1  0.2543856188362  0.3206383897397  0.5146963854505 1.0
C      1  0.2207335212378  0.6260146411031  0.5170887587208 1.0
C      1  0.4684881730997  0.8055265749553  0.5179272001446 1.0
C      1  0.4771647546817  0.7473151916619  0.5972823053186 1.0
C      1  0.7040841959614  0.6432914020237  0.5968274934489 1.0
C      1  0.7256114080908  0.3965364729919  0.5978170512779 1.0
C      1  0.5228371007370  0.2526858955369  0.5972812964093 1.0
C      1  0.2959163880043  0.3567094300594  0.5968330561773 1.0
C      1  0.2743904239894  0.6034629278968  0.5978255653123 1.0
C      1  0.6109727690078  0.7170246998186  0.1582535898939 1.0
C      1  0.7441101712837  0.5111644351400  0.1553638039018 1.0
C      1  0.6285920047004  0.2937372550417  0.1588434667283 1.0
C      1  0.3890196704983  0.2829757475589  0.1582537473901 1.0
C      1  0.2558891142253  0.4888404188482  0.1553781953393 1.0
C      1  0.3713990058641  0.7062593344250  0.1588507712783 1.0
C      1  0.2819231570491  0.8401896530390  0.5712893208535 1.0
C      1  0.6849170772753  0.8594224502822  0.5704432178307 1.0
C      1  0.9064166364617  0.5152468269069  0.5660762005694 1.0
C      1  0.7180785650489  0.1598098853732  0.5712810161802 1.0
C      1  0.3150856891146  0.1405753427993  0.5704440809006 1.0
C      1  0.0935863721049  0.4847597074543  0.5660873123371 1.0
C      1  0.6734912588253  0.4828868937324  0.5890235317301 1.0
C      1  0.5717699037208  0.3414033481729  0.5898386764852 1.0
C      1  0.3979112607145  0.3589601905186  0.5898700003743 1.0
C      1  0.3265104860082  0.5171136257228  0.5890290880830 1.0
C      1  0.4282336064465  0.6585967340325  0.5898407213958 1.0
C      1  0.6020892958260  0.6410398534465  0.5898690978268 1.0
C      1  0.5759358418714  0.3587341695739  0.7677473207313 1.0
C      1  0.3992429483552  0.3811531295408  0.7687276565612 1.0
C      1  0.3432580144527  0.4753511423055  0.7694918597408 1.0
C      1  0.4240695817338  0.6412643761620  0.7677509203829 1.0
C      1  0.6007642407688  0.6188445295277  0.7687259540799 1.0
C      1  0.6567492014223  0.5246477991598  0.7694893342739 1.0
C      1  0.2897294212847  0.7685512605163  0.6378394852737 1.0
C      1  0.6290659824211  0.8143846954744  0.6379826639031 1.0
C      1  0.8416645276828  0.5473065284115  0.6319418258328 1.0
C      1  0.7102744931586  0.2314467601566  0.6378317251904 1.0
C      1  0.3709382214356  0.1856137766425  0.6379833288347 1.0
C      1  0.1583407662293  0.4526937351302  0.6319556043948 1.0
C      1  0.2625000855795  0.6731582857568  0.7581001898514 1.0
C      1  0.5379416946041  0.7776536611970  0.7569623564730 1.0
C      1  0.7822446251001  0.6227357139215  0.7488222397476 1.0
C      1  0.7375052190994  0.3268418873240  0.7580909842776 1.0
C      1  0.4620640143128  0.2223439331927  0.7569623989176 1.0
C      1  0.2177613487840  0.3772625634378  0.7488293407474 1.0
C      1  0.4566335952611  0.4140874595853  0.0529237591541 1.0
C      1  0.4044254884235  0.4945911514824  0.0530271054454 1.0
C      1  0.4474810252524  0.5802625348232  0.0529933538827 1.0
C      1  0.5433562196137  0.5859130275783  0.0529215461337 1.0
C      1  0.5955661061356  0.5054095766142  0.0530206170977 1.0
C      1  0.5525099914722  0.4197374293356  0.0529908687147 1.0
C      1  0.5747790462372  0.7392214028079  0.5746025949478 1.0
C      1  0.7458028307220  0.5551741911000  0.5722591673121 1.0
C      1  0.6699974985377  0.3161675283552  0.5745773881998 1.0
C      1  0.4252209255371  0.2607777324132  0.5746033638455 1.0
C      1  0.2541981204171  0.4448261950368  0.5722647246027 1.0
C      1  0.3300049515592  0.6838306101109  0.5745829614421 1.0
C      1  0.4527401111893  0.5831227793947  0.8391265037499 1.0
C      1  0.5462496030553  0.5785079102738  0.8422737528403 1.0
C      1  0.5943843038001  0.4974902561810  0.8441675544646 1.0
C      1  0.5472675684034  0.4168767250825  0.8391243459046 1.0
C      1  0.4537573786481  0.4214905959205  0.8422757394370 1.0
C      1  0.4056225902994  0.5025085197281  0.8441703300523 1.0
C      1  0.5377446645831  0.4127114609844  0.5241771964389 1.0
C      1  0.4431988346677  0.4234658818805  0.5239372791828 1.0
C      1  0.4055474244304  0.5109322096526  0.5239398067516 1.0
C      1  0.4622563690987  0.5872881533576  0.5241797251950 1.0
C      1  0.5568013732021  0.5765345880916  0.5239373082435 1.0
C      1  0.5944527259158  0.4890681307335  0.5239381789553 1.0
C      1  0.8414495649738  0.4095481444369  0.4570542097232 1.0
C      1  0.5941434014657  0.1561499169161  0.4604536954367 1.0
C      1  0.2515859629938  0.2467237657283  0.4584435892998 1.0
C      1  0.1585472125741  0.5904539606032  0.4570644335567 1.0
C      1  0.4058526019321  0.8438491150312  0.4604566817651 1.0
C      1  0.7484114585429  0.7532774659243  0.4584388486531 1.0
C      1  0.6598373270363  0.5081528399485  0.1300566613836 1.0
C      1  0.5868290177747  0.3656494875845  0.1304331720487 1.0
C      1  0.4269598618598  0.3572750283943  0.1305907663056 1.0
C      1  0.3401587612612  0.4918497896716  0.1300683092305 1.0
C      1  0.4131656253733  0.6343496561404  0.1304395548394 1.0
C      1  0.5730334003524  0.6427246436096  0.1305886133137 1.0
C      1  0.3062053477730  0.2494062131104  0.3112546414303 1.0
C      1  0.1891314741902  0.5441303696205  0.3101394523566 1.0
C      1  0.3827004262607  0.7950310310808  0.3123858676132 1.0
C      1  0.6937910158281  0.7505968021372  0.3112517890271 1.0
C      1  0.8108606452718  0.4558704733825  0.3101299091953 1.0
C      1  0.6172906102639  0.2049688107867  0.3123815931290 1.0
C      1  0.7186549961885  0.3157590354774  0.4806250457883 1.0
C      1  0.4504443285946  0.2169762815163  0.4806828367230 1.0
C      1  0.2329709603711  0.4019002968338  0.4771910649722 1.0
C      1  0.2813421382200  0.6842414874287  0.4806309735952 1.0
C      1  0.5495553039775  0.7830263924059  0.4806827801276 1.0
C      1  0.7670260952040  0.5980997484167  0.4771826817258 1.0
C      1  0.3661882378673  0.7780084004209  0.7067057673005 1.0
C      1  0.6800396094151  0.7539967125990  0.7038908291506 1.0
C      1  0.8092165323334  0.4793070176845  0.7044536877193 1.0
C      1  0.6338182715206  0.2219889458461  0.7066998086609 1.0
C      1  0.3199671612900  0.2460029588993  0.7038954053010 1.0
C      1  0.1907890270870  0.5206925443061  0.7044647672558 1.0
C      1  0.2165609874759  0.7157532177732  0.6918380706816 1.0
C      1  0.5483136862016  0.8462944942588  0.6970635185984 1.0
C      1  0.8402339930435  0.6393981700243  0.6808089402327 1.0
C      1  0.7834427021465  0.2842455820280  0.6918303266080 1.0
C      1  0.4516932428020  0.1537024108808  0.6970632763599 1.0
C      1  0.1597696644356  0.3606010645475  0.6808172402419 1.0
C      1  0.5370167242916  0.2069082844348  0.6865506496096 1.0
C      1  0.2538350701637  0.3154583641546  0.6798624584857 1.0
C      1  0.2237154246803  0.6129249413934  0.6855435924346 1.0
C      1  0.4629900828951  0.7930905863424  0.6865528482054 1.0
C      1  0.7461714213560  0.6845401111174  0.6798547219201 1.0
C      1  0.7762881818069  0.3870739349370  0.6855348304382 1.0
C      1  0.3070534294273  0.7396561816878  0.3207271766720 1.0
C      1  0.6089170576181  0.7901661369028  0.3205398912471 1.0
C      1  0.8031980679122  0.5494049893393  0.3185279527928 1.0
C      1  0.6929396331941  0.2603429627465  0.3207221971990 1.0
C      1  0.3910768878387  0.2098334172968  0.3205407210468 1.0
C      1  0.1967946966365  0.4505976953664  0.3185356392200 1.0
C      1  0.5937957464948  0.5047802519119  0.2088421484245 1.0
C      1  0.5508794921280  0.4214636198960  0.2091228887961 1.0
C      1  0.4571947130959  0.4166382467985  0.2091320611671 1.0
C      1  0.4062049491898  0.4952192989112  0.2088526917699 1.0
C      1  0.4491218735407  0.5785363974585  0.2091288268106 1.0
C      1  0.5428059728604  0.5833610908141  0.2091307663608 1.0
END
