TITL C-30446-5047-44 -6.425 3375.00 -1118.95928784 0 0 136 (C1) n - 1
REM
REM Run started: at 2020.12.21 22:10:41 in /gpfs/home/chem/mssmkc/CARBON/AIRSS/Generating-Clusters/Str-Search/Higher-Symm/C100-200
REM VASP from code version vasp.5.4.4.18Apr17-6-g9f103f2a35 (build Oct 11 2019 16:45:47) gamma-only
REM
REM
REM
REM
REM ./C.cell (533062f00bc710175b3da973d35f2034)
REM AIRSS Version 0.9.1 bugfix July 2018 build 013d7b7c2542+ Fri, 06 Jul 2018 19:26:36 +0100
REM compiler GCC version 6.3.0
REM options -cpp -iprefix /gpfs/warwick/csc/orac/software/Core/GCCcore/6.3.0/bin/../lib/gcc/x86_64-pc-linux-gnu/6.3.0/ -mtune=generic -march=x86-64 -g -O0
REM seed 627233338 1338645558 1679605912 1612414322 411722051 -803131828 -338027414 884794007 -959802028 1211338834 -1947456159 551317654
REM
REM C.POTCAR (d86ddea03c3ceb6dc662c8ad6801f873)
REM 
CELL 1.54180   15.00000   15.00000   15.00000   90.00000   90.00000   90.00000
LATT -1
SFAC C  
C      1  0.8589976087736  0.6342764833783  0.5104883749522 1.0
C      1  0.8599797531907  0.6102282668131  0.4192657963255 1.0
C      1  0.8602257221216  0.5316805634315  0.3651897893152 1.0
C      1  0.8610291789596  0.4366650251923  0.3739251028601 1.0
C      1  0.8613977398492  0.3697443297861  0.4415961514933 1.0
C      1  0.8592507082808  0.3614639359256  0.5369530041491 1.0
C      1  0.8525954717809  0.4161414215540  0.6145481116603 1.0
C      1  0.8512720007890  0.5086715809809  0.6385355036046 1.0
C      1  0.8576051604630  0.5945506159086  0.5979338187455 1.0
C      1  0.6683409600882  0.4845830526898  0.5785715395547 1.0
C      1  0.6365384732603  0.5492856478865  0.6401751332737 1.0
C      1  0.6085870534755  0.6186504065310  0.5792141298252 1.0
C      1  0.6427420798043  0.6378061079609  0.4884611934228 1.0
C      1  0.6548261615818  0.5900101534443  0.4090150931226 1.0
C      1  0.6560344253438  0.4992261422894  0.3848358053881 1.0
C      1  0.6575139879472  0.4127414921501  0.4159910513600 1.0
C      1  0.6476864526777  0.3607339826388  0.4944778821822 1.0
C      1  0.6473537461263  0.3923561029355  0.5827286716001 1.0
C      1  0.8113373343049  0.6569789588008  0.6569474369059 1.0
C      1  0.8118406098076  0.7206481684147  0.5169499985982 1.0
C      1  0.8115613518844  0.6811203022497  0.3692199064239 1.0
C      1  0.8104595205742  0.5531073172939  0.2838176100348 1.0
C      1  0.8117896696294  0.4000812456561  0.2965923320315 1.0
C      1  0.8141680124867  0.2911226737856  0.4051702863247 1.0
C      1  0.8123389783027  0.2780659741092  0.5578494603884 1.0
C      1  0.8032158063104  0.3666868877306  0.6835950806854 1.0
C      1  0.8005497316695  0.5171238934740  0.7219868968809 1.0
C      1  0.2609181176031  0.4340364701998  0.7172419205272 1.0
C      1  0.2674189616854  0.5935296451189  0.7089396808266 1.0
C      1  0.2614541123384  0.7052099842478  0.6017902935503 1.0
C      1  0.2527280069716  0.7258767917595  0.4411847271390 1.0
C      1  0.2491953906868  0.6402997475834  0.3111810649231 1.0
C      1  0.2493871754625  0.4853867350376  0.2655222533824 1.0
C      1  0.2525470508717  0.3424443282886  0.3280623828845 1.0
C      1  0.2527772416395  0.2681866390486  0.4718226845010 1.0
C      1  0.2585022786593  0.3037939371858  0.6235107337006 1.0
C      1  0.4367421973673  0.6524402582036  0.2842829915340 1.0
C      1  0.4372328331839  0.4928236053330  0.2453727295755 1.0
C      1  0.4400561719456  0.3220298672548  0.3097915142102 1.0
C      1  0.4382078941131  0.2343772382643  0.4624871577981 1.0
C      1  0.4448278417554  0.2770629838593  0.6378297956906 1.0
C      1  0.4553704319611  0.4191441011021  0.7485282832132 1.0
C      1  0.4492846467031  0.6050415488369  0.7400955887754 1.0
C      1  0.4510177344847  0.7263744093972  0.5963733033782 1.0
C      1  0.4380025088116  0.7645081248907  0.4317140108074 1.0
C      1  0.5599239349663  0.4973320695020  0.3548153443141 1.0
C      1  0.5608713173049  0.3935163933382  0.3830627276225 1.0
C      1  0.5632842385059  0.3283771903414  0.4604722036257 1.0
C      1  0.5740054496965  0.3715810918548  0.6406208530962 1.0
C      1  0.5304761094574  0.4410854170564  0.6871043712176 1.0
C      1  0.5710831499930  0.5231254939320  0.7040672892958 1.0
C      1  0.5252415208902  0.6695524764827  0.5586436751839 1.0
C      1  0.5513956859815  0.6699130657921  0.4603533598959 1.0
C      1  0.5586447688478  0.6055093426965  0.3794373661829 1.0
C      1  0.3057801765083  0.2476210737704  0.5554641952121 1.0
C      1  0.3067516401709  0.3430320220000  0.7035298044976 1.0
C      1  0.3107531525316  0.5149482691104  0.7563101500740 1.0
C      1  0.3170264446483  0.6784808878833  0.6829800045343 1.0
C      1  0.2976389055671  0.7600096632970  0.5251276912931 1.0
C      1  0.3040773302898  0.7136193588749  0.3544241901071 1.0
C      1  0.2891461614013  0.5760618890279  0.2443190632129 1.0
C      1  0.3042653496201  0.4008190307304  0.2632144719225 1.0
C      1  0.2960071845861  0.2670878879068  0.3802024095533 1.0
C      1  0.3990182402926  0.7166807406335  0.3499960219197 1.0
C      1  0.3846323262583  0.5759454761049  0.2488305254456 1.0
C      1  0.3989696627494  0.4035782925123  0.2667004984853 1.0
C      1  0.3920044744184  0.2666301345235  0.3792371062728 1.0
C      1  0.3986688086065  0.2420233770092  0.5538308829919 1.0
C      1  0.3995992742127  0.3395536810819  0.7011086604149 1.0
C      1  0.4023880277922  0.5150213317648  0.7563490186582 1.0
C      1  0.4085367665106  0.6813440630474  0.6860734207583 1.0
C      1  0.3902301618916  0.7579884146388  0.5169092965535 1.0
C      1  0.5341463273830  0.6255114044821  0.2807781266028 1.0
C      1  0.5341407676107  0.5184353388620  0.2562517677990 1.0
C      1  0.5378780250593  0.3245946156921  0.3136704610764 1.0
C      1  0.5359641157458  0.2387920250816  0.4644563899243 1.0
C      1  0.5412500498890  0.2804886339839  0.6447063858312 1.0
C      1  0.5224858673945  0.3884327706889  0.8218000633988 1.0
C      1  0.5417705084682  0.5979462572159  0.7576087026024 1.0
C      1  0.5398499575806  0.7732268817042  0.5658309568652 1.0
C      1  0.5363205700957  0.7727534215592  0.4562966721039 1.0
C      1  0.7649604890170  0.4292807494218  0.7495375321457 1.0
C      1  0.7757133339677  0.6098390127684  0.7338516140754 1.0
C      1  0.7796864060639  0.7325605364763  0.6067548729338 1.0
C      1  0.7787661308389  0.7477022966419  0.4305598624919 1.0
C      1  0.7760799452992  0.6436333196451  0.2888101501640 1.0
C      1  0.7746685820153  0.4721737036320  0.2456486473223 1.0
C      1  0.7792188068924  0.3118191321717  0.3186156957239 1.0
C      1  0.7780906879010  0.2380572868125  0.4773688456798 1.0
C      1  0.7767903961815  0.2810114592445  0.6476727379473 1.0
C      1  0.0993588412643  0.3618850282088  0.4838188068044 1.0
C      1  0.1032502575322  0.3842304587769  0.5814259455349 1.0
C      1  0.1111224304515  0.4569666790792  0.6422395692251 1.0
C      1  0.1089957358308  0.5514473105770  0.6317270755095 1.0
C      1  0.1051895350942  0.6235828155723  0.5629442126732 1.0
C      1  0.0991651052034  0.6358412779110  0.4716598948582 1.0
C      1  0.0961094849019  0.5815481782812  0.3870267519159 1.0
C      1  0.0956736215997  0.4935008344040  0.3601758708036 1.0
C      1  0.0968811886473  0.4019703501104  0.4009258482259 1.0
C      1  0.1588900148989  0.4323694378698  0.7259682449139 1.0
C      1  0.1696259466121  0.6092714941688  0.6859513633384 1.0
C      1  0.1658617644501  0.6793396009363  0.6225370344654 1.0
C      1  0.1560762325860  0.7027351802324  0.4223456726149 1.0
C      1  0.1537697299971  0.6516694435480  0.3436696622091 1.0
C      1  0.1537260538076  0.4581304371881  0.2857217946671 1.0
C      1  0.1554193936930  0.3724752744122  0.3238806012644 1.0
C      1  0.1570102993322  0.2807652867135  0.5025314176444 1.0
C      1  0.1609355460491  0.3048532114611  0.5945425603513 1.0
C      1  0.6951170595999  0.1932164563435  0.4720795507477 1.0
C      1  0.6974891749966  0.2361395106825  0.6676981412481 1.0
C      1  0.6915408160518  0.4118067741344  0.8035394802141 1.0
C      1  0.6980712115359  0.6374970744098  0.7768443713534 1.0
C      1  0.7011198090479  0.7820231379036  0.6218024875103 1.0
C      1  0.6988757183737  0.7970729776502  0.4193651342156 1.0
C      1  0.6940602107835  0.6689077885864  0.2489669540126 1.0
C      1  0.6900944443982  0.4741736617536  0.2034884227402 1.0
C      1  0.6956168445458  0.2805574409902  0.2899935573284 1.0
C      1  0.2885533931109  0.5507814665488  0.6152733328400 1.0
C      1  0.2853961660680  0.6161397719350  0.5539339354519 1.0
C      1  0.2795538762042  0.6275030312116  0.4657978228890 1.0
C      1  0.2768507557917  0.5786669850095  0.3906326094507 1.0
C      1  0.2760695699502  0.4929378954806  0.3668580258826 1.0
C      1  0.2772689741565  0.4107912359505  0.4028269522990 1.0
C      1  0.2793533799705  0.3690719808602  0.4816150197415 1.0
C      1  0.2816621890911  0.3900153061204  0.5686776675027 1.0
C      1  0.2832722365503  0.4617343128025  0.6222271634325 1.0
C      1  0.6157333227356  0.6474401407991  0.7880743636010 1.0
C      1  0.6206075987454  0.7945285711364  0.6095609202181 1.0
C      1  0.6172019274878  0.8115753753448  0.4173970220898 1.0
C      1  0.6117333847411  0.6720913850145  0.2431752721442 1.0
C      1  0.6087380763883  0.4871433362137  0.2012208266374 1.0
C      1  0.6125937711430  0.2809476074391  0.2796183330602 1.0
C      1  0.6120571181472  0.1822002860445  0.4694234838695 1.0
C      1  0.6149380986988  0.2242463627375  0.6615853137085 1.0
C      1  0.6091686702803  0.4010881174559  0.8277472834034 1.0
C      1  0.5931013926239  0.5237375803691  0.5372635608315 1.0
END
