TITL C-30544-8579-3 -4.187 3375.00 -704.39636324 0 0 89 (C1) n - 1
REM
REM Run started: at 2020.12.28 02:01:52 in /rds/project/t2_vol4/rds-t2-cs072/BORA/CARBON/AIRSS/Generating-Clusters/Str-Search/Higher-Symm/C10-100
REM VASP from code version vasp.5.4.4.18Apr17-6-g9f103f2a35 (build Oct 11 2019 16:45:47) gamma-only
REM
REM
REM
REM
REM ./C.cell (f39ce9773e2efe3fa5bbdf770a4156b8)
REM AIRSS Version 0.9.1 bugfix July 2018 build 013d7b7c2542+ Fri, 06 Jul 2018 19:26:36 +0100
REM compiler GCC version 4.8.5 20150623 (Red Hat 4.8.5-39)
REM options -cpp -mtune=generic -march=x86-64 -g -O0
REM seed -817390602 1254611285 -1458865804 1750437612 1016418331 1064033948 -68977479 1909864517 -763171198 -467734378 -32977208 1833770444
REM
REM C.POTCAR (d86ddea03c3ceb6dc662c8ad6801f873)
REM 
CELL 1.54180   15.00000   15.00000   15.00000   90.00000   90.00000   90.00000
LATT -1
SFAC C  
C      1  0.3200026247641  0.5165780816863  0.2497657228955 1.0
C      1  0.5610369112582  0.3488577983110  0.2500878082646 1.0
C      1  0.5861488354609  0.6407094224204  0.2505364223417 1.0
C      1  0.3756458396611  0.4260511844626  0.4426934949125 1.0
C      1  0.6209196931489  0.4368367339745  0.4486203462759 1.0
C      1  0.4837688307292  0.6628053196898  0.4408741538824 1.0
C      1  0.4645253466461  0.5989445275286  0.3772637157830 1.0
C      1  0.4265605584234  0.4366783205088  0.3696500707792 1.0
C      1  0.5837791597134  0.4812917807851  0.3778219028317 1.0
C      1  0.2914852286963  0.6596508115828  0.4498223888846 1.0
C      1  0.4563061646078  0.2334522588538  0.4459829503262 1.0
C      1  0.7305274976277  0.6102353350661  0.4526369169004 1.0
C      1  0.7240928337354  0.2968830106805  0.5573913944507 1.0
C      1  0.5264996039733  0.8287979594209  0.5464879708197 1.0
C      1  0.2052501064275  0.4028086061252  0.5795414934731 1.0
C      1  0.4106506981266  0.6238501134378  0.7004802040707 1.0
C      1  0.4552166654682  0.3429377653219  0.7105092187598 1.0
C      1  0.6570786640115  0.5371994746654  0.7027601130512 1.0
C      1  0.5708356208472  0.2590039446847  0.5791206324405 1.0
C      1  0.6755679174322  0.6881535475606  0.6451863524895 1.0
C      1  0.2473139973984  0.5375681029008  0.5745829459281 1.0
C      1  0.4116883503712  0.7392589599436  0.3257440391704 1.0
C      1  0.3200026345294  0.3270649329329  0.3424483444606 1.0
C      1  0.7319135941322  0.4483711937118  0.3400176715553 1.0
C      1  0.4315595380047  0.7528620914699  0.4230140115889 1.0
C      1  0.3155025021540  0.3426824168211  0.4448641082009 1.0
C      1  0.7246072763978  0.4331218219842  0.4416913355711 1.0
C      1  0.4033756283339  0.2542801623332  0.5754543227142 1.0
C      1  0.7493854120258  0.5408165752075  0.5753869425386 1.0
C      1  0.3430441823008  0.7083715304050  0.5734557066942 1.0
C      1  0.5724287304696  0.5613610902635  0.6454360407255 1.0
C      1  0.3973150003962  0.5307708388699  0.6679949124631 1.0
C      1  0.5321058854325  0.3943341402307  0.6805676997061 1.0
C      1  0.5718389811790  0.4374396223945  0.2332657666821 1.0
C      1  0.5052252495744  0.6024627195161  0.2328816171920 1.0
C      1  0.3917105002740  0.4649307677063  0.2294507067590 1.0
C      1  0.2702542604638  0.5512263840743  0.3117146461803 1.0
C      1  0.5467550429803  0.2835273059196  0.3034604747884 1.0
C      1  0.6451299505585  0.6660733960131  0.3075053000081 1.0
C      1  0.6415704511444  0.4770400962821  0.2969181454602 1.0
C      1  0.4347338503897  0.6440406573265  0.2930356854995 1.0
C      1  0.3908837496831  0.3860408302498  0.2928556097347 1.0
C      1  0.5019524436636  0.8176490965138  0.4535308771292 1.0
C      1  0.2284266687347  0.3744137711159  0.4888581814280 1.0
C      1  0.7627217372449  0.3596850569991  0.4985747564055 1.0
C      1  0.6991385935347  0.6289334386532  0.5594761125566 1.0
C      1  0.2943909939903  0.6222665051977  0.5448493186182 1.0
C      1  0.4944775594625  0.2241124069325  0.5349486051829 1.0
C      1  0.4031882286078  0.4808052707887  0.5157977968315 1.0
C      1  0.5637067735043  0.4191436124365  0.5216782740811 1.0
C      1  0.5545891058179  0.6671574428614  0.5036700094986 1.0
C      1  0.2827476937293  0.6309115774641  0.3583741165648 1.0
C      1  0.4749110011235  0.2518388368234  0.3529561776203 1.0
C      1  0.7077537949489  0.6205720863573  0.3589384045288 1.0
C      1  0.5929412320472  0.8156477292866  0.4178813846319 1.0
C      1  0.1730333860254  0.4368832127586  0.4303652502597 1.0
C      1  0.8466526219188  0.3146963776509  0.5166483870058 1.0
C      1  0.3982655672340  0.7017366751107  0.6472659203110 1.0
C      1  0.3940437895952  0.2950932644469  0.6575231658786 1.0
C      1  0.7321673256525  0.4961760658739  0.6509900295506 1.0
C      1  0.5829552399455  0.7643850298409  0.4993005757444 1.0
C      1  0.1948826881642  0.4760153846904  0.5132465917774 1.0
C      1  0.7862174335771  0.2369749901760  0.5135170265456 1.0
C      1  0.3450167354238  0.6844587637329  0.3034235447946 1.0
C      1  0.3946718907795  0.2886769545916  0.3099686694425 1.0
C      1  0.7213401186400  0.5335699961615  0.3127158338827 1.0
C      1  0.5749323043191  0.6599600452436  0.6828344927221 1.0
C      1  0.3299694329701  0.4558170536893  0.6945433105291 1.0
C      1  0.6303868540408  0.3700815918624  0.6968058491003 1.0
C      1  0.4808803458206  0.6837732953168  0.6943485565525 1.0
C      1  0.3671141924283  0.3723303753087  0.7088355838916 1.0
C      1  0.6848066469846  0.4430198256634  0.7113618468734 1.0
C      1  0.3493259635300  0.7306050934372  0.4795760259821 1.0
C      1  0.3727782416694  0.2702801666054  0.4874155950904 1.0
C      1  0.7547765678640  0.5231614521398  0.4830951200139 1.0
C      1  0.6492564258613  0.2970713375868  0.6211426253310 1.0
C      1  0.6632437313260  0.6366854290265  0.7223293617137 1.0
C      1  0.2531175951422  0.4622670270476  0.6402499337407 1.0
C      1  0.3523192159537  0.5419980120157  0.5682065198723 1.0
C      1  0.5668855666026  0.3566752355233  0.5905967063822 1.0
C      1  0.6005012686331  0.6049399454933  0.5563934466290 1.0
C      1  0.4920630231363  0.5018296865255  0.1013171236156 1.0
C      1  0.4967385603886  0.4931291293141  0.6467310644060 1.0
C      1  0.4758214487185  0.5161954504189  0.8458787194000 1.0
C      1  0.4919271728925  0.5075389854596  0.3755633656065 1.0
C      1  0.4880323198306  0.5067226577722  0.0189660929527 1.0
C      1  0.4833811802302  0.5124690773012  0.9298262090739 1.0
C      1  0.4860231557147  0.4680600603904  0.5499626785841 1.0
C      1  0.4903640936241  0.5016365870705  0.1974388544126 1.0
END
