TITL C-31273-9599-126 -3.736 3375.00 -687.06879988 0 0 84 (C4) n - 1
REM
REM Run started: at 2020.12.30 02:03:34 in /gpfs/home/chem/mssmkc/CARBON/AIRSS/Generating-Clusters/Str-Search/Higher-Symm/C4-100
REM VASP from code version vasp.5.4.4.18Apr17-6-g9f103f2a35 (build Oct 11 2019 16:45:47) gamma-only
REM
REM
REM
REM
REM ./C.cell (6bd13a13d554368a30d355f37ece5b26)
REM AIRSS Version 0.9.1 bugfix July 2018 build 013d7b7c2542+ Fri, 06 Jul 2018 19:26:36 +0100
REM compiler GCC version 6.3.0
REM options -cpp -iprefix /gpfs/warwick/csc/orac/software/Core/GCCcore/6.3.0/bin/../lib/gcc/x86_64-pc-linux-gnu/6.3.0/ -mtune=generic -march=x86-64 -g -O0
REM seed -156918787 -1363806812 1765245445 1416205879 -1551830631 1662321735 632717144 -1717005549 24356792 -1990102100 -1971581546 1864041146
REM
REM C.POTCAR (d86ddea03c3ceb6dc662c8ad6801f873)
REM 
CELL 1.54180   15.00000   15.00000   15.00000   90.00000   90.00000   90.00000
LATT -1
SFAC C  
C      1  0.4676011861292  0.5799643888031  0.4176852830722 1.0
C      1  0.4676010394972  0.4176852000903  0.4200356277155 1.0
C      1  0.4676010019354  0.4200356226790  0.5823145051420 1.0
C      1  0.4676008987998  0.5823145680879  0.5799643208638 1.0
C      1  0.4046144286154  0.3675729984158  0.6508276421523 1.0
C      1  0.4046144547428  0.6508276328396  0.6324270520921 1.0
C      1  0.4046147811130  0.6324274152918  0.3491722450476 1.0
C      1  0.4046148601666  0.3491723149491  0.3675727367543 1.0
C      1  0.6886070915487  0.3230668269476  0.5593065962635 1.0
C      1  0.6886069668760  0.5593065183044  0.6769334178902 1.0
C      1  0.6886070750744  0.6769332458566  0.4406938028189 1.0
C      1  0.6886073363984  0.4406935548631  0.3230670154446 1.0
C      1  0.4564185105602  0.7208940938835  0.3707211810182 1.0
C      1  0.4564186022154  0.3707210196165  0.2791060757610 1.0
C      1  0.4564182257556  0.2791062734153  0.6292788894422 1.0
C      1  0.4564182286952  0.6292788087025  0.7208938456302 1.0
C      1  0.3181091175536  0.3764377950889  0.5919369591500 1.0
C      1  0.3181090779017  0.5919370393013  0.6235620909603 1.0
C      1  0.3181092875772  0.6235622896162  0.4080626004533 1.0
C      1  0.3181094175240  0.4080627889568  0.3764375388863 1.0
C      1  0.7912969535295  0.5488531164041  0.5500261062951 1.0
C      1  0.7912970865738  0.5500258318125  0.4511473171767 1.0
C      1  0.7912969845628  0.4511469680751  0.4499744856942 1.0
C      1  0.7912968676991  0.4499742403108  0.5488533355903 1.0
C      1  0.6093866172084  0.4288977972722  0.4903199167377 1.0
C      1  0.6093864554094  0.4903199526693  0.5711022861406 1.0
C      1  0.6093865479486  0.5711022167386  0.5096801038142 1.0
C      1  0.6093865386826  0.5096800826313  0.4288978387232 1.0
C      1  0.1888496049999  0.5284287391167  0.4366401709101 1.0
C      1  0.1888495171168  0.4366405669361  0.4715709268908 1.0
C      1  0.1888493844433  0.4715712743558  0.5633590110943 1.0
C      1  0.1888494715992  0.5633593432777  0.5284284840129 1.0
C      1  0.3022095052496  0.5052884348714  0.6790417644717 1.0
C      1  0.3022097290431  0.6790420229482  0.4947113731764 1.0
C      1  0.3022098047285  0.4947113623805  0.3209577310302 1.0
C      1  0.3022096405616  0.3209578940664  0.5052883489487 1.0
C      1  0.6743075481545  0.4600587296949  0.6540479342042 1.0
C      1  0.6743074933576  0.6540477032868  0.5399415962934 1.0
C      1  0.6743078092486  0.5399413742839  0.3459524723422 1.0
C      1  0.6743076635118  0.3459523284009  0.4600587931318 1.0
C      1  0.4519633492869  0.5299827063856  0.7412330909808 1.0
C      1  0.4519634683876  0.7412333403671  0.4700169824159 1.0
C      1  0.4519638708826  0.4700169409079  0.2587665951315 1.0
C      1  0.4519635755676  0.2587668574309  0.5299829696787 1.0
C      1  0.5481808212935  0.3408415334124  0.2791287652754 1.0
C      1  0.5481807450802  0.2791287116565  0.6591585882503 1.0
C      1  0.5481803959556  0.6591584297268  0.7208712951389 1.0
C      1  0.5481813727487  0.7208711985253  0.3408415451397 1.0
C      1  0.7355301924566  0.6021160146013  0.3966204187347 1.0
C      1  0.7355302113444  0.3966201611561  0.3978843347602 1.0
C      1  0.7355301654777  0.3978840659598  0.6033800587783 1.0
C      1  0.7355300314320  0.6033799112685  0.6021162728677 1.0
C      1  0.2504954595525  0.3724018723568  0.4421628108680 1.0
C      1  0.2504952498850  0.4421630838230  0.6275979342580 1.0
C      1  0.2504953352386  0.6275980764309  0.5578365827266 1.0
C      1  0.2504954514979  0.5578368418556  0.3724016971884 1.0
C      1  0.5205471370335  0.3840899453539  0.4999528290595 1.0
C      1  0.5205469750137  0.4999527267145  0.6159100434072 1.0
C      1  0.5205470395991  0.6159099851991  0.5000472578677 1.0
C      1  0.5205472488477  0.5000473768696  0.3840898897924 1.0
C      1  0.5712450412603  0.6583283104572  0.2751124854972 1.0
C      1  0.5712452157524  0.2751120483254  0.3416720215694 1.0
C      1  0.5712449357533  0.3416718465567  0.7248880147861 1.0
C      1  0.5712443962654  0.7248879631032  0.6583283437359 1.0
C      1  0.6085058171738  0.2775850003076  0.5836879788218 1.0
C      1  0.6085056820521  0.5836878776828  0.7224150280640 1.0
C      1  0.6085058923916  0.7224151473262  0.4163124832958 1.0
C      1  0.6085061073528  0.4163120355621  0.2775852263690 1.0
C      1  0.3791961924009  0.5440794252378  0.5532286372053 1.0
C      1  0.3791961187005  0.5532290514243  0.4559205329488 1.0
C      1  0.3791960565972  0.4559205935838  0.4467707810879 1.0
C      1  0.3791961265949  0.4467709848867  0.5440791122861 1.0
C      1  0.6035237313691  0.4234159043115  0.7198688502595 1.0
C      1  0.6035234522831  0.7198688192430  0.5765839740976 1.0
C      1  0.6035240582945  0.5765842623300  0.2801313369499 1.0
C      1  0.6035237337590  0.2801310315375  0.4234164287579 1.0
C      1  0.5460787315427  0.2771684101935  0.5052815540200 1.0
C      1  0.5460785811215  0.5052814521057  0.7228317163805 1.0
C      1  0.5460786370400  0.7228316845681  0.4947185872860 1.0
C      1  0.5460791163745  0.4947184350781  0.2771681386922 1.0
C      1  0.3833329596396  0.5314857316185  0.2854997875400 1.0
C      1  0.3833329255959  0.2855001235460  0.4685140394259 1.0
C      1  0.3833327392012  0.4685138440677  0.7144996458873 1.0
C      1  0.3833328425940  0.7144998617027  0.5314859094791 1.0
END
