TITL C-31273-9599-10 -4.421 3375.00 -784.47855687 0 0 90 (C1) n - 1
REM
REM Run started: at 2020.12.29 03:30:33 in /gpfs/home/chem/mssmkc/CARBON/AIRSS/Generating-Clusters/Str-Search/Higher-Symm/C4-100
REM VASP from code version vasp.5.4.4.18Apr17-6-g9f103f2a35 (build Oct 11 2019 16:45:47) gamma-only
REM
REM
REM
REM
REM ./C.cell (6bd13a13d554368a30d355f37ece5b26)
REM AIRSS Version 0.9.1 bugfix July 2018 build 013d7b7c2542+ Fri, 06 Jul 2018 19:26:36 +0100
REM compiler GCC version 6.3.0
REM options -cpp -iprefix /gpfs/warwick/csc/orac/software/Core/GCCcore/6.3.0/bin/../lib/gcc/x86_64-pc-linux-gnu/6.3.0/ -mtune=generic -march=x86-64 -g -O0
REM seed -196630040 -1162489096 -1665826410 -983379171 1959098094 330790428 1437809062 250531963 377293403 1806682521 -2085423046 -1198386794
REM
REM C.POTCAR (d86ddea03c3ceb6dc662c8ad6801f873)
REM 
CELL 1.54180   15.00000   15.00000   15.00000   90.00000   90.00000   90.00000
LATT -1
SFAC C  
C      1  0.4206178574959  0.7391456062768  0.6727617562382 1.0
C      1  0.5976398408193  0.2540224352334  0.6503210453642 1.0
C      1  0.6904314261578  0.7355380688940  0.4925249132364 1.0
C      1  0.5772972668261  0.2616648688919  0.3285016110287 1.0
C      1  0.3997334876296  0.7466967793509  0.3490295737490 1.0
C      1  0.3066963603408  0.2622120851328  0.5078953296652 1.0
C      1  0.4356482746843  0.2102432417744  0.6102708200221 1.0
C      1  0.5765146567122  0.7841492352314  0.6134735102489 1.0
C      1  0.6231831434324  0.2083068166441  0.4857973910352 1.0
C      1  0.5622058907641  0.7894250633794  0.3892723089611 1.0
C      1  0.4216876281857  0.2156228083280  0.3878019256128 1.0
C      1  0.3756685552840  0.7910107726034  0.5143293024747 1.0
C      1  0.3202641087547  0.5209694774386  0.6724984869961 1.0
C      1  0.5575075521611  0.4728739140082  0.7409562439441 1.0
C      1  0.7379025264237  0.5170305605410  0.5739206401532 1.0
C      1  0.6780273820385  0.4801704639488  0.3229917154387 1.0
C      1  0.4392533752104  0.5274652765170  0.2603977893997 1.0
C      1  0.2597221687881  0.4854124538879  0.4316058492557 1.0
C      1  0.7293529985068  0.6133443047462  0.4029178971195 1.0
C      1  0.5259192449275  0.3902225215308  0.2545653969635 1.0
C      1  0.3050034657505  0.6219652373365  0.3556611895684 1.0
C      1  0.2701037314240  0.3879348384456  0.5944055283253 1.0
C      1  0.4711092790693  0.6100705214837  0.7460128353796 1.0
C      1  0.6923184727779  0.3787355811923  0.6451561620670 1.0
C      1  0.2602777566058  0.3915841740597  0.4323489002251 1.0
C      1  0.3254920265435  0.6147000780233  0.6735067580996 1.0
C      1  0.5565858811675  0.3792210638203  0.7355350124884 1.0
C      1  0.7395698865522  0.6094209980392  0.5708025536181 1.0
C      1  0.6725998221725  0.3859694284607  0.3256867164071 1.0
C      1  0.4401649073278  0.6209406921572  0.2648469060509 1.0
C      1  0.2548272883049  0.5329997597567  0.5168258950259 1.0
C      1  0.3893351713712  0.4695104119858  0.7185841720833 1.0
C      1  0.6351293771797  0.5214277432421  0.7067018609780 1.0
C      1  0.7183204412249  0.4704115817923  0.4847699027015 1.0
C      1  0.6079915515033  0.5311749114888  0.2781205004051 1.0
C      1  0.3623782273013  0.4790670081410  0.2970736636254 1.0
C      1  0.3416453128363  0.2592313934839  0.4166203818565 1.0
C      1  0.3583140791731  0.7469423795722  0.5975322948473 1.0
C      1  0.5010560856820  0.2508141435381  0.6672881670233 1.0
C      1  0.6565766460106  0.7401058321468  0.5852404953428 1.0
C      1  0.6407472848412  0.2522921838729  0.4020634715378 1.0
C      1  0.4963745041876  0.7495101311771  0.3324387620033 1.0
C      1  0.7076418752292  0.3266886860430  0.5647287768639 1.0
C      1  0.6679542137647  0.6680656769795  0.3518808179325 1.0
C      1  0.4492843825699  0.3391293873437  0.2810523465137 1.0
C      1  0.2910743644899  0.6728497284464  0.4358635972536 1.0
C      1  0.3312214115014  0.3337149796870  0.6453247217903 1.0
C      1  0.5485254697660  0.6611962549655  0.7201696748462 1.0
C      1  0.6984279207102  0.4726786504734  0.6508731965173 1.0
C      1  0.7272584016582  0.5211682191142  0.3960094076541 1.0
C      1  0.5262554158870  0.4840322606140  0.2527709311051 1.0
C      1  0.2998116270841  0.5282453649559  0.3536640310704 1.0
C      1  0.2701178539568  0.4816818750387  0.5987714805761 1.0
C      1  0.4704838431008  0.5164411765754  0.7468784118518 1.0
C      1  0.5183781163825  0.7415307754720  0.6765017748963 1.0
C      1  0.6509428486766  0.2487080873168  0.5683513344848 1.0
C      1  0.6452401151870  0.7444631945961  0.4050831584055 1.0
C      1  0.4794446398690  0.2589446289764  0.3247002403795 1.0
C      1  0.3476863022419  0.7506434039318  0.4322209745599 1.0
C      1  0.3525373213369  0.2548870698318  0.5939151198264 1.0
C      1  0.6292006502818  0.6177063902193  0.6956744639482 1.0
C      1  0.7250306695240  0.3693762956741  0.4824213514796 1.0
C      1  0.6037840891073  0.6269258266228  0.2938519029672 1.0
C      1  0.3688191804722  0.3830952306541  0.3070468824811 1.0
C      1  0.2708044665458  0.6287602316355  0.5176860404383 1.0
C      1  0.3938603452545  0.3739500928269  0.7042535999489 1.0
C      1  0.5300807833045  0.8438727129855  0.4582405542164 1.0
C      1  0.4622896397471  0.1573393508701  0.4486708575365 1.0
C      1  0.4522629194168  0.8448125644200  0.5103970098865 1.0
C      1  0.4683702286901  0.1552035558179  0.5421222063942 1.0
C      1  0.5361243930782  0.8417008467412  0.5516891823142 1.0
C      1  0.5465563382269  0.1550980559682  0.4898470701372 1.0
C      1  0.6853858711805  0.6614134529840  0.6315421935658 1.0
C      1  0.6981403752773  0.3300447368053  0.4012049604861 1.0
C      1  0.5204978869875  0.6711413817851  0.2820445651268 1.0
C      1  0.3143269420304  0.3401129617251  0.3718615568276 1.0
C      1  0.3013390412438  0.6692788688675  0.5980524411680 1.0
C      1  0.4769546525021  0.3290202488307  0.7177649566961 1.0
C      1  0.7417669697835  0.6568604862366  0.4874424421968 1.0
C      1  0.6024380209771  0.3412457087673  0.2817224948440 1.0
C      1  0.3684336549245  0.6688719342923  0.3033889313780 1.0
C      1  0.2548279367545  0.3424674170159  0.5129642935959 1.0
C      1  0.3952186025321  0.6593675930874  0.7189431958781 1.0
C      1  0.6287281574017  0.3316746838135  0.6964091518709 1.0
C      1  0.6129402344433  0.4840617764835  0.4914908311117 1.0
C      1  0.5651020077641  0.5620488655186  0.4954022071182 1.0
C      1  0.4804448332408  0.5931377857577  0.5009092211031 1.0
C      1  0.4511034855292  0.5074570630323  0.5023474596839 1.0
C      1  0.4557314119613  0.4171934329066  0.5012215439149 1.0
C      1  0.5459551442551  0.4221341797185  0.4955707985916 1.0
END
