TITL C-31660-4929-3 -1.413 3375.00 -234.93648548 0 0 29 (C1) n - 1
REM
REM Run started: at 2020.11.29 12:08:52 in /rds/project/t2_vol4/rds-t2-cs072/BORA/CARBON/AIRSS/Generating-Clusters/Str-Search/Higher-Symm/C10-100
REM VASP from code version vasp.5.4.4.18Apr17-6-g9f103f2a35 (build Oct 11 2019 16:45:47) gamma-only
REM
REM
REM
REM
REM ./C.cell (f39ce9773e2efe3fa5bbdf770a4156b8)
REM AIRSS Version 0.9.1 bugfix July 2018 build 013d7b7c2542+ Fri, 06 Jul 2018 19:26:36 +0100
REM compiler GCC version 4.8.5 20150623 (Red Hat 4.8.5-39)
REM options -cpp -mtune=generic -march=x86-64 -g -O0
REM seed 1465421898 -696154835 -1653773161 31284385 -1785087788 41058287 521008238 1702959546 -776578863 184158371 -2078704190 -1341539571
REM
REM C.POTCAR (d86ddea03c3ceb6dc662c8ad6801f873)
REM 
CELL 1.54180   15.00000   15.00000   15.00000   90.00000   90.00000   90.00000
LATT -1
SFAC C  
C      1  0.6103785654088  0.5513529915018  0.3658775032949 1.0
C      1  0.5499147338084  0.3853937396608  0.3631631370538 1.0
C      1  0.3885701097010  0.4509435071220  0.3884075962835 1.0
C      1  0.4456690370568  0.6174360147512  0.3788346224210 1.0
C      1  0.3841719125008  0.5488230691665  0.3886475630544 1.0
C      1  0.4528858926376  0.3857655448587  0.3768565626375 1.0
C      1  0.6147382996665  0.4527331996605  0.3580894185108 1.0
C      1  0.5447794883328  0.6160491050808  0.3722545161536 1.0
C      1  0.4200032712042  0.6120208210063  0.6257302553763 1.0
C      1  0.5839357402358  0.5786620556303  0.6082588326659 1.0
C      1  0.5329148515411  0.4128723774460  0.6397021878988 1.0
C      1  0.3894587804702  0.4689012388076  0.6692515144409 1.0
C      1  0.5088640433724  0.6204071623099  0.6428479117484 1.0
C      1  0.3738816027177  0.5502984945792  0.6863374056834 1.0
C      1  0.4376751650025  0.4045091246764  0.6252657833992 1.0
C      1  0.6103823448352  0.4052273280313  0.5878679172858 1.0
C      1  0.5489671480720  0.6525747175045  0.4638748605494 1.0
C      1  0.6644332531432  0.4497994746788  0.4428729687843 1.0
C      1  0.4659778747066  0.3413758692641  0.4655649668352 1.0
C      1  0.3521337132371  0.5466904968671  0.4833547397131 1.0
C      1  0.4535408003134  0.6566863995007  0.4692508116647 1.0
C      1  0.3595936048332  0.4494725823573  0.4829483313341 1.0
C      1  0.5607270927075  0.3387931939373  0.4498939120040 1.0
C      1  0.6574920724006  0.5454526019989  0.4531775731694 1.0
C      1  0.6314550417998  0.3804292420858  0.5004772667484 1.0
C      1  0.4125914729274  0.3853450028443  0.5325434387930 1.0
C      1  0.3933915277232  0.6171419935415  0.5334606065700 1.0
C      1  0.6115209091897  0.6005926741294  0.5177011679877 1.0
C      1  0.5938742504544  0.4856877770009  0.6351594279386 1.0
END
