TITL C-31273-9599-106 -3.635 3375.00 -620.62172873 0 0 76 (C1) n - 1
REM
REM Run started: at 2020.12.29 21:55:52 in /gpfs/home/chem/mssmkc/CARBON/AIRSS/Generating-Clusters/Str-Search/Higher-Symm/C4-100
REM VASP from code version vasp.5.4.4.18Apr17-6-g9f103f2a35 (build Oct 11 2019 16:45:47) gamma-only
REM
REM
REM
REM
REM ./C.cell (6bd13a13d554368a30d355f37ece5b26)
REM AIRSS Version 0.9.1 bugfix July 2018 build 013d7b7c2542+ Fri, 06 Jul 2018 19:26:36 +0100
REM compiler GCC version 6.3.0
REM options -cpp -iprefix /gpfs/warwick/csc/orac/software/Core/GCCcore/6.3.0/bin/../lib/gcc/x86_64-pc-linux-gnu/6.3.0/ -mtune=generic -march=x86-64 -g -O0
REM seed -1653049328 638271004 -1044352671 -1318610124 -1487508960 844649787 -1812290760 1844943779 1085530405 -299719011 1733088536 -365811041
REM
REM C.POTCAR (d86ddea03c3ceb6dc662c8ad6801f873)
REM 
CELL 1.54180   15.00000   15.00000   15.00000   90.00000   90.00000   90.00000
LATT -1
SFAC C  
C      1  0.7756513634122  0.6074398647010  0.5986374859160 1.0
C      1  0.5300507883234  0.2651390835597  0.3807331595984 1.0
C      1  0.4452241812552  0.4558712305671  0.4041593347471 1.0
C      1  0.5016596123060  0.2458426229997  0.5449987739703 1.0
C      1  0.5721134139922  0.5484861528829  0.3454021377509 1.0
C      1  0.6506789796845  0.2710102058357  0.4943412558143 1.0
C      1  0.2231029163030  0.5802927640429  0.4012787900758 1.0
C      1  0.6383789479794  0.6253330541584  0.5034191614110 1.0
C      1  0.5318385647360  0.4649376158253  0.5703761594055 1.0
C      1  0.2377200684223  0.4813506719000  0.3904651937769 1.0
C      1  0.2052131202713  0.6048896018767  0.4887945436171 1.0
C      1  0.7425266786839  0.4050332804693  0.4676827072518 1.0
C      1  0.3363765757975  0.6098684629457  0.2773717166378 1.0
C      1  0.2460056110205  0.5549291765287  0.5537799673587 1.0
C      1  0.6472989290864  0.5370744988166  0.5690229499332 1.0
C      1  0.5389656380818  0.3920479061445  0.2884832669636 1.0
C      1  0.5067363121577  0.7392456116805  0.6299141752836 1.0
C      1  0.4083227854105  0.2634885197217  0.5312588095083 1.0
C      1  0.5957896834204  0.4650265100004  0.2950056846334 1.0
C      1  0.5208064598041  0.2961691641684  0.7002212679770 1.0
C      1  0.3338505779724  0.3245127132125  0.5676441807107 1.0
C      1  0.7178065309766  0.6732332237849  0.5556075694561 1.0
C      1  0.2498102401211  0.4268218239732  0.4674508544583 1.0
C      1  0.3341727275307  0.5935111801234  0.5800933574808 1.0
C      1  0.4882877945798  0.6912220456691  0.3121545573183 1.0
C      1  0.3980143840205  0.6096096886554  0.5190448313255 1.0
C      1  0.5874622289921  0.3132038685295  0.3218025516185 1.0
C      1  0.4864512224262  0.5380315458087  0.3994421535867 1.0
C      1  0.5655986128564  0.6977166530633  0.6930580670278 1.0
C      1  0.7048042966493  0.3215213233065  0.4349911439463 1.0
C      1  0.5711866234172  0.6412248890753  0.3039141527550 1.0
C      1  0.3983717938634  0.6832963554807  0.3023305850166 1.0
C      1  0.6619486932031  0.4249945027019  0.6880634403122 1.0
C      1  0.4417534037773  0.4460928901230  0.5679944838930 1.0
C      1  0.3807841604596  0.2842408830410  0.4392361964380 1.0
C      1  0.6607578396988  0.4707952497858  0.7657776777042 1.0
C      1  0.4530692566031  0.4434085916041  0.7351762847342 1.0
C      1  0.2713940950241  0.6412257421548  0.3434866649949 1.0
C      1  0.2852125009435  0.4596595516850  0.3119318285708 1.0
C      1  0.3369724488771  0.5190484881441  0.2601458139645 1.0
C      1  0.4881128578830  0.3595686629829  0.7430730669004 1.0
C      1  0.7113096380783  0.6558875812771  0.6523268992827 1.0
C      1  0.4400954169432  0.2969272723427  0.3701335037329 1.0
C      1  0.5611605351593  0.2424956575161  0.4676316679407 1.0
C      1  0.3730870591815  0.5549477849041  0.6582145897194 1.0
C      1  0.4207073441152  0.7809019249845  0.4942457232233 1.0
C      1  0.3849762165086  0.4554321658659  0.6584337140250 1.0
C      1  0.5955514904734  0.5442850218981  0.7361202518833 1.0
C      1  0.4971354769702  0.7509226297706  0.5368031702382 1.0
C      1  0.6752499034805  0.3363634114068  0.3445916767814 1.0
C      1  0.6348515787936  0.6378338823223  0.7074095746969 1.0
C      1  0.3599642836712  0.7654429975402  0.4381816874908 1.0
C      1  0.2494482378578  0.4581984156418  0.5588783703610 1.0
C      1  0.3300303223600  0.7182392812750  0.3654747036249 1.0
C      1  0.6818825062023  0.4319405469142  0.3263892712239 1.0
C      1  0.6405725298534  0.7047096039534  0.3313799675160 1.0
C      1  0.5463005279391  0.6808836101291  0.4758197772970 1.0
C      1  0.4374055725763  0.5965021496323  0.7113778998826 1.0
C      1  0.4020030486932  0.4295119314188  0.4833714838464 1.0
C      1  0.3652229148770  0.4288382508389  0.2760170908978 1.0
C      1  0.6388237418751  0.5426513919674  0.4279777262300 1.0
C      1  0.5953217648068  0.4897724494189  0.5046213659963 1.0
C      1  0.4737663385060  0.6829105816897  0.6974124350112 1.0
C      1  0.3231567941936  0.3585746766566  0.4748992401472 1.0
C      1  0.5558966215174  0.7172726709953  0.3786808022040 1.0
C      1  0.4444798412826  0.3886255752579  0.3231064620585 1.0
C      1  0.4957234398800  0.5301077032274  0.7497245404882 1.0
C      1  0.5584579830066  0.2686253446278  0.6215565269628 1.0
C      1  0.7515899570449  0.4219492913207  0.5599451665587 1.0
C      1  0.7456426735846  0.5194959441005  0.5808334187239 1.0
C      1  0.7010199719582  0.3653212405877  0.6216088760505 1.0
C      1  0.6485126187045  0.2930102343740  0.5882326783176 1.0
C      1  0.3081616933424  0.4006125279072  0.6187319104799 1.0
C      1  0.5972219857740  0.4912211245582  0.6427751434715 1.0
C      1  0.4715524573596  0.6079604785057  0.4667608051102 1.0
C      1  0.7134348934061  0.4752084734428  0.4025658746815 1.0
END
