TITL C-31896-717-3 -8.908 3375.00 -1472.52137323 0 0 180 (Cs) n - 1
REM
REM Run started: at 2020.12.25 09:00:47 in /gpfs/home/chem/mssmkc/CARBON/AIRSS/Generating-Clusters/Str-Search/Higher-Symm/Only-C180
REM VASP from code version vasp.5.4.4.18Apr17-6-g9f103f2a35 (build Oct 11 2019 16:45:47) gamma-only
REM
REM
REM
REM
REM ./C.cell (73b75853f6e4503fb4b57bac71549d7d)
REM AIRSS Version 0.9.1 bugfix July 2018 build 013d7b7c2542+ Fri, 06 Jul 2018 19:26:36 +0100
REM compiler GCC version 6.3.0
REM options -cpp -iprefix /gpfs/warwick/csc/orac/software/Core/GCCcore/6.3.0/bin/../lib/gcc/x86_64-pc-linux-gnu/6.3.0/ -mtune=generic -march=x86-64 -g -O0
REM seed -458546508 -1299484718 -1931362169 1356741921 -1055940476 733007921 1482073334 -240102614 -46154660 -1024906101 263092139 908716990
REM
REM C.POTCAR (d86ddea03c3ceb6dc662c8ad6801f873)
REM 
CELL 1.54180   15.00000   15.00000   15.00000   90.00000   90.00000   90.00000
LATT -1
SFAC C  
C      1  0.3130051739110  0.4395244811416  0.7535918924253 1.0
C      1  0.6869960733300  0.4395252479680  0.7535910859059 1.0
C      1  0.4459204158041  0.3653835248328  0.2466363589269 1.0
C      1  0.5540791317924  0.3653835631093  0.2466358204871 1.0
C      1  0.4512971026308  0.8157545687825  0.5140398082578 1.0
C      1  0.5487023829745  0.8157539759900  0.5140396777731 1.0
C      1  0.3703942691079  0.3506525047892  0.4216706655665 1.0
C      1  0.6296058849863  0.3506533296333  0.4216709502105 1.0
C      1  0.6626657148279  0.6166436388632  0.2745429977837 1.0
C      1  0.3373326630936  0.6166428197650  0.2745435037144 1.0
C      1  0.0592188774379  0.5075780772152  0.4975852077918 1.0
C      1  0.9407819449386  0.5075786828878  0.4975850338424 1.0
C      1  0.5536749976315  0.6431978890112  0.7900677426727 1.0
C      1  0.4463263854770  0.6431972038184  0.7900678917038 1.0
C      1  0.5601371641977  0.5704728316484  0.4060358918547 1.0
C      1  0.4398617591527  0.5704735429042  0.4060358350712 1.0
C      1  0.7203924925375  0.3081564138473  0.5938521727681 1.0
C      1  0.2796087508223  0.3081560990884  0.5938537808060 1.0
C      1  0.5458077543317  0.2880667757970  0.5663576528042 1.0
C      1  0.4541930783873  0.2880666447394  0.5663582170890 1.0
C      1  0.3115664797249  0.2221127008025  0.5871129663851 1.0
C      1  0.6884347524995  0.2221130264613  0.5871114937099 1.0
C      1  0.2819806829764  0.4410572037155  0.2332681542988 1.0
C      1  0.7180177646843  0.4410580398603  0.2332670258308 1.0
C      1  0.7445112235173  0.7532704433085  0.3423389842149 1.0
C      1  0.2554873306796  0.7532699702305  0.3423394033968 1.0
C      1  0.8738293643751  0.3918857598985  0.3578119372069 1.0
C      1  0.1261703678753  0.3918844973121  0.3578129390911 1.0
C      1  0.5420340709612  0.7198193364496  0.2181437734178 1.0
C      1  0.4579635344703  0.7198193546547  0.2181439598702 1.0
C      1  0.4526199106138  0.8603419931805  0.6700174199019 1.0
C      1  0.5473800479539  0.8603424137417  0.6700170729629 1.0
C      1  0.4518007129890  0.1967846952318  0.2867578433003 1.0
C      1  0.5481997481487  0.1967850233890  0.2867580975635 1.0
C      1  0.4534764345746  0.4877779057496  0.8724433057988 1.0
C      1  0.5465252580991  0.4877779918258  0.8724431941048 1.0
C      1  0.2221682187165  0.5809881876523  0.7624583595209 1.0
C      1  0.7778332568624  0.5809897111863  0.7624559967572 1.0
C      1  0.1188842122246  0.4195711546060  0.5138040001497 1.0
C      1  0.8811167688043  0.4195718824810  0.5138032740528 1.0
C      1  0.4499881272392  0.1167194835081  0.4242885887055 1.0
C      1  0.5500134059710  0.1167195525937  0.4242883594613 1.0
C      1  0.4469373089397  0.6703410368131  0.4411135802874 1.0
C      1  0.5530632162056  0.6703409881461  0.4411138972029 1.0
C      1  0.5985867140724  0.8328136329901  0.5979369462870 1.0
C      1  0.4014133783653  0.8328132667181  0.5979373525071 1.0
C      1  0.5472882806065  0.8139916112880  0.7591845434476 1.0
C      1  0.4527120447604  0.8139914990231  0.7591842334669 1.0
C      1  0.3124150601132  0.1986619281383  0.3729473195558 1.0
C      1  0.6875859737572  0.1986626747155  0.3729471365167 1.0
C      1  0.7721059983745  0.4856939367717  0.7434046460462 1.0
C      1  0.2278948156148  0.4856921854841  0.7434058251663 1.0
C      1  0.6234122338883  0.5099407323930  0.7303677050766 1.0
C      1  0.3765889405205  0.5099401206232  0.7303679891869 1.0
C      1  0.1326674329340  0.3522588750112  0.4447235239281 1.0
C      1  0.8673334930346  0.3522597515906  0.4447221198234 1.0
C      1  0.7458121655472  0.6600389871357  0.3100549972042 1.0
C      1  0.2541864389672  0.6600377395899  0.3100558826000 1.0
C      1  0.3945849599332  0.3228892535489  0.8562054913970 1.0
C      1  0.6054171590733  0.3228893966302  0.8562054189715 1.0
C      1  0.5539275125688  0.4124410925034  0.4067986568118 1.0
C      1  0.4460722418621  0.4124408844144  0.4067990532698 1.0
C      1  0.7530765053817  0.5940225441594  0.2275043091018 1.0
C      1  0.2469209718909  0.5940212945908  0.2275046135066 1.0
C      1  0.4042953123398  0.2331876689142  0.8307149760390 1.0
C      1  0.5957069493387  0.2331886259371  0.8307150772133 1.0
C      1  0.5478151400471  0.1723364448255  0.6809983506686 1.0
C      1  0.4521870646642  0.1723358960946  0.6809982079034 1.0
C      1  0.1863802683964  0.7695198707604  0.4063669042884 1.0
C      1  0.8136183149085  0.7695212242487  0.4063652500509 1.0
C      1  0.6812967545140  0.4759703709445  0.1534100987651 1.0
C      1  0.3187016019378  0.4759696852921  0.1534109336397 1.0
C      1  0.7027416967938  0.4801313171746  0.3281597062027 1.0
C      1  0.2972562633646  0.4801306406879  0.3281604316764 1.0
C      1  0.8840877802638  0.5583499810643  0.6546709775837 1.0
C      1  0.1159125825875  0.5583489128766  0.6546729208841 1.0
C      1  0.4093714082503  0.1955722537284  0.5881314955096 1.0
C      1  0.5906301534081  0.1955721877149  0.5881323364327 1.0
C      1  0.2272903402502  0.5529196210122  0.4602387168278 1.0
C      1  0.7727097945002  0.5529202284450  0.4602369243599 1.0
C      1  0.7153540325469  0.4007587771461  0.5657062629864 1.0
C      1  0.2846461333354  0.4007579341167  0.5657071720063 1.0
C      1  0.4068225923979  0.4624094907758  0.1166190529184 1.0
C      1  0.5931757884962  0.4624099840617  0.1166187816988 1.0
C      1  0.2067574611043  0.6896367836473  0.5334117764821 1.0
C      1  0.7932424443758  0.6896375447356  0.5334098543563 1.0
C      1  0.6226909503318  0.6123074859215  0.1218193215903 1.0
C      1  0.3773067036143  0.6123077687360  0.1218198057187 1.0
C      1  0.4049965193771  0.7648952826820  0.4387168359101 1.0
C      1  0.5950032043375  0.7648947296492  0.4387166400452 1.0
C      1  0.3720794201895  0.3714376514779  0.7733015967272 1.0
C      1  0.6279220911661  0.3714384836435  0.7733011742766 1.0
C      1  0.1834150477818  0.4284194435694  0.5865908174500 1.0
C      1  0.8165855487943  0.4284204004487  0.5865900694206 1.0
C      1  0.6246877801270  0.5329674054799  0.6363503292505 1.0
C      1  0.3753119802182  0.5329677559397  0.6363505676608 1.0
C      1  0.6027500107492  0.1456271779090  0.3550177758600 1.0
C      1  0.3972512298040  0.1456270483522  0.3550182356175 1.0
C      1  0.3546422407518  0.2867968692623  0.3578461573004 1.0
C      1  0.6453582507914  0.2867975635827  0.3578459749417 1.0
C      1  0.7019153788727  0.3992687502204  0.4677748387138 1.0
C      1  0.2980836305273  0.3992667141962  0.4677747168963 1.0
C      1  0.9543894514227  0.5530635029112  0.5882863923098 1.0
C      1  0.0456105869011  0.5530633108242  0.5882873465111 1.0
C      1  0.2585244174142  0.6508174585394  0.7011125705034 1.0
C      1  0.7414758397029  0.6508183094116  0.7011106046729 1.0
C      1  0.4529945326173  0.1326147491806  0.5217575756097 1.0
C      1  0.5470068354421  0.1326153420829  0.5217574620787 1.0
C      1  0.5494603250727  0.3873859037445  0.8967990458938 1.0
C      1  0.4505415129492  0.3873859944756  0.8967989664839 1.0
C      1  0.1849571658356  0.2659625960072  0.4578470583579 1.0
C      1  0.8150442898735  0.2659632123068  0.4578457308533 1.0
C      1  0.4481070666911  0.4514251284453  0.3089886251537 1.0
C      1  0.5518918016558  0.4514249600579  0.3089881769454 1.0
C      1  0.4473638225128  0.3812178735370  0.6116211741962 1.0
C      1  0.5526368223893  0.3812176552228  0.6116210565065 1.0
C      1  0.4002464619413  0.7318048845888  0.7572031495018 1.0
C      1  0.5997547353661  0.7318052392153  0.7572029658431 1.0
C      1  0.3158700564601  0.7864649135464  0.6237508157560 1.0
C      1  0.6841303567659  0.7864657377292  0.6237501866656 1.0
C      1  0.5468180487674  0.3743741146955  0.7138535129544 1.0
C      1  0.4531830265089  0.3743736654735  0.7138535311422 1.0
C      1  0.2164899201151  0.5050558099615  0.2672498061454 1.0
C      1  0.7835083391941  0.5050562199995  0.2672489538783 1.0
C      1  0.2687140242277  0.4701265577008  0.4222344383591 1.0
C      1  0.7312854001720  0.4701279076831  0.4222326273909 1.0
C      1  0.2489988134872  0.7734630161650  0.5542753470205 1.0
C      1  0.7510016363438  0.7734635978885  0.5542740860331 1.0
C      1  0.7531516752518  0.8157538542648  0.4684441247787 1.0
C      1  0.2468468828001  0.8157523980583  0.4684449566369 1.0
C      1  0.5483217777040  0.6663217912050  0.6917850219820 1.0
C      1  0.4516785978512  0.6663217622329  0.6917853506118 1.0
C      1  0.5928012465807  0.1867902421509  0.7605552876209 1.0
C      1  0.4071997999704  0.1867900493689  0.7605564910970 1.0
C      1  0.4141464824679  0.5498116265867  0.8045138172676 1.0
C      1  0.5858545364094  0.5498122580378  0.8045133128103 1.0
C      1  0.1583116340293  0.6247553675829  0.7095330814800 1.0
C      1  0.8416878974088  0.6247566364155  0.7095295604320 1.0
C      1  0.5461707724518  0.3896702861388  0.1492094414957 1.0
C      1  0.4538280136100  0.3896701329366  0.1492097687420 1.0
C      1  0.7495460574627  0.6086587284786  0.5420389825965 1.0
C      1  0.2504539475904  0.6086572642550  0.5420408741842 1.0
C      1  0.3121393990768  0.7372064059077  0.7053536123726 1.0
C      1  0.6878612458712  0.7372069162102  0.7053525413210 1.0
C      1  0.5489707214145  0.5466553441145  0.0981866795430 1.0
C      1  0.4510275511999  0.5466552688454  0.0981867912896 1.0
C      1  0.7991477196358  0.6158097884932  0.3886157777581 1.0
C      1  0.2008519816520  0.6158094505639  0.3886176608940 1.0
C      1  0.8317646617705  0.4765122514712  0.6676875476276 1.0
C      1  0.1682361286107  0.4765105818599  0.6676886398557 1.0
C      1  0.4557008012876  0.6481375827968  0.5384508364235 1.0
C      1  0.5442989378634  0.6481370465196  0.5384506889992 1.0
C      1  0.5894576122151  0.2821173136248  0.2822718539697 1.0
C      1  0.4105427522994  0.2821170631314  0.2822720912032 1.0
C      1  0.8595990054453  0.4541037364016  0.3038451190732 1.0
C      1  0.1403998302913  0.4541023304756  0.3038463233574 1.0
C      1  0.1228630090861  0.5775904261399  0.4394412602151 1.0
C      1  0.8771370124648  0.5775900492622  0.4394409500089 1.0
C      1  0.3229513601802  0.7914901460483  0.4046402060899 1.0
C      1  0.6770478676749  0.7914908033856  0.4046402592379 1.0
C      1  0.7721490695334  0.2045953016385  0.4005214464616 1.0
C      1  0.2278522098636  0.2045941523805  0.4005233741266 1.0
C      1  0.6930973546612  0.6042409061367  0.6193271711899 1.0
C      1  0.3069011630583  0.6042390761264  0.6193304120138 1.0
C      1  0.8445227215667  0.6830051338435  0.4489634294159 1.0
C      1  0.1554776920410  0.6830047763591  0.4489670514349 1.0
C      1  0.3899434850335  0.4563251825575  0.5728956423598 1.0
C      1  0.6100562828263  0.4563254018385  0.5728951785412 1.0
C      1  0.2313260707280  0.2486927177615  0.5411330925960 1.0
C      1  0.7686738322441  0.2486946778083  0.5411299874193 1.0
C      1  0.7052623869049  0.5685714848411  0.1398935153421 1.0
C      1  0.2947355125322  0.5685706181802  0.1398935888750 1.0
C      1  0.4048778126007  0.6262813503720  0.6161109648410 1.0
C      1  0.5951213560068  0.6262818694785  0.6161102031356 1.0
C      1  0.4457796060090  0.4883069696939  0.4769798949522 1.0
C      1  0.5542199292796  0.4883069269469  0.4769798265676 1.0
C      1  0.3883079581765  0.6663986083021  0.2027283056807 1.0
C      1  0.6116892261184  0.6663988970332  0.2027278526475 1.0
C      1  0.6154942421044  0.5370560954194  0.3229818058289 1.0
C      1  0.3845034762524  0.5370559376979  0.3229820944368 1.0
END
