TITL C-31273-9599-49 -4.986 3375.00 -813.64968537 0 0 100 (C1) n - 1
REM
REM Run started: at 2020.12.29 11:37:25 in /gpfs/home/chem/mssmkc/CARBON/AIRSS/Generating-Clusters/Str-Search/Higher-Symm/C4-100
REM VASP from code version vasp.5.4.4.18Apr17-6-g9f103f2a35 (build Oct 11 2019 16:45:47) gamma-only
REM
REM
REM
REM
REM ./C.cell (6bd13a13d554368a30d355f37ece5b26)
REM AIRSS Version 0.9.1 bugfix July 2018 build 013d7b7c2542+ Fri, 06 Jul 2018 19:26:36 +0100
REM compiler GCC version 6.3.0
REM options -cpp -iprefix /gpfs/warwick/csc/orac/software/Core/GCCcore/6.3.0/bin/../lib/gcc/x86_64-pc-linux-gnu/6.3.0/ -mtune=generic -march=x86-64 -g -O0
REM seed 1955712980 -1883675227 1427615724 2099112451 -643015984 -1017102157 410187022 1157543835 1929031509 -1956224421 -327444075 1829727504
REM
REM C.POTCAR (d86ddea03c3ceb6dc662c8ad6801f873)
REM 
CELL 1.54180   15.00000   15.00000   15.00000   90.00000   90.00000   90.00000
LATT -1
SFAC C  
C      1  0.7620487611990  0.6074783327869  0.5310934411389 1.0
C      1  0.7313362279934  0.6116918223571  0.6243986457099 1.0
C      1  0.6242505666212  0.6025591989569  0.8040963581557 1.0
C      1  0.3287422257608  0.6067084648377  0.7982215258746 1.0
C      1  0.2377217234198  0.6676513500624  0.6383932398706 1.0
C      1  0.2073792717455  0.5942087848984  0.3605594504299 1.0
C      1  0.3457213687489  0.5858483237089  0.2379840622008 1.0
C      1  0.6218407125265  0.6070055849432  0.2615393461706 1.0
C      1  0.6973295315214  0.5991736983241  0.3203591745287 1.0
C      1  0.3199708665315  0.7169362700758  0.4081277716031 1.0
C      1  0.4112500288982  0.6864348127999  0.3605170982102 1.0
C      1  0.5174727920631  0.7303033269670  0.3463607243053 1.0
C      1  0.5847286474419  0.6843582776365  0.4134822489159 1.0
C      1  0.6214303612437  0.6846120941297  0.5145587866252 1.0
C      1  0.6067412042616  0.7291733495464  0.6053082271222 1.0
C      1  0.5470393290824  0.6675751997852  0.6720823744255 1.0
C      1  0.4499110572641  0.6481974072052  0.6950612250658 1.0
C      1  0.3132618231776  0.7633186666620  0.4937990498924 1.0
C      1  0.4828893724427  0.2144007639087  0.6437462988743 1.0
C      1  0.4009256563620  0.2176550896923  0.5945549313870 1.0
C      1  0.3629488856215  0.2170348590637  0.5022987601260 1.0
C      1  0.3894438703383  0.2055119788329  0.4151764199113 1.0
C      1  0.4777104356625  0.1983344321591  0.3719694953588 1.0
C      1  0.5676690801752  0.1937846822414  0.3840203480603 1.0
C      1  0.6372018470896  0.1934189566620  0.4519855283299 1.0
C      1  0.6388705983535  0.1885710708283  0.5438175632250 1.0
C      1  0.5752027267135  0.1971941940765  0.6215864073963 1.0
C      1  0.3885151602483  0.4375162832233  0.1985202347411 1.0
C      1  0.6992249176347  0.4462613776525  0.2768044330678 1.0
C      1  0.7806623585897  0.4785181440230  0.4144209859744 1.0
C      1  0.7693762466418  0.4616835841845  0.5825855487714 1.0
C      1  0.6791354143781  0.4690065573768  0.7325981270364 1.0
C      1  0.5630482321506  0.4504789777190  0.8444695860073 1.0
C      1  0.2713757748611  0.4496031801368  0.7940133816041 1.0
C      1  0.1604429574065  0.4511016655285  0.4117698951972 1.0
C      1  0.2444753585558  0.4578899840165  0.2710917728516 1.0
C      1  0.3200378798724  0.2607537011915  0.6278055552276 1.0
C      1  0.2826970113747  0.2651374790385  0.5367920260216 1.0
C      1  0.3544273969144  0.2444684174602  0.3305963850957 1.0
C      1  0.4446619167513  0.2466665335302  0.2950490368200 1.0
C      1  0.6239947015664  0.2457039340829  0.3238989595906 1.0
C      1  0.6958974059206  0.2442612883027  0.3897198324881 1.0
C      1  0.7098149613445  0.2281304602793  0.5976630613198 1.0
C      1  0.6478815735605  0.2327025001534  0.6751134504239 1.0
C      1  0.4756886576092  0.2547887375500  0.7300558199732 1.0
C      1  0.2474131744823  0.3656304608438  0.2783745849215 1.0
C      1  0.4473728139887  0.3797908280701  0.2062523524280 1.0
C      1  0.6473174445521  0.3865220623334  0.2531912458296 1.0
C      1  0.7879952283714  0.3860156137094  0.4088294386377 1.0
C      1  0.7843634984175  0.3737311666158  0.5944133639151 1.0
C      1  0.6888849480604  0.3784567710395  0.7383984391329 1.0
C      1  0.5155974092556  0.3836050218543  0.8328535275069 1.0
C      1  0.2737470174918  0.3715042139644  0.7530037464517 1.0
C      1  0.1831251776149  0.3821529110034  0.4572243596832 1.0
C      1  0.4462351704284  0.8778360526766  0.3695755240718 1.0
C      1  0.5267070502198  0.8303061999275  0.3590871035131 1.0
C      1  0.5885040428669  0.8587161067047  0.4220786633633 1.0
C      1  0.6059892184816  0.8588665959221  0.5042717052651 1.0
C      1  0.5792707807103  0.8251112080137  0.5868862132221 1.0
C      1  0.4918086756922  0.8536643036306  0.6044842147804 1.0
C      1  0.4113343786984  0.8631350164038  0.5841006165869 1.0
C      1  0.3592053578266  0.8450608159320  0.5066300743670 1.0
C      1  0.3869207918529  0.8866557842979  0.4265823236880 1.0
C      1  0.7735443320986  0.2901884185196  0.5864550997301 1.0
C      1  0.6590561494623  0.2996636606900  0.7347378415471 1.0
C      1  0.4852508211287  0.3099459546430  0.7908514065593 1.0
C      1  0.2960501932385  0.3096579004110  0.7012059693598 1.0
C      1  0.2204179338673  0.3187034827973  0.5015753290443 1.0
C      1  0.2846428728578  0.2962057525702  0.3038309685631 1.0
C      1  0.4957786567635  0.3096344937049  0.2450269858557 1.0
C      1  0.5921730151189  0.3107346468990  0.2634346427648 1.0
C      1  0.7598515743567  0.3086395079067  0.3999360690249 1.0
C      1  0.5459760698741  0.6680369239979  0.2699971434933 1.0
C      1  0.6835334713973  0.6649414728563  0.3883391411495 1.0
C      1  0.7121390894392  0.6673677361491  0.4764342387716 1.0
C      1  0.6841081192347  0.6849499136940  0.6625671903110 1.0
C      1  0.6256936178785  0.6581819388061  0.7343477643709 1.0
C      1  0.3918548351264  0.6529775542050  0.7656113361981 1.0
C      1  0.2791039984245  0.7064854906384  0.5622465563678 1.0
C      1  0.2520589950064  0.6600310574824  0.3862188844250 1.0
C      1  0.3811013789395  0.6514924158277  0.2728511716102 1.0
C      1  0.3716043124188  0.5597351111941  0.5680992225129 1.0
C      1  0.3975895992567  0.5391449348309  0.4763577161179 1.0
C      1  0.4426795521027  0.6074012471022  0.4196332850878 1.0
C      1  0.5012038998574  0.5376512673476  0.3656314977515 1.0
C      1  0.5417969276026  0.5969208758720  0.4369392989099 1.0
C      1  0.5849389961400  0.5867098770843  0.5256594232686 1.0
C      1  0.6153330692904  0.5208273405158  0.5923530665137 1.0
C      1  0.5391991986890  0.5775365363902  0.6133566167461 1.0
C      1  0.4422434530681  0.5786719312659  0.6280748513231 1.0
C      1  0.3202430922495  0.4967826893332  0.2232578876028 1.0
C      1  0.5353494420491  0.5754675635175  0.2819867469307 1.0
C      1  0.7358081531894  0.5132229199143  0.3328337672056 1.0
C      1  0.7819866258727  0.5181032210732  0.5034928571508 1.0
C      1  0.7069109313930  0.5139715951683  0.6447820126947 1.0
C      1  0.6217010824397  0.5113133756859  0.8006024052906 1.0
C      1  0.2887962106511  0.5296128945194  0.8133644585368 1.0
C      1  0.2989130229025  0.6188404891683  0.5855952983490 1.0
C      1  0.1945975938486  0.5043119917915  0.3423869405200 1.0
C      1  0.4293979361139  0.4837338848859  0.4101940158507 1.0
END
