TITL C-31896-717-18 -8.157 3375.00 -1435.51356270 0 0 180 (Th) n - 1
REM
REM Run started: at 2020.12.25 21:38:56 in /gpfs/home/chem/mssmkc/CARBON/AIRSS/Generating-Clusters/Str-Search/Higher-Symm/Only-C180
REM VASP from code version vasp.5.4.4.18Apr17-6-g9f103f2a35 (build Oct 11 2019 16:45:47) gamma-only
REM
REM
REM
REM
REM ./C.cell (73b75853f6e4503fb4b57bac71549d7d)
REM AIRSS Version 0.9.1 bugfix July 2018 build 013d7b7c2542+ Fri, 06 Jul 2018 19:26:36 +0100
REM compiler GCC version 6.3.0
REM options -cpp -iprefix /gpfs/warwick/csc/orac/software/Core/GCCcore/6.3.0/bin/../lib/gcc/x86_64-pc-linux-gnu/6.3.0/ -mtune=generic -march=x86-64 -g -O0
REM seed 1919083520 -1962834833 934711940 -1704620282 -694795268 -1594551681 -41427021 2086937182 -2014128021 633537414 101659879 -1907774240
REM
REM C.POTCAR (d86ddea03c3ceb6dc662c8ad6801f873)
REM 
CELL 1.54180   15.00000   15.00000   15.00000   90.00000   90.00000   90.00000
LATT -1
SFAC C  
C      1  0.6401491123902  0.2228203881838  0.2854638157774 1.0
C      1  0.2854618024533  0.6401505512589  0.2228184109748 1.0
C      1  0.2228197357525  0.2854604307914  0.6401504067741 1.0
C      1  0.3598495182281  0.7771814020072  0.2854608637929 1.0
C      1  0.3598513465024  0.2228181138720  0.7145370694952 1.0
C      1  0.6401508511620  0.7771792429064  0.7145384018301 1.0
C      1  0.7145375215065  0.3598507942790  0.2228202328065 1.0
C      1  0.7145384647365  0.6401490221686  0.7771814940860 1.0
C      1  0.2854629113362  0.3598492737798  0.7771798493828 1.0
C      1  0.7771811414309  0.7145358204002  0.6401493425464 1.0
C      1  0.7771806738827  0.2854637750394  0.3598513920540 1.0
C      1  0.2228188805967  0.7145392573456  0.3598486541392 1.0
C      1  0.6401505075956  0.2228186922037  0.7145391687975 1.0
C      1  0.2854624064992  0.6401491569829  0.7771797291747 1.0
C      1  0.2228188287880  0.2854643967154  0.3598507214362 1.0
C      1  0.3598507373188  0.7771793282993  0.7145360014433 1.0
C      1  0.3598490653510  0.2228209441477  0.2854616342969 1.0
C      1  0.6401486219847  0.7771815982310  0.2854633726809 1.0
C      1  0.7145381909312  0.3598495632036  0.7771815137102 1.0
C      1  0.7145371684637  0.6401506980256  0.2228202919297 1.0
C      1  0.2854615274472  0.3598511306711  0.2228185262348 1.0
C      1  0.7771805024699  0.7145391981823  0.3598499026541 1.0
C      1  0.7771808848710  0.2854610303292  0.6401510681761 1.0
C      1  0.2228191242108  0.7145359980273  0.6401483763625 1.0
C      1  0.6524230038482  0.5894519562015  0.4161242031672 1.0
C      1  0.4161217230242  0.6524240548053  0.5894544835733 1.0
C      1  0.5894505674345  0.4161255583230  0.6524220831107 1.0
C      1  0.3475761691444  0.4105471119081  0.4161230268093 1.0
C      1  0.3475755863859  0.5894548085132  0.5838775027934 1.0
C      1  0.6524216332268  0.4105493722763  0.5838754378160 1.0
C      1  0.5838752161216  0.3475785856598  0.5894517323258 1.0
C      1  0.5838754021865  0.6524240311713  0.4105470210018 1.0
C      1  0.4161219249463  0.3475780154874  0.4105465665932 1.0
C      1  0.4105449110014  0.5838777447428  0.6524238093839 1.0
C      1  0.4105453680855  0.4161236422394  0.3475768655790 1.0
C      1  0.5894507397309  0.5838752033624  0.3475760540242 1.0
C      1  0.6524230621250  0.5894529565834  0.5838770164121 1.0
C      1  0.4161258310561  0.6524225783793  0.4105490024218 1.0
C      1  0.5894550564915  0.4161219686884  0.3475767090265 1.0
C      1  0.3475778105091  0.4105476712944  0.5838761555770 1.0
C      1  0.3475774895115  0.5894499758767  0.4161255922545 1.0
C      1  0.6524233772999  0.4105454236588  0.4161222335995 1.0
C      1  0.5838785819163  0.3475766657106  0.4105451914274 1.0
C      1  0.5838782600555  0.6524215208791  0.5894535178109 1.0
C      1  0.4161244954031  0.3475767072641  0.5894530650157 1.0
C      1  0.4105504728612  0.5838731966631  0.3475766976427 1.0
C      1  0.4105492109800  0.4161244641756  0.6524231489454 1.0
C      1  0.5894547921338  0.5838768423255  0.6524224795070 1.0
C      1  0.2573891354509  0.5903543067272  0.5493555678938 1.0
C      1  0.5493563141520  0.2573916249515  0.5903555089671 1.0
C      1  0.5903543219608  0.5493558948533  0.2573908840041 1.0
C      1  0.7426082684923  0.4096446915945  0.5493563128315 1.0
C      1  0.7426081412111  0.5903558037168  0.4506435143952 1.0
C      1  0.2573892988465  0.4096463260894  0.4506444324306 1.0
C      1  0.4506445822989  0.7426096288601  0.5903544939459 1.0
C      1  0.4506441320738  0.2573917119424  0.4096444270675 1.0
C      1  0.5493560065349  0.7426096438597  0.4096456679541 1.0
C      1  0.4096444591087  0.4506436987002  0.2573891731866 1.0
C      1  0.4096446817558  0.5493561747592  0.7426104233408 1.0
C      1  0.5903545826228  0.4506442009742  0.7426093431867 1.0
C      1  0.2573918847256  0.5903556123768  0.4506434984441 1.0
C      1  0.5493553775754  0.2573902526590  0.4096454943118 1.0
C      1  0.5903555637772  0.5493561128056  0.7426107829775 1.0
C      1  0.7426108304656  0.4096457365139  0.4506444896650 1.0
C      1  0.7426107611840  0.5903538828077  0.5493554871207 1.0
C      1  0.2573918247646  0.4096441000615  0.5493564195933 1.0
C      1  0.4506436310266  0.7426082090967  0.4096445064557 1.0
C      1  0.4506442017068  0.2573901195056  0.5903544201117 1.0
C      1  0.5493558273319  0.7426085597074  0.5903556178354 1.0
C      1  0.4096457155027  0.4506441996674  0.7426091477698 1.0
C      1  0.4096454125471  0.5493560825742  0.2573908734791 1.0
C      1  0.5903552848544  0.4506439174006  0.2573892678850 1.0
C      1  0.5504217544710  0.3230811963431  0.1775772537634 1.0
C      1  0.1775764276863  0.5504254001866  0.3230813771945 1.0
C      1  0.3230819328935  0.1775770969449  0.5504211423646 1.0
C      1  0.4495766657652  0.6769178902930  0.1775765492687 1.0
C      1  0.4495778776411  0.3230818925503  0.8224227118888 1.0
C      1  0.5504227705089  0.6769185126252  0.8224234072808 1.0
C      1  0.8224226588058  0.4495801798928  0.3230817392317 1.0
C      1  0.8224226027541  0.5504202644512  0.6769182825192 1.0
C      1  0.1775765696246  0.4495749826521  0.6769186464002 1.0
C      1  0.6769188240122  0.8224224553116  0.5504239108674 1.0
C      1  0.6769184627115  0.1775780842837  0.4495796094052 1.0
C      1  0.3230816134233  0.8224233470214  0.4495754112344 1.0
C      1  0.5504233119501  0.3230821699373  0.8224234258932 1.0
C      1  0.1775774174106  0.5504194646171  0.6769182943202 1.0
C      1  0.3230811471207  0.1775776274824  0.4495762399623 1.0
C      1  0.4495783312335  0.6769187976691  0.8224227336427 1.0
C      1  0.4495773012401  0.3230815352651  0.1775765231016 1.0
C      1  0.5504221063347  0.6769181412674  0.1775772343558 1.0
C      1  0.8224234372291  0.4495749557445  0.6769186090109 1.0
C      1  0.8224235022592  0.5504247283061  0.3230814151902 1.0
C      1  0.1775773631643  0.4495800800653  0.3230817378346 1.0
C      1  0.6769180653366  0.8224226778776  0.4495791932900 1.0
C      1  0.6769184277951  0.1775766011336  0.5504245096061 1.0
C      1  0.3230814366057  0.8224217236176  0.5504203029344 1.0
C      1  0.2921029923913  0.7807272502957  0.3608497150349 1.0
C      1  0.3608539257520  0.2921033446066  0.7807239187163 1.0
C      1  0.7807245612321  0.3608532695524  0.2921043036770 1.0
C      1  0.7078963603829  0.2192767143832  0.3608540914048 1.0
C      1  0.7078971797272  0.7807230963495  0.6391477636694 1.0
C      1  0.2921039190648  0.2192724797201  0.6391484608526 1.0
C      1  0.6391500586024  0.7078964446408  0.7807267172386 1.0
C      1  0.6391474663865  0.2921037904662  0.2192765978259 1.0
C      1  0.3608512515807  0.7078968551880  0.2192727682544 1.0
C      1  0.2192736123718  0.6391496855255  0.2921022365476 1.0
C      1  0.2192743751296  0.3608494201122  0.7078973227546 1.0
C      1  0.7807251033639  0.6391458919191  0.7078960253965 1.0
C      1  0.2921035329775  0.7807229060777  0.6391456111263 1.0
C      1  0.3608499609325  0.2921037033673  0.2192732596993 1.0
C      1  0.7807263176442  0.3608505015177  0.7078975810539 1.0
C      1  0.7078970142533  0.2192728982048  0.6391501486258 1.0
C      1  0.7078952929445  0.7807261034839  0.3608526083453 1.0
C      1  0.2921027575543  0.2192771768112  0.3608522692138 1.0
C      1  0.6391460856710  0.7078966655668  0.2192762712406 1.0
C      1  0.6391488028273  0.2921031946094  0.7807272148978 1.0
C      1  0.3608524746296  0.7078961587852  0.7807233203489 1.0
C      1  0.2192753905167  0.6391465058251  0.7078955773193 1.0
C      1  0.2192748986878  0.3608543637724  0.2921039789439 1.0
C      1  0.7807257319170  0.6391504237472  0.2921027321839 1.0
C      1  0.5497296550203  0.5767703804706  0.8306440419272 1.0
C      1  0.8306435939258  0.5497269528438  0.5767699619415 1.0
C      1  0.5767700028342  0.8306432214359  0.5497322172209 1.0
C      1  0.4502703555510  0.4232305851044  0.8306437690597 1.0
C      1  0.4502701918150  0.5767694032719  0.1693557942812 1.0
C      1  0.5497296476982  0.4232295031169  0.1693561053168 1.0
C      1  0.1693560931753  0.4502671725477  0.5767700091434 1.0
C      1  0.1693560016849  0.5497330673475  0.4232303161888 1.0
C      1  0.8306435637448  0.4502731820241  0.4232298748226 1.0
C      1  0.4232301529899  0.1693567238864  0.5497271807331 1.0
C      1  0.4232301845275  0.8306434694329  0.4502684479533 1.0
C      1  0.5767700682550  0.1693569981057  0.4502724352214 1.0
C      1  0.5497295857772  0.5767694560956  0.1693561270653 1.0
C      1  0.8306439065260  0.5497324108069  0.4232300424861 1.0
C      1  0.5767698810139  0.8306432998101  0.4502728652214 1.0
C      1  0.4502704765342  0.4232295577934  0.1693558570773 1.0
C      1  0.4502704853216  0.5767704897900  0.8306437642580 1.0
C      1  0.5497298890987  0.4232306737452  0.8306440284014 1.0
C      1  0.1693564635972  0.4502735451779  0.4232300732522 1.0
C      1  0.1693563907593  0.5497263776331  0.5767702669994 1.0
C      1  0.8306438374486  0.4502674724787  0.5767697525140 1.0
C      1  0.4232299788454  0.1693569146232  0.4502678103275 1.0
C      1  0.4232298616144  0.8306430147487  0.5497275944841 1.0
C      1  0.5767698226728  0.1693566080473  0.5497315900859 1.0
C      1  0.6833682201123  0.5471830048654  0.2135048018504 1.0
C      1  0.2134953292026  0.6833649630520  0.5471798231602 1.0
C      1  0.5471832901414  0.2135068342551  0.6833690201104 1.0
C      1  0.3166331514542  0.4528192160188  0.2134993224835 1.0
C      1  0.3166330809677  0.5471808938515  0.7865000049677 1.0
C      1  0.6833681939307  0.4528170102325  0.7864953167285 1.0
C      1  0.7864914377991  0.3166305517940  0.5471837851967 1.0
C      1  0.7864930813393  0.6833690945211  0.4528172340185 1.0
C      1  0.2134970602407  0.3166348647069  0.4528190801965 1.0
C      1  0.4528192762684  0.7865016385772  0.6833657598452 1.0
C      1  0.4528167113145  0.2135074920537  0.3166307348598 1.0
C      1  0.5471807009196  0.7865022344964  0.3166346134840 1.0
C      1  0.6833668759607  0.5471808917164  0.7865003644971 1.0
C      1  0.2135092379531  0.6833699026785  0.4528157807423 1.0
C      1  0.5471805835673  0.2134982397156  0.3166342482489 1.0
C      1  0.3166317777671  0.4528169892930  0.7864951336818 1.0
C      1  0.3166317202845  0.5471831846430  0.2135048145606 1.0
C      1  0.6833670072145  0.4528190967652  0.2135000632081 1.0
C      1  0.7865039037578  0.3166349110760  0.4528199272318 1.0
C      1  0.7865024152448  0.6833654760777  0.5471810167764 1.0
C      1  0.2135076548421  0.3166305442702  0.5471829635756 1.0
C      1  0.4528166987952  0.7864931424506  0.3166309948563 1.0
C      1  0.4528194315147  0.2134977460216  0.6833654475346 1.0
C      1  0.5471831692447  0.7864928035016  0.6833693090489 1.0
C      1  0.4999956709634  0.1126781429245  0.5979296048442 1.0
C      1  0.5979310013139  0.4999979162671  0.1126776361599 1.0
C      1  0.4999957625180  0.8873212491719  0.5979316513109 1.0
C      1  0.5000043229924  0.1126788048763  0.4020683043417 1.0
C      1  0.5000044606041  0.8873217642949  0.4020702864465 1.0
C      1  0.4020691915749  0.5000021492265  0.8873222728311 1.0
C      1  0.1126780399863  0.5979307902125  0.5000070256022 1.0
C      1  0.4020692944638  0.4999975802744  0.1126776592959 1.0
C      1  0.5979308187235  0.5000022273059  0.8873221727172 1.0
C      1  0.8873218123838  0.4020692043071  0.4999940539409 1.0
C      1  0.8873218644229  0.5979307940000  0.5000045523973 1.0
C      1  0.1126781339075  0.4020691646540  0.4999949471063 1.0
END
