TITL C-31273-9599-147 -0.221 3375.00 -32.12194613 0 0 5 (C1) n - 1
REM
REM Run started: at 2020.12.30 05:25:08 in /gpfs/home/chem/mssmkc/CARBON/AIRSS/Generating-Clusters/Str-Search/Higher-Symm/C4-100
REM VASP from code version vasp.5.4.4.18Apr17-6-g9f103f2a35 (build Oct 11 2019 16:45:47) gamma-only
REM
REM
REM
REM
REM ./C.cell (6bd13a13d554368a30d355f37ece5b26)
REM AIRSS Version 0.9.1 bugfix July 2018 build 013d7b7c2542+ Fri, 06 Jul 2018 19:26:36 +0100
REM compiler GCC version 6.3.0
REM options -cpp -iprefix /gpfs/warwick/csc/orac/software/Core/GCCcore/6.3.0/bin/../lib/gcc/x86_64-pc-linux-gnu/6.3.0/ -mtune=generic -march=x86-64 -g -O0
REM seed -143887477 2130125311 919861062 -653317767 -1838258496 -1239497961 1790907636 1389256221 -2051157061 1976037704 -1207752491 1530649761
REM
REM C.POTCAR (d86ddea03c3ceb6dc662c8ad6801f873)
REM 
CELL 1.54180   15.00000   15.00000   15.00000   90.00000   90.00000   90.00000
LATT -1
SFAC C  
C      1  0.4227718265016  0.5143397759122  0.5374452805399 1.0
C      1  0.4891807912462  0.4532510015233  0.5616512185543 1.0
C      1  0.5259873984015  0.4205797036699  0.4825385809327 1.0
C      1  0.5501869054126  0.5857417405028  0.4330875077647 1.0
C      1  0.5118730784381  0.5260876783917  0.4852774122084 1.0
END
