TITL C-31660-4929-9 -2.802 3375.00 -492.78138340 0 0 64 (C1) n - 1
REM
REM Run started: at 2020.11.29 13:59:39 in /rds/project/t2_vol4/rds-t2-cs072/BORA/CARBON/AIRSS/Generating-Clusters/Str-Search/Higher-Symm/C10-100
REM VASP from code version vasp.5.4.4.18Apr17-6-g9f103f2a35 (build Oct 11 2019 16:45:47) gamma-only
REM
REM
REM
REM
REM ./C.cell (f39ce9773e2efe3fa5bbdf770a4156b8)
REM AIRSS Version 0.9.1 bugfix July 2018 build 013d7b7c2542+ Fri, 06 Jul 2018 19:26:36 +0100
REM compiler GCC version 4.8.5 20150623 (Red Hat 4.8.5-39)
REM options -cpp -mtune=generic -march=x86-64 -g -O0
REM seed -989804860 -673337358 697325266 -1918545228 -690468782 1467454413 2437604 -190573166 -386043906 -2081927943 -434575168 1136200172
REM
REM C.POTCAR (d86ddea03c3ceb6dc662c8ad6801f873)
REM 
CELL 1.54180   15.00000   15.00000   15.00000   90.00000   90.00000   90.00000
LATT -1
SFAC C  
C      1  0.6698435997569  0.5401178578690  0.4043491245677 1.0
C      1  0.3781524609350  0.6958286698090  0.5455950781058 1.0
C      1  0.5422524844369  0.3842399226154  0.7009308167393 1.0
C      1  0.3104403624763  0.4575813041229  0.3826015616759 1.0
C      1  0.3172500248868  0.5475852986787  0.6235811243872 1.0
C      1  0.6831699750495  0.4605973271844  0.6119855805573 1.0
C      1  0.6268377782186  0.3021320259005  0.5477291766722 1.0
C      1  0.6232837856338  0.6980160992561  0.4610624683555 1.0
C      1  0.3773604451463  0.3087263572328  0.4600738947929 1.0
C      1  0.4740474264941  0.6195366955333  0.6928340371053 1.0
C      1  0.4692693278358  0.3839790584154  0.3057714897428 1.0
C      1  0.5333014366906  0.6005973896984  0.3238137084984 1.0
C      1  0.5370668195310  0.6741042895479  0.4020050100408 1.0
C      1  0.6987976434422  0.3779329572928  0.5462070009753 1.0
C      1  0.3918281950790  0.5422386896642  0.7008664339626 1.0
C      1  0.4597649317269  0.3140282043485  0.3867599388347 1.0
C      1  0.5372257816710  0.3344246056789  0.6056783064168 1.0
C      1  0.4642577108640  0.6885513760605  0.6129072941747 1.0
C      1  0.3020350554747  0.6246864219181  0.5515186696256 1.0
C      1  0.6986297499680  0.6279158734198  0.4609592692196 1.0
C      1  0.2995540871548  0.3801478084848  0.4560270420728 1.0
C      1  0.6082090585947  0.4668716670742  0.6908841513745 1.0
C      1  0.3827785526401  0.4664804911604  0.3022758557876 1.0
C      1  0.6183335931574  0.5415155126256  0.3097632178588 1.0
C      1  0.4430731540441  0.3007006552003  0.6311808327557 1.0
C      1  0.6334524144731  0.4442907577359  0.3100234423508 1.0
C      1  0.2903136190156  0.6308643275215  0.4406554973228 1.0
C      1  0.5655860660051  0.7189396979725  0.6410458134183 1.0
C      1  0.5665629224710  0.2911452394207  0.3621789132118 1.0
C      1  0.4410826926676  0.7054484122303  0.3723702809101 1.0
C      1  0.3623605242142  0.5683236617443  0.3001399080148 1.0
C      1  0.3723510419176  0.4400842070658  0.7060260357068 1.0
C      1  0.6385653719362  0.5683665417025  0.7029502721400 1.0
C      1  0.7133039388637  0.3715063707259  0.4409720713742 1.0
C      1  0.7169382932062  0.6381152680966  0.5670559004324 1.0
C      1  0.2951615937461  0.3736834300411  0.5696709585110 1.0
C      1  0.2964312399986  0.4457607339480  0.6442291682087 1.0
C      1  0.4350049856405  0.6316406619000  0.3070294647253 1.0
C      1  0.6413008289805  0.2882666744715  0.4359443864870 1.0
C      1  0.7144387064835  0.5601596987390  0.6403129631712 1.0
C      1  0.2863864429981  0.5594124835880  0.3646990850153 1.0
C      1  0.7080815604217  0.4462684330996  0.3754814647440 1.0
C      1  0.5708581105421  0.3661460775428  0.2996067024834 1.0
C      1  0.4453024677386  0.3740137117646  0.6997929182850 1.0
C      1  0.5731569642723  0.6412082749348  0.7041447455211 1.0
C      1  0.3703056233043  0.7011627377643  0.4427180077561 1.0
C      1  0.6376919476442  0.7188232399725  0.5675054025775 1.0
C      1  0.3734892862479  0.3047469566061  0.5641409392102 1.0
C      1  0.4141298440119  0.5302092582877  0.6061575541087 1.0
C      1  0.5820938532191  0.5237170105944  0.4557209836630 1.0
C      1  0.5230704706713  0.4226289145744  0.5556117703214 1.0
C      1  0.5146504964033  0.5781128750111  0.4186372439540 1.0
C      1  0.5526226822359  0.4309870532270  0.4605869348581 1.0
C      1  0.4335276679400  0.5398690107974  0.4592105673826 1.0
C      1  0.5876142427471  0.4829434695792  0.5973841900779 1.0
C      1  0.5666897161462  0.5623121096575  0.5512195771779 1.0
C      1  0.4843372983670  0.5947724928893  0.5946369419716 1.0
C      1  0.4072779739839  0.4737545361198  0.3965572593855 1.0
C      1  0.4363702595265  0.4661538168506  0.5408926672724 1.0
C      1  0.4792595181608  0.4090295780733  0.4008487725798 1.0
C      1  0.6229319052535  0.3734272524251  0.4771607032645 1.0
C      1  0.3755866605572  0.6095363344846  0.4852032680473 1.0
C      1  0.6266214199582  0.6290757622637  0.5342623032797 1.0
C      1  0.3755351071210  0.3968309677853  0.5173380367780 1.0
END
