TITL C-31273-9599-180 -0.258 3375.00 -35.56312844 0 0 5 (D(inf)h) n - 1
REM
REM Run started: at 2020.12.30 12:31:32 in /gpfs/home/chem/mssmkc/CARBON/AIRSS/Generating-Clusters/Str-Search/Higher-Symm/C4-100
REM VASP from code version vasp.5.4.4.18Apr17-6-g9f103f2a35 (build Oct 11 2019 16:45:47) gamma-only
REM
REM
REM
REM
REM ./C.cell (6bd13a13d554368a30d355f37ece5b26)
REM AIRSS Version 0.9.1 bugfix July 2018 build 013d7b7c2542+ Fri, 06 Jul 2018 19:26:36 +0100
REM compiler GCC version 6.3.0
REM options -cpp -iprefix /gpfs/warwick/csc/orac/software/Core/GCCcore/6.3.0/bin/../lib/gcc/x86_64-pc-linux-gnu/6.3.0/ -mtune=generic -march=x86-64 -g -O0
REM seed -975706308 1941331773 -1750005054 -755468382 597625418 -394987458 -1398425542 -65111593 -252326316 1334589542 -1493203230 -1912921558
REM
REM C.POTCAR (d86ddea03c3ceb6dc662c8ad6801f873)
REM 
CELL 1.54180   15.00000   15.00000   15.00000   90.00000   90.00000   90.00000
LATT -1
SFAC C  
C      1  0.3271740187604  0.4957236652707  0.4900704298830 1.0
C      1  0.6728340592923  0.4957242750470  0.4900701503664 1.0
C      1  0.4139703432883  0.4957866672771  0.4900085452819 1.0
C      1  0.5000005434870  0.4957653826831  0.4900153755343 1.0
C      1  0.5860210351719  0.4957870097221  0.4900089989343 1.0
END
