TITL C-31896-717-6 -8.275 3375.00 -1457.14502692 0 0 180 (C2h) n - 1
REM
REM Run started: at 2020.12.25 12:00:21 in /gpfs/home/chem/mssmkc/CARBON/AIRSS/Generating-Clusters/Str-Search/Higher-Symm/Only-C180
REM VASP from code version vasp.5.4.4.18Apr17-6-g9f103f2a35 (build Oct 11 2019 16:45:47) gamma-only
REM
REM
REM
REM
REM ./C.cell (73b75853f6e4503fb4b57bac71549d7d)
REM AIRSS Version 0.9.1 bugfix July 2018 build 013d7b7c2542+ Fri, 06 Jul 2018 19:26:36 +0100
REM compiler GCC version 6.3.0
REM options -cpp -iprefix /gpfs/warwick/csc/orac/software/Core/GCCcore/6.3.0/bin/../lib/gcc/x86_64-pc-linux-gnu/6.3.0/ -mtune=generic -march=x86-64 -g -O0
REM seed 69122547 1207636337 -1287259342 251658916 -1648007892 -1941337615 -1425679795 174102112 1145254577 1054561068 -994483775 -1539068294
REM
REM C.POTCAR (d86ddea03c3ceb6dc662c8ad6801f873)
REM 
CELL 1.54180   15.00000   15.00000   15.00000   90.00000   90.00000   90.00000
LATT -1
SFAC C  
C      1  0.3135727032904  0.8480829260551  0.3508520162465 1.0
C      1  0.6864276626571  0.1519148818363  0.3508433990164 1.0
C      1  0.3135716983799  0.8480825944372  0.6491525996292 1.0
C      1  0.6864274293200  0.1519145595881  0.6491525998801 1.0
C      1  0.3979483646153  0.2788272780441  0.7897402874202 1.0
C      1  0.6020525162286  0.7211722227578  0.7897414455044 1.0
C      1  0.3979467952996  0.2788284057958  0.2102585917003 1.0
C      1  0.6020516949307  0.7211732011159  0.2102599682819 1.0
C      1  0.6843915544290  0.3152404658269  0.8513190530102 1.0
C      1  0.3156105131947  0.6847589393469  0.8513213524508 1.0
C      1  0.6843890841479  0.3152420426439  0.1486780450706 1.0
C      1  0.3156089013766  0.6847611575598  0.1486821419725 1.0
C      1  0.5936809962387  0.8286668616425  0.3860152207615 1.0
C      1  0.4063190919007  0.1713330447647  0.3860128446884 1.0
C      1  0.5936812574068  0.8286668817880  0.6139869838865 1.0
C      1  0.4063192738066  0.1713328960186  0.6139860081556 1.0
C      1  0.3699049665769  0.5122646758772  0.1328135255673 1.0
C      1  0.6300925426210  0.4877385293930  0.1328110722982 1.0
C      1  0.3699070461930  0.5122622388649  0.8671884759575 1.0
C      1  0.6300945355920  0.4877363005003  0.8671864093900 1.0
C      1  0.5369737595267  0.3952035897007  0.2698676826393 1.0
C      1  0.4630253224938  0.6047976125862  0.2698691657564 1.0
C      1  0.5369749864918  0.3952025805160  0.7301308198387 1.0
C      1  0.4630258972969  0.6047965136764  0.7301319095805 1.0
C      1  0.5884618174389  0.4722008501084  0.6925726284904 1.0
C      1  0.4115389411976  0.5277983153910  0.6925732435342 1.0
C      1  0.5884607760692  0.4722013323774  0.3074264540202 1.0
C      1  0.4115385184263  0.5277993516371  0.3074271528681 1.0
C      1  0.5805237668392  0.6428888424589  0.1647581357624 1.0
C      1  0.4194739605262  0.3571133648419  0.1647572089290 1.0
C      1  0.5805254333500  0.6428870245426  0.8352420742714 1.0
C      1  0.4194759984849  0.3571116270642  0.8352417785826 1.0
C      1  0.4757306952847  0.2415772809134  0.7367058507799 1.0
C      1  0.5242694213565  0.7584220182885  0.7367067968640 1.0
C      1  0.4757300082974  0.2415782436795  0.2632927989376 1.0
C      1  0.5242694098578  0.7584234375146  0.2632947356367 1.0
C      1  0.6101963245374  0.3485054710406  0.4548209925896 1.0
C      1  0.3898041878848  0.6514931237478  0.4548222155666 1.0
C      1  0.6101958999471  0.3485057684211  0.5451775345890 1.0
C      1  0.3898039474918  0.6514935116138  0.5451787900827 1.0
C      1  0.1925016213279  0.5614501268186  0.4056758193728 1.0
C      1  0.8074976761914  0.4385510825775  0.4056741312190 1.0
C      1  0.1925020468992  0.5614481215726  0.5943256239654 1.0
C      1  0.8074983100181  0.4385501537458  0.5943238275875 1.0
C      1  0.2803623114013  0.2728020040966  0.4107025561677 1.0
C      1  0.7196370803106  0.7271978738290  0.4107024725477 1.0
C      1  0.2803640254319  0.2728012817735  0.5892984464477 1.0
C      1  0.7196378359262  0.7271977736237  0.5892979452475 1.0
C      1  0.5302117904879  0.8459970166767  0.6860694897272 1.0
C      1  0.4697884123156  0.1540031591677  0.6860693944864 1.0
C      1  0.5302113507425  0.8459969311387  0.3139315108603 1.0
C      1  0.4697880445256  0.1540033896356  0.3139296009737 1.0
C      1  0.6865604208501  0.2519033491017  0.2252158238991 1.0
C      1  0.3134361141950  0.7480973324156  0.2252236081416 1.0
C      1  0.6865638031422  0.2519029873568  0.7747783587223 1.0
C      1  0.3134386252222  0.7480968518690  0.7747823729655 1.0
C      1  0.3191532366116  0.1918820337343  0.3695341341116 1.0
C      1  0.6808467621920  0.8081195965841  0.3695367900293 1.0
C      1  0.3191536450974  0.1918812560242  0.6304649937601 1.0
C      1  0.6808469580652  0.8081181766652  0.6304661019784 1.0
C      1  0.4377341372885  0.3292676872419  0.5955479297725 1.0
C      1  0.5622670599427  0.6707313786703  0.5955489138439 1.0
C      1  0.4377335545229  0.3292676104866  0.4044513737106 1.0
C      1  0.5622662322447  0.6707320434591  0.4044524660293 1.0
C      1  0.8259092330281  0.4186229220553  0.3151509556174 1.0
C      1  0.1740911980248  0.5813785240960  0.3151532160718 1.0
C      1  0.8259103964603  0.4186204508848  0.6848456849517 1.0
C      1  0.1740909521497  0.5813753833304  0.6848492262949 1.0
C      1  0.5035457802739  0.3958127024567  0.1757375895181 1.0
C      1  0.4964525424193  0.6041895071026  0.1757387877627 1.0
C      1  0.5035474310014  0.3958113064599  0.8242611341272 1.0
C      1  0.4964536198239  0.6041877236365  0.8242620495081 1.0
C      1  0.4626103418275  0.5316650375794  0.8771737016084 1.0
C      1  0.5373916022032  0.4683334068351  0.8771733559485 1.0
C      1  0.4626077785665  0.5316671935248  0.1228265664140 1.0
C      1  0.5373891510720  0.4683358217920  0.1228260979868 1.0
C      1  0.5447035717840  0.1662011207753  0.7341377768121 1.0
C      1  0.4552963967537  0.8337981864675  0.7341381067143 1.0
C      1  0.5447028361301  0.1662021863634  0.2658599012010 1.0
C      1  0.4552966552027  0.8337999873003  0.2658645228064 1.0
C      1  0.2735403170762  0.3740369179339  0.1973667611704 1.0
C      1  0.7264585638884  0.6259646521755  0.1973663280559 1.0
C      1  0.2735412741954  0.3740359292430  0.8026338165553 1.0
C      1  0.7264596728378  0.6259641830295  0.8026329934342 1.0
C      1  0.3564192909882  0.7979401849597  0.4177438103017 1.0
C      1  0.6435851920926  0.2020609555029  0.4177361135748 1.0
C      1  0.3564188100883  0.7979395018385  0.5822598019897 1.0
C      1  0.6435838505808  0.2020603685038  0.5822603771276 1.0
C      1  0.2587401184779  0.2362985596497  0.3035831424406 1.0
C      1  0.7412596780573  0.7637024789075  0.3035837648278 1.0
C      1  0.2587402351243  0.2362980015550  0.6964167532679 1.0
C      1  0.7412598161882  0.7637019306457  0.6964169314913 1.0
C      1  0.2389894926809  0.7850433892648  0.6266789173473 1.0
C      1  0.7610081204909  0.2149549364253  0.6266759495130 1.0
C      1  0.2389906921819  0.7850442125968  0.3733249397107 1.0
C      1  0.7610077450018  0.2149557716349  0.3733205841271 1.0
C      1  0.6415157957752  0.1699351693226  0.7359852338173 1.0
C      1  0.3584841686336  0.8300619244746  0.7359858016760 1.0
C      1  0.6415144025930  0.1699381570929  0.2640105906770 1.0
C      1  0.3584836010054  0.8300647535964  0.2640185544616 1.0
C      1  0.6997458672867  0.7127234527614  0.2318203196371 1.0
C      1  0.3002530509916  0.2872778194509  0.2318196573982 1.0
C      1  0.6997467915747  0.7127227461607  0.7681801545804 1.0
C      1  0.3002539177714  0.2872770420417  0.7681800413288 1.0
C      1  0.3360422482276  0.3515885279525  0.5976423333341 1.0
C      1  0.6639582567520  0.6484105386578  0.5976428707548 1.0
C      1  0.3360423745091  0.3515896438152  0.4023571927007 1.0
C      1  0.6639578126977  0.6484110783931  0.4023573911429 1.0
C      1  0.5064517440935  0.3147225777029  0.6725080387567 1.0
C      1  0.4935490264384  0.6852764216174  0.6725090510415 1.0
C      1  0.5064513723880  0.3147231501657  0.3274907286713 1.0
C      1  0.4935486403287  0.6852775407401  0.3274924366646 1.0
C      1  0.2424768573694  0.7221783582554  0.7065506944214 1.0
C      1  0.7575227687726  0.2778201062156  0.7065483979912 1.0
C      1  0.2424772687253  0.7221801352195  0.2934524253145 1.0
C      1  0.7575218956251  0.2778214034140  0.2934483315449 1.0
C      1  0.4050001580040  0.4865030523716  0.3990413851319 1.0
C      1  0.5949997263412  0.5134969520345  0.3990407387322 1.0
C      1  0.4050007318925  0.4865026922473  0.6009588838283 1.0
C      1  0.5950004237253  0.5134966508197  0.6009581694947 1.0
C      1  0.8009921349932  0.2569790669333  0.5490541297902 1.0
C      1  0.1990056131239  0.7430196964482  0.5490576870203 1.0
C      1  0.8009921921359  0.2569796750703  0.4509427144059 1.0
C      1  0.1990056572703  0.7430203344067  0.4509460660338 1.0
C      1  0.1736087289128  0.6550830071668  0.7232455902538 1.0
C      1  0.8263950488390  0.3449131671618  0.7232434132706 1.0
C      1  0.1736060240702  0.6550860379727  0.2767568802588 1.0
C      1  0.8263935969536  0.3449143020352  0.2767534409938 1.0
C      1  0.5618788824070  0.7614302373260  0.5448431436371 1.0
C      1  0.4381218673036  0.2385689480299  0.5448421066875 1.0
C      1  0.5618783222099  0.7614302394370  0.4551581581748 1.0
C      1  0.4381219831634  0.2385688763555  0.4551568158884 1.0
C      1  0.7619216940790  0.5117640509772  0.4525968283977 1.0
C      1  0.2380788321076  0.4882363107924  0.4525975358652 1.0
C      1  0.7619217533230  0.5117635912993  0.5474019856396 1.0
C      1  0.2380794067212  0.4882362516785  0.5474026169671 1.0
C      1  0.1917274804782  0.2631015146776  0.5479234257714 1.0
C      1  0.8082724183998  0.7368991799965  0.5479237712916 1.0
C      1  0.1917276818775  0.2631013786563  0.4520765548898 1.0
C      1  0.8082723934250  0.7368987341009  0.4520768133111 1.0
C      1  0.3596600659580  0.5970094125905  0.7314188439502 1.0
C      1  0.6403413828673  0.4029894922401  0.7314178040142 1.0
C      1  0.3596588053976  0.5970109121195  0.2685825906877 1.0
C      1  0.6403404902004  0.4029911808290  0.2685798470675 1.0
C      1  0.5337413492970  0.5841135542028  0.4465242782905 1.0
C      1  0.4662589390888  0.4158861889037  0.4465237596347 1.0
C      1  0.5337418151073  0.5841134386453  0.5534762558147 1.0
C      1  0.4662590204920  0.4158859664296  0.5534758902498 1.0
C      1  0.3339397904954  0.6806859889631  0.6926501257056 1.0
C      1  0.6660608272798  0.3193136241452  0.6926488740562 1.0
C      1  0.3339394863729  0.6806873139974  0.3073511723673 1.0
C      1  0.6660602250580  0.3193149781020  0.3073487853466 1.0
C      1  0.8151950815959  0.3582925709449  0.4540911438077 1.0
C      1  0.1848014411200  0.6417065771530  0.4540945263455 1.0
C      1  0.8151955041700  0.3582924959130  0.5459055308396 1.0
C      1  0.1848022822603  0.6417067841768  0.5459096980295 1.0
C      1  0.6848866328672  0.5607741777030  0.4113423257168 1.0
C      1  0.3151139494740  0.4392252714640  0.4113430083380 1.0
C      1  0.6848865572655  0.5607744186347  0.5886563828738 1.0
C      1  0.3151137650718  0.4392257207586  0.5886576780330 1.0
C      1  0.5673236510214  0.4348113072312  0.4495386076110 1.0
C      1  0.4326768049473  0.5651879082498  0.4495396235160 1.0
C      1  0.5673238371602  0.4348108243312  0.5504602401055 1.0
C      1  0.4326768930619  0.5651879956872  0.5504614468734 1.0
C      1  0.6693800590596  0.4018430370976  0.8330383127144 1.0
C      1  0.3306214486375  0.5981559534052  0.8330411931574 1.0
C      1  0.6693779576228  0.4018450538908  0.1669583776589 1.0
C      1  0.3306200830459  0.5981583458925  0.1669619088397 1.0
C      1  0.3424798395335  0.4198998430477  0.1527852013289 1.0
C      1  0.6575187623428  0.5801025476166  0.1527839803992 1.0
C      1  0.3424809259947  0.4198980468401  0.8472159367328 1.0
C      1  0.6575197129357  0.5801010159405  0.8472140656796 1.0
C      1  0.3962299739770  0.7124382648569  0.6194933481150 1.0
C      1  0.6037701702429  0.2875607695926  0.6194926739698 1.0
C      1  0.3962304456922  0.7124389730110  0.3805085414499 1.0
C      1  0.6037705413009  0.2875618058008  0.3805050255632 1.0
C      1  0.1771211678840  0.2633515450096  0.6393905707773 1.0
C      1  0.8228789751972  0.7366483913456  0.6393911035960 1.0
C      1  0.1771208825972  0.2633524423407  0.3606091674307 1.0
C      1  0.8228787303606  0.7366487490825  0.3606096976079 1.0
END
