TITL C-31273-9599-74 -1.396 3375.00 -230.60783057 0 0 28 (D7d) n - 1
REM
REM Run started: at 2020.12.29 15:43:37 in /gpfs/home/chem/mssmkc/CARBON/AIRSS/Generating-Clusters/Str-Search/Higher-Symm/C4-100
REM VASP from code version vasp.5.4.4.18Apr17-6-g9f103f2a35 (build Oct 11 2019 16:45:47) gamma-only
REM
REM
REM
REM
REM ./C.cell (6bd13a13d554368a30d355f37ece5b26)
REM AIRSS Version 0.9.1 bugfix July 2018 build 013d7b7c2542+ Fri, 06 Jul 2018 19:26:36 +0100
REM compiler GCC version 6.3.0
REM options -cpp -iprefix /gpfs/warwick/csc/orac/software/Core/GCCcore/6.3.0/bin/../lib/gcc/x86_64-pc-linux-gnu/6.3.0/ -mtune=generic -march=x86-64 -g -O0
REM seed -804168347 -1514878841 -1585358491 -416754168 -34440694 1654863586 618181698 190939136 1576445674 -1754982583 -231884015 1116717968
REM
REM C.POTCAR (d86ddea03c3ceb6dc662c8ad6801f873)
REM 
CELL 1.54180   15.00000   15.00000   15.00000   90.00000   90.00000   90.00000
LATT -1
SFAC C  
C      1  0.5952630269492  0.3948350657594  0.4447857715469 1.0
C      1  0.5162922183814  0.3927746125266  0.3888532280682 1.0
C      1  0.4239341629353  0.3948278453676  0.4199873696974 1.0
C      1  0.3882249675419  0.3937402776005  0.5080910020273 1.0
C      1  0.4386804951881  0.3945212611443  0.5932985097544 1.0
C      1  0.5323020127121  0.3947433326081  0.6065606897684 1.0
C      1  0.6050972721546  0.3933239467943  0.5398277264331 1.0
C      1  0.4030620184423  0.4741114695300  0.6451139867775 1.0
C      1  0.5518011982505  0.4745589766836  0.6665322707147 1.0
C      1  0.6630261172117  0.4724985334526  0.5624313128511 1.0
C      1  0.6499295432478  0.4750864337714  0.4124322415520 1.0
C      1  0.5251022957907  0.4717574988508  0.3273239649704 1.0
C      1  0.3807859004602  0.4749644736049  0.3734918420911 1.0
C      1  0.3259832423873  0.4729870348690  0.5136078524724 1.0
C      1  0.4048358121704  0.6051421307142  0.5552798412802 1.0
C      1  0.4837981706839  0.6072794528467  0.6111473965545 1.0
C      1  0.5761125006637  0.6051343623356  0.5798847856192 1.0
C      1  0.6117870522559  0.6062882460481  0.4918208367825 1.0
C      1  0.5612149232960  0.6055164226388  0.4066756042945 1.0
C      1  0.4675930376537  0.6052738773288  0.3935215797902 1.0
C      1  0.3948487607661  0.6067431729420  0.4602628288052 1.0
C      1  0.6192049956419  0.5249927225199  0.6264543892491 1.0
C      1  0.6739780139753  0.5269863097063  0.4863915390309 1.0
C      1  0.5968401060362  0.5258880747061  0.3549877575747 1.0
C      1  0.4481905312274  0.5254244174849  0.3334920024614 1.0
C      1  0.3371027532398  0.5274673528781  0.4376228359813 1.0
C      1  0.3500943491521  0.5248951502444  0.5875774445308 1.0
C      1  0.4749145215846  0.5282375450428  0.6725432893207 1.0
END
