TITL C-31273-9599-208 -3.889 3375.00 -659.01673285 0 0 82 (Cs) n - 1
REM
REM Run started: at 2020.12.30 18:53:41 in /gpfs/home/chem/mssmkc/CARBON/AIRSS/Generating-Clusters/Str-Search/Higher-Symm/C4-100
REM VASP from code version vasp.5.4.4.18Apr17-6-g9f103f2a35 (build Oct 11 2019 16:45:47) gamma-only
REM
REM
REM
REM
REM ./C.cell (6bd13a13d554368a30d355f37ece5b26)
REM AIRSS Version 0.9.1 bugfix July 2018 build 013d7b7c2542+ Fri, 06 Jul 2018 19:26:36 +0100
REM compiler GCC version 6.3.0
REM options -cpp -iprefix /gpfs/warwick/csc/orac/software/Core/GCCcore/6.3.0/bin/../lib/gcc/x86_64-pc-linux-gnu/6.3.0/ -mtune=generic -march=x86-64 -g -O0
REM seed -2095665732 582688747 746701048 855444196 1705700529 -1772926169 -1295384547 330618437 -493589801 2108316990 -1130844700 502817125
REM
REM C.POTCAR (d86ddea03c3ceb6dc662c8ad6801f873)
REM 
CELL 1.54180   15.00000   15.00000   15.00000   90.00000   90.00000   90.00000
LATT -1
SFAC C  
C      1  0.6069709876106  0.5019408343635  0.2341023866173 1.0
C      1  0.6069708745609  0.5019405888012  0.7658977831645 1.0
C      1  0.4108870447835  0.3040113182269  0.4533984424667 1.0
C      1  0.4108870777834  0.3040113209953  0.5466012906627 1.0
C      1  0.3749121874796  0.7945507662762  0.5423970232738 1.0
C      1  0.3749122524409  0.7945508878832  0.4576031617358 1.0
C      1  0.4442173205706  0.3050754808285  0.7158455165738 1.0
C      1  0.4442162163514  0.3050752853171  0.2841534793861 1.0
C      1  0.3330892938834  0.6129251961460  0.6205725579691 1.0
C      1  0.3330896886680  0.6129254591958  0.3794277315439 1.0
C      1  0.5797473919996  0.2749511821110  0.3905200064911 1.0
C      1  0.5797478934319  0.2749513764194  0.6094797973414 1.0
C      1  0.7784897741576  0.5739194280810  0.3819471955772 1.0
C      1  0.7784896218120  0.5739191927091  0.6180530137457 1.0
C      1  0.5737919018262  0.4143871866632  0.5528507354778 1.0
C      1  0.5737918519993  0.4143870658212  0.4471492264370 1.0
C      1  0.4393147951057  0.7511444892307  0.5902986586452 1.0
C      1  0.4393148811328  0.7511445502125  0.4097016712150 1.0
C      1  0.2577407419776  0.4882191020787  0.3176345401043 1.0
C      1  0.2577408071248  0.4882187718199  0.6823653528847 1.0
C      1  0.3062269924283  0.5693962615442  0.3001336121985 1.0
C      1  0.3062267006804  0.5693962870777  0.6998665840885 1.0
C      1  0.3683670055900  0.5209116431816  0.2437013564897 1.0
C      1  0.3683667706696  0.5209116025591  0.7562990645660 1.0
C      1  0.2876662119843  0.4052764499411  0.5521188821589 1.0
C      1  0.2876665411216  0.4052762045147  0.4478807983185 1.0
C      1  0.7305137854659  0.3612830124067  0.4537262939848 1.0
C      1  0.7305137864735  0.3612830904538  0.5462736908380 1.0
C      1  0.2423846395486  0.4855077125286  0.5898851864651 1.0
C      1  0.2423846719459  0.4855080918426  0.4101150729456 1.0
C      1  0.3791037513686  0.4533852170562  0.4519875761650 1.0
C      1  0.3791037249204  0.4533850509426  0.5480122999560 1.0
C      1  0.4285268057777  0.6558484960677  0.6235359082819 1.0
C      1  0.4285269907296  0.6558487312093  0.3764642131371 1.0
C      1  0.5154908752146  0.6107107180437  0.5519753806404 1.0
C      1  0.5154909895664  0.6107108039005  0.4480245990781 1.0
C      1  0.4437023340664  0.4793166046113  0.3950808165473 1.0
C      1  0.4437022467872  0.4793165334610  0.6049191115998 1.0
C      1  0.5151311805571  0.2716135608312  0.3129377022807 1.0
C      1  0.5151308965582  0.2716138254758  0.6870623433833 1.0
C      1  0.5268857713259  0.7544280798370  0.4518420439074 1.0
C      1  0.5268857670323  0.7544279777620  0.5481583221179 1.0
C      1  0.3183416740993  0.4319481773038  0.2654864701001 1.0
C      1  0.3183418473941  0.4319488458156  0.7345133398491 1.0
C      1  0.6086287283232  0.2066978138643  0.4582134063767 1.0
C      1  0.6086291814834  0.2066976860907  0.5417861608208 1.0
C      1  0.5194186969133  0.4884105807938  0.2345466696480 1.0
C      1  0.5194187198718  0.4884102949673  0.7654533942992 1.0
C      1  0.6463342664466  0.3623486567734  0.6016154117362 1.0
C      1  0.6463340984908  0.3623485073384  0.3983844727200 1.0
C      1  0.4538740296647  0.4757509438947  0.3000372869939 1.0
C      1  0.4538741092475  0.4757506017606  0.6999627225815 1.0
C      1  0.7370209419956  0.4029882031635  0.6262907258798 1.0
C      1  0.7370208556523  0.4029883931645  0.3737094612537 1.0
C      1  0.7279606312949  0.5610425975581  0.3034599234381 1.0
C      1  0.7279603896950  0.5610423586363  0.6965403886401 1.0
C      1  0.5758014266108  0.6451139200691  0.6896498626286 1.0
C      1  0.5758015200204  0.6451141047381  0.3103502704287 1.0
C      1  0.6413359187870  0.5806098934186  0.7302864140655 1.0
C      1  0.6413360111311  0.5806100964063  0.2697139024183 1.0
C      1  0.7566302495131  0.6280661340669  0.4511161480745 1.0
C      1  0.7566302012750  0.6280660198728  0.5488841417379 1.0
C      1  0.3583036774398  0.3478765084113  0.3025149362675 1.0
C      1  0.3583045595142  0.3478761300185  0.6974842972698 1.0
C      1  0.5213251139309  0.5058764348086  0.4479247945169 1.0
C      1  0.5213249515095  0.5058763462255  0.5520751263524 1.0
C      1  0.7680047848478  0.4858223498933  0.6592448681966 1.0
C      1  0.7680049359411  0.4858224342101  0.3407552752664 1.0
C      1  0.5854214247434  0.6790407356538  0.5917382749247 1.0
C      1  0.5854215057433  0.6790408217571  0.4082618609364 1.0
C      1  0.3369311354171  0.3340325284289  0.6052417163676 1.0
C      1  0.3369312163012  0.3340326901708  0.3947578613342 1.0
C      1  0.4549626598597  0.5621094844268  0.7681428006944 1.0
C      1  0.4549626787778  0.5621097953584  0.2318570472331 1.0
C      1  0.5109301112405  0.3257611823728  0.4493789432027 1.0
C      1  0.5109301508024  0.3257611185429  0.5506206939905 1.0
C      1  0.6735360604414  0.6809042372153  0.4533189183136 1.0
C      1  0.6735360265376  0.6809041471097  0.5466813461891 1.0
C      1  0.4846542737731  0.6355107187795  0.2914893302433 1.0
C      1  0.4846543370469  0.6355103758123  0.7085106918974 1.0
C      1  0.2774228869195  0.5712860881910  0.5484685274866 1.0
C      1  0.2774229667903  0.5712860044879  0.4515316851643 1.0
END
