TITL C-31273-9599-56 -2.098 3375.00 -332.03714195 0 0 43 (C2) n - 1
REM
REM Run started: at 2020.12.29 13:00:05 in /gpfs/home/chem/mssmkc/CARBON/AIRSS/Generating-Clusters/Str-Search/Higher-Symm/C4-100
REM VASP from code version vasp.5.4.4.18Apr17-6-g9f103f2a35 (build Oct 11 2019 16:45:47) gamma-only
REM
REM
REM
REM
REM ./C.cell (6bd13a13d554368a30d355f37ece5b26)
REM AIRSS Version 0.9.1 bugfix July 2018 build 013d7b7c2542+ Fri, 06 Jul 2018 19:26:36 +0100
REM compiler GCC version 6.3.0
REM options -cpp -iprefix /gpfs/warwick/csc/orac/software/Core/GCCcore/6.3.0/bin/../lib/gcc/x86_64-pc-linux-gnu/6.3.0/ -mtune=generic -march=x86-64 -g -O0
REM seed -1690681577 -2126481266 566889505 -824683174 -1189994979 1565094775 1873214357 1477239965 -1263975678 526301331 -420105100 641897248
REM
REM C.POTCAR (d86ddea03c3ceb6dc662c8ad6801f873)
REM 
CELL 1.54180   15.00000   15.00000   15.00000   90.00000   90.00000   90.00000
LATT -1
SFAC C  
C      1  0.3450800471668  0.3461213427087  0.5380190221168 1.0
C      1  0.3481067289064  0.6524864055767  0.4579805664099 1.0
C      1  0.3441049346291  0.4105241963525  0.4686676113095 1.0
C      1  0.3457955447009  0.5878421323768  0.5271724507817 1.0
C      1  0.5872830118066  0.2141695012393  0.5800831090299 1.0
C      1  0.5922716337818  0.7810219737588  0.4179076314002 1.0
C      1  0.5211713893466  0.6051608114271  0.4584619441424 1.0
C      1  0.5191736839994  0.3897109633418  0.5367784802419 1.0
C      1  0.5018252824562  0.4331112418965  0.2851385557933 1.0
C      1  0.5036481148835  0.5613016963172  0.7100854137913 1.0
C      1  0.6393163923994  0.4723588021622  0.4297454016387 1.0
C      1  0.6400568109769  0.5195103909568  0.5649151244646 1.0
C      1  0.3940275151480  0.6748656074362  0.3913084491557 1.0
C      1  0.3905376021122  0.3235885308356  0.6049613344571 1.0
C      1  0.4541412070300  0.2320990685617  0.4229282295388 1.0
C      1  0.4588045650534  0.7635526798499  0.5740094844560 1.0
C      1  0.6098422754612  0.5527286122101  0.4788880386161 1.0
C      1  0.6089530892926  0.4396985072503  0.5160175747983 1.0
C      1  0.4477597495530  0.3179042804680  0.3716873169745 1.0
C      1  0.4510626809067  0.6777076755363  0.6247380245912 1.0
C      1  0.5160835356625  0.3265334504177  0.4499330632602 1.0
C      1  0.5193104856125  0.6680634318916  0.5462565732655 1.0
C      1  0.5905556527744  0.5308642529840  0.7069706859438 1.0
C      1  0.5895529713031  0.4612221103241  0.2878595172112 1.0
C      1  0.6136125661828  0.8079359055724  0.4973820707411 1.0
C      1  0.6083146794245  0.1866252298948  0.5008259906831 1.0
C      1  0.6563796770189  0.5261083747109  0.6539254100883 1.0
C      1  0.6556093418120  0.4656436406549  0.3406889835035 1.0
C      1  0.4534153936477  0.5278932574776  0.4285504275854 1.0
C      1  0.4532366840921  0.4685407645272  0.5663717556321 1.0
C      1  0.4856187992414  0.3174789294345  0.6129021743322 1.0
C      1  0.4892024091534  0.6789460554809  0.3833719386491 1.0
C      1  0.4435582597361  0.5248123991328  0.6394559186951 1.0
C      1  0.4428898376876  0.4710843941633  0.3560164410085 1.0
C      1  0.3874693290225  0.3947934866607  0.3889714715203 1.0
C      1  0.3893652919344  0.6021797618662  0.6070805218919 1.0
C      1  0.5059796902109  0.6557910566345  0.7044257421974 1.0
C      1  0.5025765791954  0.3386487142334  0.2915967544160 1.0
C      1  0.5493905557803  0.7591600341916  0.5487713135708 1.0
C      1  0.5448381494139  0.2350192463086  0.4482427647147 1.0
C      1  0.5416848760621  0.7475294976630  0.3536899601544 1.0
C      1  0.5366740020034  0.2484958130614  0.6439600918731 1.0
C      1  0.3856416734171  0.4988945724515  0.4976757653547 1.0
END
