TITL C-31273-9599-67 -2.52 3375.00 -447.90604042 0 0 55 (C3) n - 1
REM
REM Run started: at 2020.12.29 14:39:57 in /gpfs/home/chem/mssmkc/CARBON/AIRSS/Generating-Clusters/Str-Search/Higher-Symm/C4-100
REM VASP from code version vasp.5.4.4.18Apr17-6-g9f103f2a35 (build Oct 11 2019 16:45:47) gamma-only
REM
REM
REM
REM
REM ./C.cell (6bd13a13d554368a30d355f37ece5b26)
REM AIRSS Version 0.9.1 bugfix July 2018 build 013d7b7c2542+ Fri, 06 Jul 2018 19:26:36 +0100
REM compiler GCC version 6.3.0
REM options -cpp -iprefix /gpfs/warwick/csc/orac/software/Core/GCCcore/6.3.0/bin/../lib/gcc/x86_64-pc-linux-gnu/6.3.0/ -mtune=generic -march=x86-64 -g -O0
REM seed 1120005037 1515924340 -1170724952 -699815913 1000503649 498114878 741247190 1191756994 -1663918546 -255706134 -1353965977 2117944901
REM
REM C.POTCAR (d86ddea03c3ceb6dc662c8ad6801f873)
REM 
CELL 1.54180   15.00000   15.00000   15.00000   90.00000   90.00000   90.00000
LATT -1
SFAC C  
C      1  0.6825016296159  0.6158434244372  0.5510836832763 1.0
C      1  0.6239583612623  0.5431428467032  0.6945923402158 1.0
C      1  0.5477944611939  0.6818895337286  0.6184252833853 1.0
C      1  0.3159943424673  0.3831139305682  0.5483331962135 1.0
C      1  0.6818848356633  0.3813436473493  0.4521143371947 1.0
C      1  0.3051851811288  0.6240707499914  0.4565853899708 1.0
C      1  0.3832014472035  0.4512838269647  0.6840426656406 1.0
C      1  0.6159143540729  0.4489382082157  0.3175884840680 1.0
C      1  0.3813710750538  0.5478534326818  0.3178011807634 1.0
C      1  0.4514169182317  0.3155796440005  0.6168551926354 1.0
C      1  0.5431965772294  0.3052099462733  0.3758103725579 1.0
C      1  0.4487804255309  0.6823979084120  0.3838359119219 1.0
C      1  0.6120864934675  0.6848812747213  0.5501623025383 1.0
C      1  0.5426725773440  0.5958883592542  0.6725245648760 1.0
C      1  0.6856115969615  0.5492672676795  0.6173934396609 1.0
C      1  0.3858272917307  0.3133401161700  0.5499733667810 1.0
C      1  0.3823981833141  0.6856990486335  0.4503326287508 1.0
C      1  0.5958618063952  0.3271742025747  0.4572058396303 1.0
C      1  0.4497691426886  0.3854293998948  0.6866712827322 1.0
C      1  0.4497555349442  0.6120798633887  0.3147500761365 1.0
C      1  0.5494853653959  0.3825415996717  0.3142584509635 1.0
C      1  0.3134879432404  0.4497221834851  0.6140741395876 1.0
C      1  0.3271958244919  0.5427637838010  0.4038176078968 1.0
C      1  0.6849631292455  0.4497707122264  0.3879338873063 1.0
C      1  0.4443484394687  0.6178195278185  0.6940312273757 1.0
C      1  0.6136604872602  0.6859488942181  0.4506224014463 1.0
C      1  0.6646782957881  0.4517556994251  0.6015524919998 1.0
C      1  0.5490065651580  0.3818080521631  0.6927563583102 1.0
C      1  0.4518487005801  0.3983082486819  0.3348326993002 1.0
C      1  0.5494008737630  0.6136577145487  0.3138684331182 1.0
C      1  0.3821176246704  0.3072228582194  0.4506853109673 1.0
C      1  0.6178569558020  0.3056054717612  0.5555504865612 1.0
C      1  0.3983710500991  0.6648211152942  0.5478798559210 1.0
C      1  0.3073565722756  0.5489113091598  0.6177052746787 1.0
C      1  0.6862777168144  0.5493866113344  0.3862241107651 1.0
C      1  0.3058280512963  0.4443580338126  0.3819010559728 1.0
C      1  0.6178252392207  0.4470903857823  0.6913048844034 1.0
C      1  0.6850195378644  0.6157743893416  0.4518523722793 1.0
C      1  0.4518386687283  0.6886985930005  0.6271094405213 1.0
C      1  0.3773341421784  0.5503056507194  0.6864712138820 1.0
C      1  0.3726567954183  0.4518843898560  0.3109351250865 1.0
C      1  0.6159725749187  0.5481356619339  0.3149781282823 1.0
C      1  0.3133342394113  0.3772114143588  0.4493085550601 1.0
C      1  0.3087606132309  0.6178940157667  0.5525920664670 1.0
C      1  0.6887240103601  0.3725341739722  0.5480936410953 1.0
C      1  0.5504353803165  0.3129954464485  0.6227790340599 1.0
C      1  0.5480075395185  0.6847767610391  0.3841770845277 1.0
C      1  0.4471763117049  0.3086029440173  0.3816685513031 1.0
C      1  0.5332279872130  0.4052508053102  0.4908922235303 1.0
C      1  0.4510569186327  0.5686296127530  0.5266667559286 1.0
C      1  0.5685828492773  0.4728813419420  0.5489349239535 1.0
C      1  0.4053328726899  0.5090874131266  0.4663305802757 1.0
C      1  0.4730532016183  0.4509955215658  0.4312165803853 1.0
C      1  0.5088279419530  0.5331907125695  0.5944745050465 1.0
C      1  0.5358827448958  0.5352477192331  0.4646181027923 1.0
END
