TITL C-31660-4929-29 -2.398 3375.00 -371.52376760 0 0 46 (C1) n - 1
REM
REM Run started: at 2020.11.29 20:20:37 in /rds/project/t2_vol4/rds-t2-cs072/BORA/CARBON/AIRSS/Generating-Clusters/Str-Search/Higher-Symm/C10-100
REM VASP from code version vasp.5.4.4.18Apr17-6-g9f103f2a35 (build Oct 11 2019 16:45:47) gamma-only
REM
REM
REM
REM
REM ./C.cell (f39ce9773e2efe3fa5bbdf770a4156b8)
REM AIRSS Version 0.9.1 bugfix July 2018 build 013d7b7c2542+ Fri, 06 Jul 2018 19:26:36 +0100
REM compiler GCC version 4.8.5 20150623 (Red Hat 4.8.5-39)
REM options -cpp -mtune=generic -march=x86-64 -g -O0
REM seed 2006996113 6337196 369322000 -332035764 1912118942 -2076816719 -1625761034 -1472512619 503424618 1559735413 -1005661194 -1503930175
REM
REM C.POTCAR (d86ddea03c3ceb6dc662c8ad6801f873)
REM 
CELL 1.54180   15.00000   15.00000   15.00000   90.00000   90.00000   90.00000
LATT -1
SFAC C  
C      1  0.3752711877969  0.5286609357460  0.7019728316955 1.0
C      1  0.3776161457719  0.3166527999808  0.5877384661272 1.0
C      1  0.3774359196007  0.3578762774026  0.3552010580428 1.0
C      1  0.3736604517652  0.5853626053752  0.3200296211970 1.0
C      1  0.3857585369615  0.6615953114269  0.5443793063315 1.0
C      1  0.6243251529083  0.4700915608141  0.6990379333269 1.0
C      1  0.6333768635145  0.6854870288559  0.6021317010040 1.0
C      1  0.6213074530825  0.6339523780754  0.3561468718985 1.0
C      1  0.6274319968243  0.4051022373746  0.3189846546177 1.0
C      1  0.6256101398211  0.3041923590041  0.5323981532150 1.0
C      1  0.6959537221188  0.4844486777780  0.6604736663382 1.0
C      1  0.6977466606811  0.3444444629229  0.5326969417888 1.0
C      1  0.6981996179024  0.4203197448672  0.3586695755794 1.0
C      1  0.6967152184287  0.6090385996778  0.3807161552018 1.0
C      1  0.7008958020074  0.6511810184886  0.5685107236764 1.0
C      1  0.3051854626386  0.5107694431646  0.6620128673603 1.0
C      1  0.2999695149074  0.6500073506612  0.5358788857057 1.0
C      1  0.3015652148976  0.5764154497140  0.3601763346789 1.0
C      1  0.3048511882421  0.3889606055737  0.3792807582994 1.0
C      1  0.3041967905374  0.3461468385626  0.5643338314398 1.0
C      1  0.2547281117779  0.5006079652057  0.5838493585783 1.0
C      1  0.2557143371457  0.4195525906150  0.5333202367870 1.0
C      1  0.2543509526759  0.4413617475319  0.4377254734078 1.0
C      1  0.2507066159602  0.5364828854168  0.4283246836877 1.0
C      1  0.2511467714382  0.5741412074635  0.5196209760833 1.0
C      1  0.7453135384651  0.4944439417617  0.5819549512576 1.0
C      1  0.7457948328801  0.5773512164324  0.5342515305792 1.0
C      1  0.7452242742170  0.5561256849971  0.4385138421776 1.0
C      1  0.7472234648365  0.4599696052006  0.4277452150834 1.0
C      1  0.7459705768795  0.4221272984129  0.5164294184886 1.0
C      1  0.4706737213442  0.3258187721137  0.5969584269384 1.0
C      1  0.4706976504497  0.3503482834779  0.3634685455211 1.0
C      1  0.4672491100721  0.5750789615312  0.3102272595083 1.0
C      1  0.4783318238301  0.6929823277817  0.5365908423997 1.0
C      1  0.4684991599070  0.5426050801365  0.6996750508995 1.0
C      1  0.5407422041008  0.6759286553957  0.6139113273641 1.0
C      1  0.5296578604107  0.6343709176115  0.3628411670475 1.0
C      1  0.5341424781529  0.4149389847398  0.3119483797716 1.0
C      1  0.5326983111785  0.3020985124307  0.5210681896198 1.0
C      1  0.5311065275552  0.4593106111065  0.6948447593899 1.0
C      1  0.5032022698173  0.6221801024087  0.6766603473735 1.0
C      1  0.5001210330258  0.3085901704437  0.4367060029904 1.0
C      1  0.5013125280968  0.3823512972720  0.6606579450585 1.0
C      1  0.4902884318509  0.6532934325566  0.4469584862154 1.0
C      1  0.5015858063044  0.4944201508675  0.2870068658075 1.0
C      1  0.4357057672191  0.5920639116224  0.4895846804394 1.0
END
