TITL C-31273-9599-99 -1.883 3375.00 -309.94617358 0 0 40 (Ci) n - 1
REM
REM Run started: at 2020.12.29 19:50:16 in /gpfs/home/chem/mssmkc/CARBON/AIRSS/Generating-Clusters/Str-Search/Higher-Symm/C4-100
REM VASP from code version vasp.5.4.4.18Apr17-6-g9f103f2a35 (build Oct 11 2019 16:45:47) gamma-only
REM
REM
REM
REM
REM ./C.cell (6bd13a13d554368a30d355f37ece5b26)
REM AIRSS Version 0.9.1 bugfix July 2018 build 013d7b7c2542+ Fri, 06 Jul 2018 19:26:36 +0100
REM compiler GCC version 6.3.0
REM options -cpp -iprefix /gpfs/warwick/csc/orac/software/Core/GCCcore/6.3.0/bin/../lib/gcc/x86_64-pc-linux-gnu/6.3.0/ -mtune=generic -march=x86-64 -g -O0
REM seed -2096662596 980896122 156632532 521532075 -1493223604 1563730690 -1853980252 -240288659 -404388388 -1371698327 -1695079953 -443052400
REM
REM C.POTCAR (d86ddea03c3ceb6dc662c8ad6801f873)
REM 
CELL 1.54180   15.00000   15.00000   15.00000   90.00000   90.00000   90.00000
LATT -1
SFAC C  
C      1  0.5534594118977  0.4970711620153  0.2684360358156 1.0
C      1  0.4465406003818  0.5029288161301  0.7315639417699 1.0
C      1  0.5598257672310  0.5437540799506  0.5512723331252 1.0
C      1  0.4401742264986  0.4562459346512  0.4487276632826 1.0
C      1  0.6835423534813  0.4188212952563  0.5120626529120 1.0
C      1  0.3164576328662  0.5811787215950  0.4879373614101 1.0
C      1  0.6752153065858  0.3341829640519  0.4640484512232 1.0
C      1  0.3247846346878  0.6658170239878  0.5359515206431 1.0
C      1  0.4596735587786  0.6263775374938  0.6478604711529 1.0
C      1  0.5403264503202  0.3736224658968  0.3521395635510 1.0
C      1  0.4901404696520  0.4234363017372  0.7582797932381 1.0
C      1  0.5098595716554  0.5765637120239  0.2417202102477 1.0
C      1  0.3291189555623  0.6069460894989  0.3867764762591 1.0
C      1  0.6708810091852  0.3930539019977  0.6132235394882 1.0
C      1  0.4281546142309  0.4693765596599  0.6337741952764 1.0
C      1  0.5718453848097  0.5306234400456  0.3662258051646 1.0
C      1  0.5774885567351  0.3981272382741  0.6059683359546 1.0
C      1  0.4225114451947  0.6018727795474  0.3940316671919 1.0
C      1  0.2896271445346  0.4958259680899  0.5307782420796 1.0
C      1  0.7103728323406  0.5041740293782  0.4692217645475 1.0
C      1  0.4652159319330  0.5490856419645  0.5763908676984 1.0
C      1  0.5347840529174  0.4509143608224  0.4236091191917 1.0
C      1  0.5803210327594  0.4515289736877  0.5189837330754 1.0
C      1  0.4196789480027  0.5484710249492  0.4810162686691 1.0
C      1  0.6826793245228  0.5952582557539  0.4824073846763 1.0
C      1  0.3173206663998  0.4047417228033  0.5175926140670 1.0
C      1  0.5237079145821  0.2946521977763  0.4099546669469 1.0
C      1  0.4762920973280  0.7053478072439  0.5900453373142 1.0
C      1  0.4427633982790  0.2956543609331  0.4529341096709 1.0
C      1  0.5572366122036  0.7043456440454  0.5470658926861 1.0
C      1  0.5025035377839  0.4089600798435  0.6636005191721 1.0
C      1  0.4974964658178  0.5910399411781  0.3363995004372 1.0
C      1  0.6066739260924  0.6259053640614  0.5379979416344 1.0
C      1  0.3933260891160  0.3740946416947  0.4620020556999 1.0
C      1  0.6613251615983  0.5510318445073  0.4025363319559 1.0
C      1  0.3386748417140  0.4489681476672  0.5974636454182 1.0
C      1  0.3886725944308  0.7167215875670  0.5544110970578 1.0
C      1  0.6113274738369  0.2832784087683  0.4455889091214 1.0
C      1  0.4513942402304  0.5965433001287  0.7315514546400 1.0
C      1  0.5486057638225  0.4034566733224  0.2684485265338 1.0
END
