TITL C-31896-717-35 -8.381 3375.00 -1477.40701265 0 0 180 (C4) n - 1
REM
REM Run started: at 2020.12.26 12:19:31 in /gpfs/home/chem/mssmkc/CARBON/AIRSS/Generating-Clusters/Str-Search/Higher-Symm/Only-C180
REM VASP from code version vasp.5.4.4.18Apr17-6-g9f103f2a35 (build Oct 11 2019 16:45:47) gamma-only
REM
REM
REM
REM
REM ./C.cell (73b75853f6e4503fb4b57bac71549d7d)
REM AIRSS Version 0.9.1 bugfix July 2018 build 013d7b7c2542+ Fri, 06 Jul 2018 19:26:36 +0100
REM compiler GCC version 6.3.0
REM options -cpp -iprefix /gpfs/warwick/csc/orac/software/Core/GCCcore/6.3.0/bin/../lib/gcc/x86_64-pc-linux-gnu/6.3.0/ -mtune=generic -march=x86-64 -g -O0
REM seed -1860196533 -1824074963 -1689655023 -601763296 1304595695 500848427 1464539137 1699895092 584173056 -951034163 -1152863858 -1778912305
REM
REM C.POTCAR (d86ddea03c3ceb6dc662c8ad6801f873)
REM 
CELL 1.54180   15.00000   15.00000   15.00000   90.00000   90.00000   90.00000
LATT -1
SFAC C  
C      1  0.4266622706657  0.7236095178220  0.4749070163216 1.0
C      1  0.4743567025997  0.7234181945805  0.5732915535204 1.0
C      1  0.5733367288625  0.7236129257011  0.5250833275527 1.0
C      1  0.5256384273119  0.7234175833295  0.4266981435080 1.0
C      1  0.4460036441993  0.4346150945734  0.5390612207393 1.0
C      1  0.5390535444434  0.4345987846732  0.5539864579398 1.0
C      1  0.5540059509013  0.4346107478082  0.4609480502618 1.0
C      1  0.4609480287316  0.4345899028100  0.4460146885483 1.0
C      1  0.4318441512232  0.9041858235859  0.5169340949900 1.0
C      1  0.5134194630615  0.9044136429433  0.5685975023042 1.0
C      1  0.5681550358880  0.9041848910507  0.4830624779108 1.0
C      1  0.4865797178412  0.9044154905035  0.4313992539043 1.0
C      1  0.5774497652132  0.5595712300398  0.3713132385288 1.0
C      1  0.3712339601436  0.5597439659209  0.4224873528606 1.0
C      1  0.4225531563601  0.5595722121487  0.6286874085894 1.0
C      1  0.6287740049660  0.5597483043550  0.5775090112815 1.0
C      1  0.3383974432908  0.5844797892267  0.8257303521051 1.0
C      1  0.8257451343786  0.5845469646254  0.6615841429699 1.0
C      1  0.6615938007325  0.5844850568479  0.1742678005777 1.0
C      1  0.1742420085439  0.5845446007129  0.3384135169756 1.0
C      1  0.7592294789275  0.3489391015828  0.7056864174717 1.0
C      1  0.7056705437999  0.3488878897911  0.2407682016812 1.0
C      1  0.2407700074759  0.3489359682420  0.2943165558723 1.0
C      1  0.2943239627037  0.3488884693729  0.7592356565617 1.0
C      1  0.2214698888043  0.4906605196892  0.7317773535517 1.0
C      1  0.7317592083806  0.4907546924587  0.7785044479143 1.0
C      1  0.7785224146867  0.4906668593573  0.2682164153096 1.0
C      1  0.2682431629881  0.4907501789066  0.2215047380924 1.0
C      1  0.3597554510415  0.2368457063136  0.3253711930644 1.0
C      1  0.3253707775815  0.2368363454356  0.6402475839503 1.0
C      1  0.6402529536714  0.2368397207970  0.6746440585659 1.0
C      1  0.6746378169799  0.2368300622728  0.3597604120048 1.0
C      1  0.5895090622521  0.1783630618658  0.7373766922782 1.0
C      1  0.7373764106920  0.1783540307286  0.4105031860610 1.0
C      1  0.4104914514027  0.1783642960685  0.2626347020593 1.0
C      1  0.2626331583939  0.1783549658967  0.5895003224464 1.0
C      1  0.3136446533310  0.4932455791025  0.4662078106357 1.0
C      1  0.4662420111278  0.4931632473997  0.6863636971028 1.0
C      1  0.6863593148900  0.4932450083249  0.5337913588825 1.0
C      1  0.5337606662453  0.4931627413712  0.3136332921698 1.0
C      1  0.6877467590568  0.8266894971302  0.6071135530554 1.0
C      1  0.6081776054557  0.8259661947802  0.3116880213972 1.0
C      1  0.3122503636691  0.8266857036613  0.3928817644805 1.0
C      1  0.3918201485592  0.8259656073785  0.6883043154459 1.0
C      1  0.8188368261527  0.3851502043826  0.3776633870741 1.0
C      1  0.3776613188463  0.3851806679650  0.1811615269444 1.0
C      1  0.1811638107272  0.3851437409720  0.6223298127410 1.0
C      1  0.6223427065398  0.3851799829888  0.8188447982899 1.0
C      1  0.7141536840769  0.3324085244126  0.5161057401789 1.0
C      1  0.5161026113326  0.3323588811661  0.2858367137461 1.0
C      1  0.2858472731657  0.3324068044160  0.4838968267838 1.0
C      1  0.4838948046749  0.3323586309401  0.7141744145530 1.0
C      1  0.6594166267322  0.2691361990659  0.2647065470663 1.0
C      1  0.2647090306618  0.2691799426523  0.3405695115277 1.0
C      1  0.3405870098519  0.2691423832955  0.7353021844771 1.0
C      1  0.7352911769012  0.2691806202282  0.6594361901347 1.0
C      1  0.3343848052479  0.8658439485542  0.6350137867258 1.0
C      1  0.6325560379126  0.8654057799418  0.6629101561556 1.0
C      1  0.6656118268944  0.8658379628721  0.3649832828465 1.0
C      1  0.3674422010866  0.8654059559279  0.3370879806566 1.0
C      1  0.4344671986183  0.3083684110548  0.3502108464620 1.0
C      1  0.3502139160861  0.3083769824555  0.5655424479619 1.0
C      1  0.5655423048618  0.3083692641836  0.6497953885442 1.0
C      1  0.6497924990319  0.3083736573385  0.4344562034212 1.0
C      1  0.8015029986283  0.5037442159073  0.7083727343969 1.0
C      1  0.7083610008651  0.5036823198463  0.1985174673320 1.0
C      1  0.1984920039931  0.5037352927401  0.2916270474692 1.0
C      1  0.2916249990083  0.5036784639428  0.8014845576595 1.0
C      1  0.4329488056656  0.6203528240441  0.4696465925206 1.0
C      1  0.4696463782116  0.6202316782792  0.5670482853802 1.0
C      1  0.5670573719373  0.6203534848315  0.5303514178215 1.0
C      1  0.5303553730916  0.6202295592379  0.4329493273379 1.0
C      1  0.8253654833701  0.6646880142294  0.5162460243911 1.0
C      1  0.5163633751471  0.6646515860345  0.1747118081383 1.0
C      1  0.1746318671389  0.6646841858703  0.4837547341397 1.0
C      1  0.4836260214560  0.6646523463914  0.8252764235222 1.0
C      1  0.5332780316637  0.1539608636249  0.5696804591166 1.0
C      1  0.5696754358960  0.1539607146422  0.4667160168793 1.0
C      1  0.4667300349723  0.1539609344664  0.4303331015943 1.0
C      1  0.4303334555467  0.1539620616493  0.5332992664194 1.0
C      1  0.8321297823510  0.3103995700268  0.4382242574159 1.0
C      1  0.4382058773796  0.3103991943537  0.1678662259741 1.0
C      1  0.1678645675386  0.3103893960519  0.5617759412084 1.0
C      1  0.5617961618185  0.3104015782179  0.8321407887924 1.0
C      1  0.6518828853045  0.1489446444215  0.4112381499912 1.0
C      1  0.4112345373628  0.1489496031559  0.3481314262732 1.0
C      1  0.3481266748648  0.1489502947576  0.5887703704644 1.0
C      1  0.5887847550345  0.1489395489636  0.6518809140289 1.0
C      1  0.5273425419545  0.2592675224953  0.5675376564580 1.0
C      1  0.5675395494363  0.2592654779233  0.4726662092217 1.0
C      1  0.4726679902023  0.2592647303474  0.4324720559804 1.0
C      1  0.4324698550119  0.2592694328751  0.5273408611606 1.0
C      1  0.7315006628276  0.6744287555394  0.7604340798364 1.0
C      1  0.7605480197150  0.6742949149323  0.2683939035117 1.0
C      1  0.2684930653982  0.6744280089280  0.2395713256442 1.0
C      1  0.2394485444773  0.6742933355189  0.7316009596929 1.0
C      1  0.2781602835210  0.5086739536602  0.5544847491589 1.0
C      1  0.5545150047511  0.5086376849927  0.7218412137358 1.0
C      1  0.7218389922407  0.5086682021309  0.4455073735546 1.0
C      1  0.4454917013223  0.5086369789965  0.2781520791373 1.0
C      1  0.5207613690316  0.4998568769714  0.1420070054764 1.0
C      1  0.1419847777456  0.4998835183597  0.4792305168481 1.0
C      1  0.4792326326610  0.4998592366908  0.8579885135355 1.0
C      1  0.8580157123014  0.4998841798274  0.5207615364063 1.0
C      1  0.2760465114613  0.8355521790404  0.4824463275313 1.0
C      1  0.4810149788373  0.8353300345066  0.7242988991802 1.0
C      1  0.7239540414409  0.8355552731979  0.5175491109129 1.0
C      1  0.5189806604353  0.8353327276777  0.2756941751982 1.0
C      1  0.1517351081474  0.4224418536817  0.4253147969194 1.0
C      1  0.4253273418734  0.4224214251327  0.8482638471440 1.0
C      1  0.8482616021887  0.4224479768728  0.5746793461795 1.0
C      1  0.5746619229330  0.4224180502896  0.1517375406643 1.0
C      1  0.1529499701727  0.5856880237020  0.4328392101091 1.0
C      1  0.4328202868433  0.5856277185143  0.8469977936959 1.0
C      1  0.8470397725155  0.5856864885717  0.5671574568446 1.0
C      1  0.5671735141732  0.5856282211765  0.1529935588668 1.0
C      1  0.3361304258851  0.5454240083163  0.1803135616697 1.0
C      1  0.1802380855527  0.5453269357269  0.6639077243572 1.0
C      1  0.6638679571773  0.5454246703533  0.8196929916775 1.0
C      1  0.8197601620592  0.5453286349066  0.3360819969898 1.0
C      1  0.5347082521961  0.2205524098524  0.8031135196683 1.0
C      1  0.8030891044816  0.2205696754456  0.4653130130874 1.0
C      1  0.4652913483163  0.2205522878558  0.1968941558577 1.0
C      1  0.1969180489229  0.2205668611791  0.5346883282078 1.0
C      1  0.3406214985478  0.8807867963548  0.5453530995622 1.0
C      1  0.5431409408254  0.8813940493270  0.6591674476141 1.0
C      1  0.6593792849609  0.8807871440338  0.4546407237950 1.0
C      1  0.4568572288038  0.8813957641701  0.3408306531234 1.0
C      1  0.6664235083523  0.7503487903850  0.5490557771754 1.0
C      1  0.5498837801794  0.7498696093806  0.3336278839446 1.0
C      1  0.3335744593906  0.7503461055154  0.4509395113204 1.0
C      1  0.4501129096557  0.7498699539876  0.6663590120573 1.0
C      1  0.2272590359785  0.2638079382505  0.4363297703265 1.0
C      1  0.4363412583068  0.2637706126552  0.7727752186503 1.0
C      1  0.7727465088829  0.2638044977447  0.5636734005507 1.0
C      1  0.5636609399056  0.2637677406989  0.2272254293917 1.0
C      1  0.3451104360223  0.6411571798663  0.1978684869312 1.0
C      1  0.1977367976667  0.6410318553450  0.6549955738494 1.0
C      1  0.6548819435240  0.6411566075967  0.8021344208904 1.0
C      1  0.8022570973983  0.6410336066545  0.3450011305692 1.0
C      1  0.1987497723673  0.6830769643399  0.5694435763011 1.0
C      1  0.5693221782546  0.6832413662118  0.8012397851658 1.0
C      1  0.8012444840245  0.6830787784689  0.4305564854376 1.0
C      1  0.4306675260020  0.6832452765043  0.1987535056087 1.0
C      1  0.7960204258167  0.6589788297752  0.7114182912583 1.0
C      1  0.7115066018961  0.6589183523299  0.2038819088413 1.0
C      1  0.2039654189393  0.6589746309123  0.2885737713625 1.0
C      1  0.2884929923565  0.6589170261794  0.7961125961646 1.0
C      1  0.2433445882838  0.7369079402667  0.4979140645767 1.0
C      1  0.4976121177169  0.7368638286550  0.7566091562386 1.0
C      1  0.7566532464545  0.7369101493859  0.5020843898430 1.0
C      1  0.5023821120239  0.7368656184328  0.2433780992540 1.0
C      1  0.6099742802519  0.5472980683930  0.6642572417174 1.0
C      1  0.6642628295065  0.5471961127445  0.3899600875407 1.0
C      1  0.3900358931021  0.5472976738809  0.3357429034777 1.0
C      1  0.3357406046693  0.5471951902761  0.6100365826470 1.0
C      1  0.4209499041164  0.4843067029128  0.1788942188614 1.0
C      1  0.1788838797087  0.4842793959261  0.5790483346036 1.0
C      1  0.5790483283743  0.4843082262036  0.8211030073155 1.0
C      1  0.8211149439255  0.4842809934099  0.4209411399603 1.0
C      1  0.3338327170056  0.4210567910628  0.8173052512667 1.0
C      1  0.8173221124725  0.4211031033429  0.6661828577816 1.0
C      1  0.6661537138130  0.4210575529945  0.1827014813533 1.0
C      1  0.1826738063700  0.4210960201343  0.3338127254060 1.0
C      1  0.4710049786375  0.3423757508236  0.8211892113035 1.0
C      1  0.8211628967407  0.3424021804343  0.5290085378190 1.0
C      1  0.5289905944422  0.3423731252902  0.1788219274040 1.0
C      1  0.1788291730457  0.3423997028660  0.4709917815532 1.0
C      1  0.3213820278561  0.4070147326968  0.4333228713565 1.0
C      1  0.4333365794208  0.4069500317338  0.6786396176556 1.0
C      1  0.6786247120625  0.4070211400886  0.5666772322779 1.0
C      1  0.5666748421973  0.4069488697600  0.3213607673568 1.0
C      1  0.4020885726652  0.3914729073037  0.3889306495584 1.0
C      1  0.3889321566361  0.3914526770375  0.5979271767080 1.0
C      1  0.5979155601821  0.3914694359129  0.6110838140915 1.0
C      1  0.6110871945600  0.3914562258243  0.4020709833066 1.0
C      1  0.2231333445892  0.3961960920840  0.7067065739119 1.0
C      1  0.7067140073810  0.3962625435767  0.7768695458607 1.0
C      1  0.7768638085365  0.3962011803085  0.2932850011481 1.0
C      1  0.2932918878602  0.3962612016745  0.2231384668304 1.0
END
