TITL C-31273-9599-60 -2.364 3375.00 -418.77396171 0 0 50 (C1) n - 1
REM
REM Run started: at 2020.12.29 13:20:58 in /gpfs/home/chem/mssmkc/CARBON/AIRSS/Generating-Clusters/Str-Search/Higher-Symm/C4-100
REM VASP from code version vasp.5.4.4.18Apr17-6-g9f103f2a35 (build Oct 11 2019 16:45:47) gamma-only
REM
REM
REM
REM
REM ./C.cell (6bd13a13d554368a30d355f37ece5b26)
REM AIRSS Version 0.9.1 bugfix July 2018 build 013d7b7c2542+ Fri, 06 Jul 2018 19:26:36 +0100
REM compiler GCC version 6.3.0
REM options -cpp -iprefix /gpfs/warwick/csc/orac/software/Core/GCCcore/6.3.0/bin/../lib/gcc/x86_64-pc-linux-gnu/6.3.0/ -mtune=generic -march=x86-64 -g -O0
REM seed -2137379243 -1252523877 1887460485 1857127780 1465095251 1179861588 543138814 1841148702 -1425488901 -1486122168 7647273 -983477461
REM
REM C.POTCAR (d86ddea03c3ceb6dc662c8ad6801f873)
REM 
CELL 1.54180   15.00000   15.00000   15.00000   90.00000   90.00000   90.00000
LATT -1
SFAC C  
C      1  0.4344420213926  0.5880165561579  0.3161915971058 1.0
C      1  0.3206609225904  0.4037057773234  0.4186632323474 1.0
C      1  0.3169979142629  0.5937398842872  0.5697987174872 1.0
C      1  0.4210140426114  0.4047735131928  0.6810311071111 1.0
C      1  0.5732067194065  0.5941544378565  0.6881098342906 1.0
C      1  0.6832121957154  0.4053832911980  0.5839205582557 1.0
C      1  0.6865080492537  0.5938474850121  0.4329174118501 1.0
C      1  0.5840619094840  0.4031183516846  0.3198869973698 1.0
C      1  0.6024905684853  0.6574854228139  0.6174362330083 1.0
C      1  0.6518990910249  0.3432478752476  0.5123838710364 1.0
C      1  0.6164057262292  0.6568133558467  0.4044059072852 1.0
C      1  0.5127360793348  0.3429988891822  0.3519785890827 1.0
C      1  0.4215579285989  0.6305599976716  0.4074814908200 1.0
C      1  0.3526517390088  0.3430685836655  0.4902710428960 1.0
C      1  0.3896588858858  0.6570856873191  0.5993650685039 1.0
C      1  0.4912407458478  0.3434464460886  0.6510279516806 1.0
C      1  0.6765948019711  0.5940097815633  0.5986420464627 1.0
C      1  0.6915494920004  0.4044894839335  0.4472073226684 1.0
C      1  0.5973315867252  0.5933887241353  0.3282491881481 1.0
C      1  0.4465109794434  0.4036251950271  0.3099798682236 1.0
C      1  0.3290538981225  0.5881665642471  0.4069339052283 1.0
C      1  0.3106462164463  0.4033466981803  0.5561910619226 1.0
C      1  0.4077098030950  0.5942496201172  0.6731408993446 1.0
C      1  0.5576764851925  0.4056866223478  0.6919121021570 1.0
C      1  0.6394453129543  0.4398519573159  0.6599748031123 1.0
C      1  0.7103132743329  0.5593930105700  0.5176485018589 1.0
C      1  0.6588945195415  0.4390909519586  0.3653904779748 1.0
C      1  0.5192282144401  0.5562348393443  0.2889637610378 1.0
C      1  0.3635117430972  0.4372477386557  0.3410324379001 1.0
C      1  0.2896319769854  0.5564412971143  0.4868873423479 1.0
C      1  0.3448136360497  0.4393905219432  0.6367841031212 1.0
C      1  0.4879932334522  0.5597605564177  0.7093250201952 1.0
C      1  0.3375217198484  0.5351647708000  0.6433412542726 1.0
C      1  0.4870023974131  0.4638046689452  0.7203785349625 1.0
C      1  0.6474194494720  0.5359869894955  0.6694490862025 1.0
C      1  0.7214531865431  0.4634570135275  0.5181198086004 1.0
C      1  0.6670719289603  0.5347906012131  0.3590749213579 1.0
C      1  0.5188876043929  0.4606005305519  0.2786383466978 1.0
C      1  0.3559554821445  0.5344978062903  0.3317600220498 1.0
C      1  0.2792780264802  0.4607951791306  0.4855638153031 1.0
C      1  0.4331141706916  0.2981191402638  0.4966984262193 1.0
C      1  0.4525548800042  0.7071340222541  0.5515339841814 1.0
C      1  0.4973484383854  0.2975871690737  0.5712819550447 1.0
C      1  0.5522549604576  0.7067117502333  0.5592965820090 1.0
C      1  0.5719273224077  0.2976335103971  0.5067907828138 1.0
C      1  0.5599531413558  0.7069200269051  0.4596057366245 1.0
C      1  0.5073765947901  0.2980700531759  0.4325074858104 1.0
C      1  0.4629796407033  0.7071990563777  0.4550085808920 1.0
C      1  0.5047847765765  0.4972140050808  0.5037837520303 1.0
C      1  0.4673805663911  0.5584945888651  0.4607862730937 1.0
END
