TITL C-31273-9599-205 -3.253 3375.00 -526.73714167 0 0 66 (C2h) n - 1
REM
REM Run started: at 2020.12.30 18:27:29 in /gpfs/home/chem/mssmkc/CARBON/AIRSS/Generating-Clusters/Str-Search/Higher-Symm/C4-100
REM VASP from code version vasp.5.4.4.18Apr17-6-g9f103f2a35 (build Oct 11 2019 16:45:47) gamma-only
REM
REM
REM
REM
REM ./C.cell (6bd13a13d554368a30d355f37ece5b26)
REM AIRSS Version 0.9.1 bugfix July 2018 build 013d7b7c2542+ Fri, 06 Jul 2018 19:26:36 +0100
REM compiler GCC version 6.3.0
REM options -cpp -iprefix /gpfs/warwick/csc/orac/software/Core/GCCcore/6.3.0/bin/../lib/gcc/x86_64-pc-linux-gnu/6.3.0/ -mtune=generic -march=x86-64 -g -O0
REM seed 111215922 -1224702849 1724890450 1444415338 114524426 -393424319 -1728579154 1463883948 -795884698 526584978 585307517 1708987403
REM
REM C.POTCAR (d86ddea03c3ceb6dc662c8ad6801f873)
REM 
CELL 1.54180   15.00000   15.00000   15.00000   90.00000   90.00000   90.00000
LATT -1
SFAC C  
C      1  0.2338960427944  0.5034872625008  0.4111497725136 1.0
C      1  0.7661037509956  0.4965124923361  0.4111495473440 1.0
C      1  0.2338509368053  0.5037457373415  0.5901025837752 1.0
C      1  0.7661490751177  0.4962544699126  0.5901023745943 1.0
C      1  0.5419909912721  0.6333876727923  0.6016014526676 1.0
C      1  0.4580092383424  0.3666126838273  0.6016016730721 1.0
C      1  0.5418125908396  0.6334997895156  0.4006901475619 1.0
C      1  0.4581872796920  0.3664998706894  0.4006904805281 1.0
C      1  0.5448244841419  0.2220758543535  0.5880286693369 1.0
C      1  0.4551756586061  0.7779244559575  0.5880284438463 1.0
C      1  0.5452505161384  0.2222528816257  0.4149559487255 1.0
C      1  0.4547495396168  0.7777467977004  0.4149556525875 1.0
C      1  0.5231347601356  0.2956173802845  0.6393168445456 1.0
C      1  0.4768656114361  0.7043830382794  0.6393167118965 1.0
C      1  0.5236230954359  0.2955863067658  0.3633642490773 1.0
C      1  0.4763767149551  0.7044134210309  0.3633639617013 1.0
C      1  0.4004425693534  0.4270054983188  0.2533986530304 1.0
C      1  0.5995569188174  0.5729942709644  0.2533982330869 1.0
C      1  0.4003495945804  0.4270346167460  0.7486782123959 1.0
C      1  0.5996508453010  0.5729659557151  0.7486777337754 1.0
C      1  0.6153931026100  0.6687245917453  0.4562182422181 1.0
C      1  0.3846068625571  0.3312752736068  0.4562187566948 1.0
C      1  0.6154531263731  0.6686137207137  0.5458712255337 1.0
C      1  0.3845469928862  0.3313865810630  0.5458718357777 1.0
C      1  0.5793821961352  0.4247522602695  0.7137866611461 1.0
C      1  0.4206183708126  0.5752482706618  0.7137866696688 1.0
C      1  0.5793123266958  0.4248099580777  0.2885596289459 1.0
C      1  0.4206872664942  0.5751897860082  0.2885595155224 1.0
C      1  0.3963096491385  0.5547816012115  0.6183426415706 1.0
C      1  0.6036905403519  0.4452184496944  0.6183425237597 1.0
C      1  0.3964859664113  0.5545265677946  0.3839595805829 1.0
C      1  0.6035137305131  0.4454734706278  0.3839595910780 1.0
C      1  0.6207255189407  0.6029440163680  0.3350418803659 1.0
C      1  0.3792741792731  0.3970552463581  0.3350422672480 1.0
C      1  0.6210393086541  0.6026236693039  0.6669801856053 1.0
C      1  0.3789609907933  0.3973770524158  0.6669804216210 1.0
C      1  0.2469276823155  0.4155153529692  0.4504796982741 1.0
C      1  0.7530721860238  0.5844844675291  0.4504793239053 1.0
C      1  0.2468361993145  0.4156436544497  0.5510573920235 1.0
C      1  0.7531638512443  0.5843564727014  0.5510568934428 1.0
C      1  0.5214374803934  0.4468655842401  0.4453579648529 1.0
C      1  0.4785621396359  0.5531331418540  0.4453584418934 1.0
C      1  0.5214549525751  0.4467389253778  0.5570672371180 1.0
C      1  0.4785450954956  0.5532613059056  0.5570672379463 1.0
C      1  0.7694391267048  0.4115982059869  0.4539016858204 1.0
C      1  0.2305606474270  0.5884016300472  0.4539017930901 1.0
C      1  0.7692822007075  0.4115496836451  0.5471391053478 1.0
C      1  0.2307178804662  0.5884504091765  0.5471392646984 1.0
C      1  0.3043286704577  0.5633290909740  0.3956708923207 1.0
C      1  0.6956710395690  0.4366707303859  0.3956707919190 1.0
C      1  0.3041955103373  0.5635960560671  0.6059181816134 1.0
C      1  0.6958046119501  0.4364040426035  0.6059179568307 1.0
C      1  0.5496236675647  0.5004573718290  0.2318274342054 1.0
C      1  0.4503757276015  0.4995421295229  0.2318275263047 1.0
C      1  0.5496430294682  0.5004881906493  0.7703028789481 1.0
C      1  0.4503575492188  0.4995123082552  0.7703028786104 1.0
C      1  0.3139421949477  0.3669506182778  0.5978716754068 1.0
C      1  0.6860580616936  0.6330499355653  0.5978711060190 1.0
C      1  0.3141032031074  0.3666088171935  0.4039573922326 1.0
C      1  0.6858967247473  0.6333907951689  0.4039568719678 1.0
C      1  0.5615438553179  0.3375394048134  0.2904696360231 1.0
C      1  0.4384559401001  0.6624603202761  0.2904693285846 1.0
C      1  0.5610846217468  0.3375600800642  0.7122317157007 1.0
C      1  0.4389159608557  0.6624403873525  0.7122318765070 1.0
C      1  0.5378995415696  0.2172646194805  0.5014160376055 1.0
C      1  0.4621003044257  0.7827352950605  0.5014158073862 1.0
END
