TITL C-31273-9599-195 -3.702 3375.00 -639.66570751 0 0 77 (C1) n - 1
REM
REM Run started: at 2020.12.30 16:02:21 in /gpfs/home/chem/mssmkc/CARBON/AIRSS/Generating-Clusters/Str-Search/Higher-Symm/C4-100
REM VASP from code version vasp.5.4.4.18Apr17-6-g9f103f2a35 (build Oct 11 2019 16:45:47) gamma-only
REM
REM
REM
REM
REM ./C.cell (6bd13a13d554368a30d355f37ece5b26)
REM AIRSS Version 0.9.1 bugfix July 2018 build 013d7b7c2542+ Fri, 06 Jul 2018 19:26:36 +0100
REM compiler GCC version 6.3.0
REM options -cpp -iprefix /gpfs/warwick/csc/orac/software/Core/GCCcore/6.3.0/bin/../lib/gcc/x86_64-pc-linux-gnu/6.3.0/ -mtune=generic -march=x86-64 -g -O0
REM seed 1826981291 847348047 378701174 -213802532 -2100462027 -1038900479 1710003829 504862546 1428478471 873939802 -1330900834 2120723992
REM
REM C.POTCAR (d86ddea03c3ceb6dc662c8ad6801f873)
REM 
CELL 1.54180   15.00000   15.00000   15.00000   90.00000   90.00000   90.00000
LATT -1
SFAC C  
C      1  0.5937674294995  0.7006422511085  0.6404102326385 1.0
C      1  0.4031245972554  0.6916247131189  0.3532381999047 1.0
C      1  0.5916307780874  0.3087156006173  0.6430164463133 1.0
C      1  0.4062316884370  0.3081883527343  0.3560385806695 1.0
C      1  0.5616581990535  0.1981293738921  0.5279828385396 1.0
C      1  0.4391180810042  0.1975794913423  0.4710997561366 1.0
C      1  0.5592953089007  0.8069636807337  0.5233794002610 1.0
C      1  0.4338499739774  0.8042363984489  0.4661638828498 1.0
C      1  0.2901073410277  0.5985442126468  0.5110154649131 1.0
C      1  0.7047828514857  0.6021080821615  0.4814084407650 1.0
C      1  0.2922359098511  0.4008336152118  0.5122180304246 1.0
C      1  0.7027846942866  0.4040959636292  0.4803089708128 1.0
C      1  0.5549842295929  0.4512491823922  0.3059996564487 1.0
C      1  0.4397695422440  0.4523666608718  0.6949686047096 1.0
C      1  0.5542183267400  0.5515791934135  0.3066675911348 1.0
C      1  0.4416180218263  0.5504736093628  0.6856219933072 1.0
C      1  0.4798088285193  0.7215581942572  0.3112004760396 1.0
C      1  0.5143466761467  0.7249600356121  0.6808202638642 1.0
C      1  0.4820221482624  0.2770423612720  0.3118376500443 1.0
C      1  0.5148225888115  0.2761884318918  0.6850740620055 1.0
C      1  0.2493610004832  0.4445662743266  0.4344648509889 1.0
C      1  0.7384095203013  0.4498426217209  0.5593695466431 1.0
C      1  0.2487465081312  0.5533896732776  0.4334775222487 1.0
C      1  0.7495052588420  0.5580616115167  0.5586521678604 1.0
C      1  0.5418762450458  0.5470456566553  0.6864930166105 1.0
C      1  0.4562383425577  0.5483772147082  0.2945348917639 1.0
C      1  0.5353607421756  0.4487068464262  0.7093375899531 1.0
C      1  0.4568929951022  0.4519756281590  0.2944157211016 1.0
C      1  0.6177365143199  0.6113245193195  0.6719111004039 1.0
C      1  0.3823961112880  0.6004550172341  0.3252718185708 1.0
C      1  0.6077799351202  0.3979788816776  0.6745483978735 1.0
C      1  0.3841982974704  0.3987489487920  0.3265524458384 1.0
C      1  0.3134792977751  0.4518961668868  0.3557884176119 1.0
C      1  0.6661226343400  0.4618765906057  0.6291925956833 1.0
C      1  0.3128267940292  0.5462758695586  0.3551325476443 1.0
C      1  0.6887437978836  0.5568683927731  0.6412301811810 1.0
C      1  0.8471547484986  0.5437715799697  0.5786094225680 1.0
C      1  0.1497218309827  0.5476247094699  0.4135050301082 1.0
C      1  0.8357670669874  0.4465932544523  0.5866942147993 1.0
C      1  0.1499440727304  0.4494828647347  0.4151021729402 1.0
C      1  0.6165306223516  0.2703711215876  0.5539151019424 1.0
C      1  0.3828943664461  0.2698597738823  0.4441066330351 1.0
C      1  0.6173845835725  0.7373900191330  0.5503485628718 1.0
C      1  0.3779323785728  0.7320292241046  0.4402933128306 1.0
C      1  0.6819934398461  0.5497413790745  0.4051936552743 1.0
C      1  0.3136289352762  0.5472049301525  0.5873395271488 1.0
C      1  0.6820480373026  0.4551113893610  0.4039160749800 1.0
C      1  0.3154555812688  0.4529280172731  0.5884103799089 1.0
C      1  0.0045252470936  0.5417324520764  0.3728618200929 1.0
C      1  0.9912199592460  0.5248690118053  0.6204477760553 1.0
C      1  0.0042745828109  0.4543468091290  0.3744052279559 1.0
C      1  0.9805315551448  0.4383925354743  0.6267005679647 1.0
C      1  0.3758127695188  0.4017769726297  0.6453031478873 1.0
C      1  0.6206522761613  0.4025204481365  0.3490114949590 1.0
C      1  0.3765060508869  0.5993045859921  0.6406292830910 1.0
C      1  0.6196512064786  0.6010322399426  0.3504315523742 1.0
C      1  0.4452543898895  0.2477960495645  0.6291038825293 1.0
C      1  0.5522067415985  0.2479541695717  0.3675219299045 1.0
C      1  0.4437974121533  0.7528377605215  0.6253620989233 1.0
C      1  0.5502516892741  0.7538042537846  0.3647201498844 1.0
C      1  0.3801947077428  0.3139360927768  0.6070041179890 1.0
C      1  0.6159520205373  0.3142279338217  0.3900957682824 1.0
C      1  0.3792989823211  0.6871252432677  0.6020384293022 1.0
C      1  0.6168107600039  0.6902796937960  0.3888850194374 1.0
C      1  0.4685012107580  0.8119494761689  0.5578882008752 1.0
C      1  0.5242083285713  0.8130798873663  0.4314816254028 1.0
C      1  0.4703226392686  0.1867907951221  0.5633307877191 1.0
C      1  0.5287581132011  0.1887076683615  0.4357245110727 1.0
C      1  0.0727908559600  0.5922216185667  0.3899752296662 1.0
C      1  0.9289840130361  0.5807809370989  0.5980943943436 1.0
C      1  0.0726142996579  0.4046203467036  0.3934569206061 1.0
C      1  0.9072977137460  0.3945080151599  0.6120186988451 1.0
C      1  0.3408739881972  0.3193454245950  0.5161944775588 1.0
C      1  0.6545246329273  0.3215607332848  0.4792334482632 1.0
C      1  0.3381121576957  0.6812937818329  0.5133778635457 1.0
C      1  0.6576007891024  0.6863140278517  0.4771576770722 1.0
C      1  0.5925662333063  0.5342626540457  0.5906692562292 1.0
END
