TITL C-31273-9599-76 -0.496 3375.00 -67.90441068 0 0 9 (Cs) n - 1
REM
REM Run started: at 2020.12.29 15:59:49 in /gpfs/home/chem/mssmkc/CARBON/AIRSS/Generating-Clusters/Str-Search/Higher-Symm/C4-100
REM VASP from code version vasp.5.4.4.18Apr17-6-g9f103f2a35 (build Oct 11 2019 16:45:47) gamma-only
REM
REM
REM
REM
REM ./C.cell (6bd13a13d554368a30d355f37ece5b26)
REM AIRSS Version 0.9.1 bugfix July 2018 build 013d7b7c2542+ Fri, 06 Jul 2018 19:26:36 +0100
REM compiler GCC version 6.3.0
REM options -cpp -iprefix /gpfs/warwick/csc/orac/software/Core/GCCcore/6.3.0/bin/../lib/gcc/x86_64-pc-linux-gnu/6.3.0/ -mtune=generic -march=x86-64 -g -O0
REM seed 1288721159 924875854 -1846266441 -1149169861 -375224625 -1003200975 -1389055470 -1456839800 -469989892 2054177711 155358905 -941096180
REM
REM C.POTCAR (d86ddea03c3ceb6dc662c8ad6801f873)
REM 
CELL 1.54180   15.00000   15.00000   15.00000   90.00000   90.00000   90.00000
LATT -1
SFAC C  
C      1  0.4999999745174  0.5290292283537  0.6316013982142 1.0
C      1  0.5000000260845  0.5935477615161  0.5746711983828 1.0
C      1  0.4999999833346  0.6298567496796  0.4940550221037 1.0
C      1  0.5000000121816  0.5943041373065  0.4165607161376 1.0
C      1  0.5000000149948  0.5141696444201  0.3794578893598 1.0
C      1  0.4999999832623  0.4287120941513  0.3863035717922 1.0
C      1  0.5000000161883  0.3889673186493  0.4652147668261 1.0
C      1  0.4999999748399  0.3750788252442  0.5508239967282 1.0
C      1  0.5000000145965  0.4463343406792  0.6013114404552 1.0
END
