TITL C-31896-717-13 -8.84 3375.00 -1487.40155283 0 0 180 (D4) n - 1
REM
REM Run started: at 2020.12.25 18:40:06 in /gpfs/home/chem/mssmkc/CARBON/AIRSS/Generating-Clusters/Str-Search/Higher-Symm/Only-C180
REM VASP from code version vasp.5.4.4.18Apr17-6-g9f103f2a35 (build Oct 11 2019 16:45:47) gamma-only
REM
REM
REM
REM
REM ./C.cell (73b75853f6e4503fb4b57bac71549d7d)
REM AIRSS Version 0.9.1 bugfix July 2018 build 013d7b7c2542+ Fri, 06 Jul 2018 19:26:36 +0100
REM compiler GCC version 6.3.0
REM options -cpp -iprefix /gpfs/warwick/csc/orac/software/Core/GCCcore/6.3.0/bin/../lib/gcc/x86_64-pc-linux-gnu/6.3.0/ -mtune=generic -march=x86-64 -g -O0
REM seed -1266045054 -1920979383 766052089 2080841467 -1093154505 -229285706 1197759640 807396603 -1568128473 -1957380707 -328190554 2122643824
REM
REM C.POTCAR (d86ddea03c3ceb6dc662c8ad6801f873)
REM 
CELL 1.54180   15.00000   15.00000   15.00000   90.00000   90.00000   90.00000
LATT -1
SFAC C  
C      1  0.5394803955880  0.3622709614945  0.5656712376683 1.0
C      1  0.4343295129096  0.3622706569439  0.5394809870897 1.0
C      1  0.4605202317200  0.3622709295315  0.4343300659390 1.0
C      1  0.5656710752445  0.3622705193599  0.4605203078719 1.0
C      1  0.4605517086711  0.6380225894285  0.5656597950499 1.0
C      1  0.5656600782247  0.6380232242467  0.5394471818434 1.0
C      1  0.5394472672185  0.6380229214240  0.4343396520781 1.0
C      1  0.4343397851536  0.6380229707730  0.4605516855293 1.0
C      1  0.7360120295498  0.2734424241458  0.2426481419211 1.0
C      1  0.7573526963262  0.2734422380614  0.7360129504134 1.0
C      1  0.2639882659035  0.2734450545127  0.7573532240068 1.0
C      1  0.2426479211420  0.2734413563037  0.2639888894803 1.0
C      1  0.2639000143527  0.7269485649942  0.2427622800659 1.0
C      1  0.2427644274616  0.7269504024399  0.7360983041932 1.0
C      1  0.7360992179428  0.7269525104132  0.7572358844194 1.0
C      1  0.7572361353297  0.7269501630420  0.2638988321321 1.0
C      1  0.1725429351900  0.5957997698295  0.5837492773171 1.0
C      1  0.4162508761960  0.5957997469290  0.1725428923965 1.0
C      1  0.8274566583199  0.5958006492624  0.4162493006607 1.0
C      1  0.5837506491062  0.5958026214406  0.8274563550030 1.0
C      1  0.8274687976542  0.4045304986093  0.5836785836399 1.0
C      1  0.5836793633027  0.4045300382577  0.1725314654565 1.0
C      1  0.1725303218473  0.4045315394516  0.4163250376058 1.0
C      1  0.4163252528136  0.4045323283685  0.8274700452033 1.0
C      1  0.6053746147951  0.8036038952703  0.7141717962083 1.0
C      1  0.2858270650564  0.8036017773072  0.6053737930748 1.0
C      1  0.3946241569921  0.8036027262523  0.2858264127410 1.0
C      1  0.7141711777159  0.8036028202329  0.3946246433404 1.0
C      1  0.3946998327248  0.1967591411074  0.7142140642776 1.0
C      1  0.7142127260399  0.1967583487461  0.6053001512242 1.0
C      1  0.6053002368654  0.1967583672063  0.2857882407088 1.0
C      1  0.2857860794954  0.1967577481013  0.3947024000750 1.0
C      1  0.2203039464834  0.2562057382794  0.3557790841929 1.0
C      1  0.6442225655827  0.2562060040805  0.2203042343367 1.0
C      1  0.7796960194753  0.2562055712938  0.6442225253334 1.0
C      1  0.3557781012199  0.2562072330884  0.7796972192881 1.0
C      1  0.7796421883168  0.7441523307756  0.3556770738495 1.0
C      1  0.3556767415674  0.7441511375436  0.2203565549415 1.0
C      1  0.2203575173799  0.7441514738103  0.6443215107314 1.0
C      1  0.6443227218948  0.7441528849557  0.7796426575198 1.0
C      1  0.3877298632011  0.6920411428582  0.6177256119046 1.0
C      1  0.3822734908752  0.6920406770374  0.3877291052134 1.0
C      1  0.6122693626839  0.6920413364195  0.3822726194625 1.0
C      1  0.6177261334207  0.6920415257656  0.6122698225994 1.0
C      1  0.6123040336850  0.3082773915535  0.6177050082084 1.0
C      1  0.6177046148927  0.3082770318603  0.3876971106086 1.0
C      1  0.3876962925998  0.3082767543837  0.3822966706949 1.0
C      1  0.3822959643464  0.3082777575353  0.6123042394993 1.0
C      1  0.6684677373806  0.2445456853387  0.7477487292970 1.0
C      1  0.2522524883929  0.2445471273215  0.6684685023515 1.0
C      1  0.3315326234232  0.2445458620440  0.2522525181816 1.0
C      1  0.7477480717882  0.2445452046419  0.3315336751888 1.0
C      1  0.3316468555556  0.7558073600471  0.7477986740645 1.0
C      1  0.7477974875677  0.7558094668826  0.6683514205503 1.0
C      1  0.6683531758674  0.7558057851754  0.2521992291030 1.0
C      1  0.2522005495972  0.7558048853193  0.3316450815700 1.0
C      1  0.9244951330256  0.6021919545042  0.6522522898328 1.0
C      1  0.3477489141753  0.6021920682905  0.9244947377594 1.0
C      1  0.0755046226896  0.6021898164685  0.3477463457950 1.0
C      1  0.6522521019494  0.6021920163616  0.0755040346960 1.0
C      1  0.0755089754337  0.3981871487673  0.6523249615395 1.0
C      1  0.6523249592675  0.3981864092603  0.9244897547914 1.0
C      1  0.9244909831533  0.3981845039792  0.3476776267995 1.0
C      1  0.3476757282744  0.3981863884163  0.0755114739266 1.0
C      1  0.5718973003332  0.6970909794754  0.8220790766375 1.0
C      1  0.1779197587861  0.6970897828802  0.5718957725679 1.0
C      1  0.4281028148408  0.6970895478357  0.1779195360872 1.0
C      1  0.8220794956042  0.6970895232253  0.4281030622447 1.0
C      1  0.4282390721842  0.3032643072811  0.8221037182822 1.0
C      1  0.8221032629141  0.3032635664882  0.5717628316527 1.0
C      1  0.5717631969296  0.3032635121902  0.1778975133707 1.0
C      1  0.1778971206284  0.3032632248627  0.4282385639026 1.0
C      1  0.6324284012928  0.5693936064265  0.5777536906055 1.0
C      1  0.4222472381195  0.5693930253718  0.6324279173707 1.0
C      1  0.3675716236936  0.5693929136089  0.4222461760832 1.0
C      1  0.5777531356604  0.5693924678368  0.3675712228710 1.0
C      1  0.3675848514145  0.4309318492500  0.5777696572580 1.0
C      1  0.5777697066645  0.4309319916075  0.6324156543942 1.0
C      1  0.6324147696552  0.4309318609256  0.4222310213836 1.0
C      1  0.4222313162283  0.4309314596738  0.3675852569069 1.0
C      1  0.5179207107605  0.8634099061430  0.4328039676585 1.0
C      1  0.5671942237123  0.8634098876262  0.5179206644400 1.0
C      1  0.4820780532176  0.8634098929852  0.5671941412890 1.0
C      1  0.4328043099795  0.8634096422189  0.4820771344555 1.0
C      1  0.4820415035500  0.1369574328316  0.4328109369513 1.0
C      1  0.4328095191319  0.1369577676447  0.5179592117979 1.0
C      1  0.5179581540943  0.1369574280332  0.5671909762343 1.0
C      1  0.5671899777741  0.1369573175713  0.4820425201004 1.0
C      1  0.4888927319787  0.7431416239599  0.7948481139807 1.0
C      1  0.2051511790172  0.7431401795849  0.4888913166099 1.0
C      1  0.5111067844568  0.7431411028945  0.2051510767798 1.0
C      1  0.7948471554919  0.7431415521165  0.5111054683199 1.0
C      1  0.5112224977413  0.2572372400519  0.7948370773028 1.0
C      1  0.7948366169395  0.2572366469043  0.4887791807044 1.0
C      1  0.4887780017307  0.2572378464505  0.2051638308151 1.0
C      1  0.2051636110456  0.2572369277555  0.5112230453385 1.0
C      1  0.6039678773817  0.7266428918110  0.1878642415012 1.0
C      1  0.8121329516244  0.7266443967732  0.6039668895946 1.0
C      1  0.3960312356643  0.7266430980045  0.8121333360860 1.0
C      1  0.1878652287801  0.7266420276851  0.3960298340398 1.0
C      1  0.3958970098577  0.2737401989272  0.1879063037397 1.0
C      1  0.1879063306798  0.2737405684458  0.6041036996293 1.0
C      1  0.6041033250751  0.2737396199813  0.8120951458298 1.0
C      1  0.8120946199086  0.2737376985318  0.3958979731346 1.0
C      1  0.3427491679811  0.7862145250243  0.3684333082138 1.0
C      1  0.6315648623875  0.7862148901671  0.3427492035029 1.0
C      1  0.6572490816867  0.7862170870765  0.6315639871725 1.0
C      1  0.3684341120452  0.7862155247020  0.6572477863893 1.0
C      1  0.6572222426129  0.2141109322087  0.3683573914817 1.0
C      1  0.3683557386916  0.2141122991959  0.3427803780668 1.0
C      1  0.3427784972704  0.2141125700394  0.6316448286753 1.0
C      1  0.6316439030558  0.2141121521790  0.6572218785719 1.0
C      1  0.3475555154347  0.1669260280006  0.5446904611197 1.0
C      1  0.4553106640424  0.1669257163318  0.3475571134940 1.0
C      1  0.6524443270886  0.1669253433549  0.4553116621016 1.0
C      1  0.5446893170040  0.1669258145214  0.6524449451208 1.0
C      1  0.6524577145614  0.8334180918687  0.5446114073005 1.0
C      1  0.5446128939284  0.8334171291610  0.3475405443325 1.0
C      1  0.3475404577407  0.8334167682432  0.4553855281692 1.0
C      1  0.4553859621553  0.8334174164597  0.6524571174074 1.0
C      1  0.7409225576060  0.4378841572236  0.6006729508733 1.0
C      1  0.3993283751416  0.4378842908312  0.7409232464646 1.0
C      1  0.2590771860268  0.4378839501401  0.3993283548349 1.0
C      1  0.6006735850654  0.4378841980605  0.2590775488836 1.0
C      1  0.2590904067371  0.5624333888610  0.6007040258033 1.0
C      1  0.6007046597441  0.5624349099140  0.7409093727940 1.0
C      1  0.7409091171261  0.5624342540593  0.3992953047110 1.0
C      1  0.3992964044982  0.5624335161908  0.2590901364755 1.0
C      1  0.6514233779320  0.4860697679441  0.9552925988201 1.0
C      1  0.0447064178789  0.4860712673223  0.6514221702050 1.0
C      1  0.3485778772157  0.4860692836854  0.0447065853282 1.0
C      1  0.9552925448765  0.4860684347034  0.3485783394096 1.0
C      1  0.3485928074556  0.5142848046989  0.9552596700243 1.0
C      1  0.9552589948300  0.5142849495301  0.6514080856401 1.0
C      1  0.6514091843737  0.5142847179886  0.0447401871930 1.0
C      1  0.0447394751244  0.5142809390768  0.3485919069789 1.0
C      1  0.6265002554884  0.6136221319435  0.6639445827547 1.0
C      1  0.3360552581683  0.6136215401941  0.6265005338068 1.0
C      1  0.3734998692317  0.6136204766334  0.3360550976574 1.0
C      1  0.6639442370504  0.6136215774304  0.3734989250274 1.0
C      1  0.3735089895660  0.3867083505581  0.6639665847681 1.0
C      1  0.6639662788644  0.3867077362287  0.6264916668327 1.0
C      1  0.6264916815912  0.3867074018356  0.3360344243696 1.0
C      1  0.3360340062724  0.3867072107721  0.3735092817871 1.0
C      1  0.7228879234317  0.8067609019998  0.4874451118149 1.0
C      1  0.5125534500185  0.8067616053180  0.7228882791411 1.0
C      1  0.2771102567032  0.8067606229127  0.5125529649593 1.0
C      1  0.4874454145854  0.8067613876841  0.2771102133563 1.0
C      1  0.2771142776808  0.1935927815903  0.4875337937509 1.0
C      1  0.4875316402784  0.1935925919081  0.7228857952570 1.0
C      1  0.7228851165054  0.1935924318825  0.5124688941881 1.0
C      1  0.5124684015603  0.1935924273376  0.2771157820626 1.0
C      1  0.4520375359484  0.5125107339467  0.6990432067327 1.0
C      1  0.3009568304690  0.5125103103688  0.4520373174352 1.0
C      1  0.5479631505603  0.5125092574072  0.3009563976008 1.0
C      1  0.6990433248520  0.5125104361529  0.5479631807976 1.0
C      1  0.5479875424427  0.4877963782997  0.6990339086868 1.0
C      1  0.6990335744680  0.4877958301358  0.4520127749494 1.0
C      1  0.4520130222315  0.4877954653136  0.3009662247145 1.0
C      1  0.3009664325372  0.4877957848207  0.5479873796472 1.0
C      1  0.9042067465694  0.5344470214492  0.4233387885188 1.0
C      1  0.5766618716333  0.5344475158593  0.9042074974735 1.0
C      1  0.0957918930761  0.5344465804701  0.5766607129183 1.0
C      1  0.4233410439161  0.5344469418076  0.0957926883722 1.0
C      1  0.0957980876270  0.4659028129808  0.4233732902919 1.0
C      1  0.4233743234721  0.4659034614242  0.9042013211415 1.0
C      1  0.9042014265141  0.4659038705161  0.5766278147788 1.0
C      1  0.5766280976884  0.4659027857751  0.0957983313910 1.0
C      1  0.8764578106401  0.3341906345994  0.3664324679077 1.0
C      1  0.6335679664964  0.3341954219318  0.8764545514028 1.0
C      1  0.1235449949933  0.3341967736329  0.6335676311622 1.0
C      1  0.3664326652815  0.3341957801606  0.1235473464936 1.0
C      1  0.1234863910907  0.6661983787861  0.3665693904951 1.0
C      1  0.3665710650337  0.6662005037336  0.8765124683027 1.0
C      1  0.8765126008338  0.6662004888344  0.6334287680138 1.0
C      1  0.6334282888421  0.6662004049423  0.1234858067906 1.0
C      1  0.4999841707256  0.5001615527396  0.0538261806616 1.0
C      1  0.5000171997867  0.5001624430070  0.9461743886290 1.0
C      1  0.0538256865375  0.5001617550083  0.5000164448518 1.0
C      1  0.9461736228554  0.5001622894855  0.4999830223275 1.0
END
