TITL C-31660-4929-20 -0.91 3375.00 -136.66132315 0 0 18 (C1) n - 1
REM
REM Run started: at 2020.11.29 18:04:59 in /rds/project/t2_vol4/rds-t2-cs072/BORA/CARBON/AIRSS/Generating-Clusters/Str-Search/Higher-Symm/C10-100
REM VASP from code version vasp.5.4.4.18Apr17-6-g9f103f2a35 (build Oct 11 2019 16:45:47) gamma-only
REM
REM
REM
REM
REM ./C.cell (f39ce9773e2efe3fa5bbdf770a4156b8)
REM AIRSS Version 0.9.1 bugfix July 2018 build 013d7b7c2542+ Fri, 06 Jul 2018 19:26:36 +0100
REM compiler GCC version 4.8.5 20150623 (Red Hat 4.8.5-39)
REM options -cpp -mtune=generic -march=x86-64 -g -O0
REM seed -1235462988 637252955 353436884 687419126 1993537507 1912183186 235227755 1702751756 -1217084559 1268221565 974799688 1822410541
REM
REM C.POTCAR (d86ddea03c3ceb6dc662c8ad6801f873)
REM 
CELL 1.54180   15.00000   15.00000   15.00000   90.00000   90.00000   90.00000
LATT -1
SFAC C  
C      1  0.4565088733142  0.5150488225871  0.4003632159847 1.0
C      1  0.5414069193592  0.4793804614600  0.4020574002179 1.0
C      1  0.6212935354892  0.5140164983434  0.5938961650563 1.0
C      1  0.3807193031898  0.5036644175980  0.5954042275945 1.0
C      1  0.8531045509438  0.4633715780592  0.5279223116574 1.0
C      1  0.1568800359201  0.4387126253483  0.5140390705247 1.0
C      1  0.7671524743607  0.5010417764887  0.5162275541945 1.0
C      1  0.2336132450450  0.4930139027076  0.5210469683515 1.0
C      1  0.5455031173237  0.5145802389816  0.6273265643500 1.0
C      1  0.4565352687468  0.5117737052899  0.6278038919221 1.0
C      1  0.3903883723750  0.5747716741583  0.3610380946958 1.0
C      1  0.6066833462747  0.4158735951056  0.3672376582134 1.0
C      1  0.6748245400822  0.4979370031037  0.5191860915733 1.0
C      1  0.3252522531048  0.5048385727211  0.5203650962103 1.0
C      1  0.8466986485629  0.5480695486686  0.4952395530083 1.0
C      1  0.1455345643726  0.5275795091234  0.5307029000539 1.0
C      1  0.3736973238448  0.5249752683238  0.4390526549031 1.0
C      1  0.6242036276906  0.4713508019315  0.4410909814884 1.0
END
