TITL C-31937-2793-15 -8.588 3375.00 -1507.82865365 0 0 183 (C1) n - 1
REM
REM Run started: at 2021.01.04 18:21:56 in /gpfs/home/chem/mssmkc/CARBON/AIRSS/Generating-Clusters/Str-Search/Higher-Symm/C100-200
REM VASP from code version vasp.5.4.4.18Apr17-6-g9f103f2a35 (build Oct 11 2019 16:45:47) gamma-only
REM
REM
REM
REM
REM ./C.cell (533062f00bc710175b3da973d35f2034)
REM AIRSS Version 0.9.1 bugfix July 2018 build 013d7b7c2542+ Fri, 06 Jul 2018 19:26:36 +0100
REM compiler GCC version 6.3.0
REM options -cpp -iprefix /gpfs/warwick/csc/orac/software/Core/GCCcore/6.3.0/bin/../lib/gcc/x86_64-pc-linux-gnu/6.3.0/ -mtune=generic -march=x86-64 -g -O0
REM seed -1161463633 -1267533034 2065380378 -1560236240 1018320941 1457881204 -559711912 -1278464523 244822741 1453688977 -284495587 -2122187056
REM
REM C.POTCAR (d86ddea03c3ceb6dc662c8ad6801f873)
REM 
CELL 1.54180   15.00000   15.00000   15.00000   90.00000   90.00000   90.00000
LATT -1
SFAC C  
C      1  0.6809423441658  0.7904563554949  0.7477773511410 1.0
C      1  0.2963361380439  0.2090860747911  0.7424634036352 1.0
C      1  0.6856333903194  0.7956679783552  0.2496367343870 1.0
C      1  0.3010791300459  0.2038625103597  0.2509580355284 1.0
C      1  0.3884110030505  0.5701250773032  0.4603791927367 1.0
C      1  0.6696590247044  0.4275868487634  0.4359483742516 1.0
C      1  0.3783626345962  0.5671997705641  0.5543703021491 1.0
C      1  0.6611856862198  0.4255079538528  0.5284147733651 1.0
C      1  0.6310940921515  0.8397287336580  0.3117031632999 1.0
C      1  0.3435902948251  0.1441088867804  0.3069621763448 1.0
C      1  0.6246891680184  0.8292790613250  0.6842404556533 1.0
C      1  0.3374702974328  0.1446931521165  0.6903036255624 1.0
C      1  0.8859260959695  0.6102486793508  0.5490919842964 1.0
C      1  0.1405264425701  0.4362596573249  0.5222924309401 1.0
C      1  0.8903629841143  0.6075963383599  0.4530635479056 1.0
C      1  0.1311414283525  0.4093887586264  0.4268441027615 1.0
C      1  0.4305186771900  0.1602860809052  0.6751936637256 1.0
C      1  0.5376790318970  0.7955718815495  0.6647710343421 1.0
C      1  0.4326730521675  0.1676307481208  0.3294102130848 1.0
C      1  0.5416596090911  0.8102483811868  0.3275009553035 1.0
C      1  0.5889832212964  0.6499724098147  0.7356580597340 1.0
C      1  0.3993937240933  0.3403872698340  0.7197280467333 1.0
C      1  0.6001935137740  0.6603919603257  0.2681916354838 1.0
C      1  0.3899151040899  0.3431816504953  0.2925591159830 1.0
C      1  0.3336318107346  0.7972163146177  0.3179573211938 1.0
C      1  0.6524947189640  0.1981815823520  0.3761848844488 1.0
C      1  0.3282025940090  0.7742407963602  0.6759129741161 1.0
C      1  0.6508869638470  0.1925463479107  0.6310241878190 1.0
C      1  0.2238752383841  0.1932566325837  0.5989471711239 1.0
C      1  0.7511846069925  0.8204735942802  0.6060983011204 1.0
C      1  0.2179448400367  0.1793055957309  0.3871028267331 1.0
C      1  0.7516528112543  0.8175371449674  0.3948565579378 1.0
C      1  0.3220597682572  0.5299200281830  0.1847208722589 1.0
C      1  0.6850341912425  0.4657453569834  0.1732292989054 1.0
C      1  0.3220359766109  0.5252843957427  0.8363076290645 1.0
C      1  0.6820231494605  0.4607202897901  0.8135378280006 1.0
C      1  0.6657962381739  0.8654912848068  0.3960348849121 1.0
C      1  0.2987434218203  0.1246634521068  0.3914149950074 1.0
C      1  0.6616493856971  0.8596220042058  0.6022677851430 1.0
C      1  0.2980029268885  0.1281440574387  0.6030079488525 1.0
C      1  0.3563355237567  0.2775956524080  0.2162895039370 1.0
C      1  0.6427855461124  0.7254729612692  0.1953785543422 1.0
C      1  0.3538912228864  0.2752945983425  0.7879994959515 1.0
C      1  0.6394036528532  0.7189516644897  0.7990852531282 1.0
C      1  0.5847394325305  0.6605983489782  0.3637258481386 1.0
C      1  0.4028839434719  0.3295653232276  0.3901083439658 1.0
C      1  0.5433157686765  0.6321334128700  0.6513040715641 1.0
C      1  0.4253529496939  0.3292826683584  0.6265167296014 1.0
C      1  0.5055406369856  0.3715054133379  0.1760321579123 1.0
C      1  0.4987316525025  0.6259264232676  0.1491632462626 1.0
C      1  0.5066213351098  0.3645652524463  0.8350610736981 1.0
C      1  0.5019382288182  0.6230790994410  0.8648588686462 1.0
C      1  0.3504970380583  0.6173116898787  0.2156263155103 1.0
C      1  0.6672581938917  0.3788768739690  0.2184577880369 1.0
C      1  0.3515152781851  0.6141506954169  0.8091340254612 1.0
C      1  0.6594954938674  0.3748526929603  0.7690175208942 1.0
C      1  0.2583099183358  0.5337384206166  0.7632298184652 1.0
C      1  0.7493656996486  0.4676686605920  0.7445071249319 1.0
C      1  0.2526038609984  0.5315089207309  0.2506290920988 1.0
C      1  0.7634344698712  0.4692097047696  0.2308657754895 1.0
C      1  0.4511920772963  0.2430392449715  0.6171531144446 1.0
C      1  0.5107751544153  0.7114420725183  0.6162557204758 1.0
C      1  0.4441045083923  0.2485593316635  0.3947562417603 1.0
C      1  0.5217852139117  0.7271738726286  0.3818210527881 1.0
C      1  0.8021987635075  0.7629662963268  0.5470124952379 1.0
C      1  0.1842284477059  0.2549112480700  0.5368757521134 1.0
C      1  0.7976674851576  0.7595211751886  0.4540050087215 1.0
C      1  0.1723805197151  0.2443678858255  0.4447770481246 1.0
C      1  0.7868454992207  0.5403671548429  0.2796219927109 1.0
C      1  0.2003187022437  0.4648296469132  0.2824607377870 1.0
C      1  0.7669238587699  0.5398918467462  0.6952167236036 1.0
C      1  0.2212788740217  0.4752432400526  0.7075587683441 1.0
C      1  0.5433587492705  0.7014903110328  0.8136632023375 1.0
C      1  0.4544150422655  0.2885904568723  0.7915990500552 1.0
C      1  0.5448391591767  0.7068425453660  0.1919434096432 1.0
C      1  0.4549221559571  0.2987034484655  0.2238770245029 1.0
C      1  0.3047637791734  0.5911446725196  0.6223192406524 1.0
C      1  0.7367378955517  0.4162075523984  0.5929501656616 1.0
C      1  0.3172243222791  0.5742485533628  0.3891214509431 1.0
C      1  0.7539407150356  0.4167704571176  0.3836109017436 1.0
C      1  0.3030425248421  0.5992482422931  0.2987991525176 1.0
C      1  0.7379281244699  0.3930278417852  0.2820600725047 1.0
C      1  0.3097171799234  0.6024850044697  0.7248700287677 1.0
C      1  0.7188347753509  0.3930319321739  0.6947972319297 1.0
C      1  0.8726651268794  0.5188095549628  0.5837645574293 1.0
C      1  0.1639301909640  0.5448987827103  0.5529347060815 1.0
C      1  0.8851450862618  0.5183511012701  0.4139464508106 1.0
C      1  0.1749313598204  0.4747174969594  0.3746833244164 1.0
C      1  0.2384821573551  0.3878420966043  0.7351345529252 1.0
C      1  0.7546081537860  0.6232534673717  0.7324037505096 1.0
C      1  0.2260517689978  0.3785990196926  0.2528250057121 1.0
C      1  0.7622880890307  0.6255256030977  0.2537052676858 1.0
C      1  0.7271855352941  0.5765315374174  0.5306837784864 1.0
C      1  0.2388457046877  0.4217980381060  0.5482967867859 1.0
C      1  0.7450955388530  0.5931189254546  0.4315972319449 1.0
C      1  0.2951108191641  0.4358377385084  0.4721954339550 1.0
C      1  0.3716846903367  0.4532671380697  0.1693624438152 1.0
C      1  0.6315647748717  0.5398965582336  0.1608269779376 1.0
C      1  0.3726784778766  0.4491834436917  0.8434220900249 1.0
C      1  0.6322710763942  0.5342303847467  0.8378791519903 1.0
C      1  0.4454485981342  0.7611450689773  0.5498957224356 1.0
C      1  0.5026250317510  0.1895831494824  0.5525867196299 1.0
C      1  0.4486566385450  0.7680931188311  0.4448338037910 1.0
C      1  0.5014544696476  0.1940238557248  0.4543068648892 1.0
C      1  0.5465156302473  0.2468930018008  0.7615922099427 1.0
C      1  0.4493186980429  0.7431832605525  0.7990112829179 1.0
C      1  0.5484722742061  0.2580884770896  0.2497960045352 1.0
C      1  0.4520435648250  0.7499678225306  0.2068855460999 1.0
C      1  0.6034833022681  0.1919319388928  0.5508847122028 1.0
C      1  0.3469575897763  0.7492330869336  0.5886651593156 1.0
C      1  0.6034182331786  0.1964755419889  0.4552416244987 1.0
C      1  0.3501739395464  0.7684733962143  0.4044283990384 1.0
C      1  0.1589591128863  0.7487189800848  0.7180961042538 1.0
C      1  0.8006948708052  0.2749297966120  0.5937793736317 1.0
C      1  0.1709783064857  0.8105652961313  0.2650849857930 1.0
C      1  0.8089254934866  0.2722176522566  0.4018739819610 1.0
C      1  0.5119641339571  0.1103307761455  0.6863707911069 1.0
C      1  0.4650038695889  0.8568129362625  0.6864661496675 1.0
C      1  0.5149078300160  0.1201382630348  0.3179905098448 1.0
C      1  0.4701325315822  0.8718075532160  0.3102837631078 1.0
C      1  0.7735767711555  0.5172824032370  0.6004165558434 1.0
C      1  0.2325253568090  0.5102715108856  0.6143903642807 1.0
C      1  0.7935243425616  0.5161113084331  0.3751223201414 1.0
C      1  0.2575056828342  0.5050440601445  0.4177545488884 1.0
C      1  0.5824254237685  0.1862134554232  0.3041618297061 1.0
C      1  0.4108009715369  0.8157897688587  0.2630139212748 1.0
C      1  0.5797483869074  0.1770826815458  0.7026987298713 1.0
C      1  0.4049691580991  0.7999351071205  0.7328705314992 1.0
C      1  0.9012482072179  0.4342052673969  0.4524095285790 1.0
C      1  0.1903742409120  0.6911981461379  0.4531352619649 1.0
C      1  0.8937503295962  0.4348754169722  0.5484100898799 1.0
C      1  0.1894776771876  0.6359795883518  0.5267497154902 1.0
C      1  0.5856605262249  0.3258335154294  0.7936699965408 1.0
C      1  0.4182027537709  0.6659248398017  0.8419946708954 1.0
C      1  0.5872784144770  0.3340458772583  0.2103466134680 1.0
C      1  0.4161391766927  0.6680250292357  0.1787331496924 1.0
C      1  0.2355148906183  0.7894301159648  0.3211598769719 1.0
C      1  0.7421106890955  0.2280388170135  0.3801909688850 1.0
C      1  0.2364620264780  0.7356315120961  0.6781007359634 1.0
C      1  0.7389391441821  0.2280277109655  0.6234307060009 1.0
C      1  0.7946925469495  0.6923668497745  0.6848213571852 1.0
C      1  0.1993997437912  0.3257679997853  0.6794809481957 1.0
C      1  0.7953471281832  0.6918531934371  0.3106333283708 1.0
C      1  0.1869862590569  0.3096549732548  0.3031484857829 1.0
C      1  0.8245959649828  0.3625176316845  0.4391643656057 1.0
C      1  0.2475679853841  0.7466811895422  0.4135867823844 1.0
C      1  0.8161621682704  0.3633161171028  0.5507716579473 1.0
C      1  0.2606264266594  0.6786255330247  0.5934633740818 1.0
C      1  0.8349575653802  0.6834359023917  0.5934506947919 1.0
C      1  0.1782711904709  0.3485682346699  0.5827551600117 1.0
C      1  0.8188586197348  0.6704684318709  0.4089202518222 1.0
C      1  0.1461218413198  0.3224133892769  0.3921904371051 1.0
C      1  0.6352753348621  0.5745098750208  0.5161177399903 1.0
C      1  0.4354977550041  0.4026590343354  0.5591782035920 1.0
C      1  0.6367787968033  0.5919084443420  0.4167522156769 1.0
C      1  0.3884042776580  0.4056493256165  0.4616119016256 1.0
C      1  0.4733902832410  0.4503023798954  0.8546671883994 1.0
C      1  0.5331259280283  0.5339508319232  0.8597969858933 1.0
C      1  0.4709085038136  0.4557542360286  0.1561993781467 1.0
C      1  0.5310620267759  0.5387225414806  0.1488153807020 1.0
C      1  0.4981677086522  0.8605877567382  0.4071922333235 1.0
C      1  0.4619296673798  0.1102578597706  0.4088363673446 1.0
C      1  0.4942226204853  0.8497918249699  0.5896470377770 1.0
C      1  0.4603646886891  0.1053817535846  0.5937907969295 1.0
C      1  0.4518617944524  0.4892354396855  0.4366200028463 1.0
C      1  0.6099801924856  0.4951415545505  0.3901047138422 1.0
C      1  0.4426432836594  0.5042043053640  0.5928086795085 1.0
C      1  0.5893424934967  0.4941296581945  0.5552329139161 1.0
C      1  0.3236765992911  0.3728317137660  0.2176752569408 1.0
C      1  0.6728493586327  0.6282006508163  0.2044735466873 1.0
C      1  0.3288466519261  0.3737859791274  0.7850117416595 1.0
C      1  0.6693637034473  0.6223999971399  0.7905896886649 1.0
C      1  0.7586579266366  0.7796690509583  0.6941394965685 1.0
C      1  0.2245496747031  0.2368077577193  0.6850801965770 1.0
C      1  0.7605970675660  0.7782020038426  0.3058264919654 1.0
C      1  0.2211186372741  0.2224328639872  0.3004108203414 1.0
C      1  0.5867480579464  0.8829971935666  0.4529517911681 1.0
C      1  0.3696590289705  0.0931579709791  0.4513860120322 1.0
C      1  0.5841293313971  0.8772146479258  0.5450687770231 1.0
C      1  0.3689360058575  0.0929094828453  0.5466124185932 1.0
C      1  0.5249949146784  0.4724763074266  0.3754339690617 1.0
C      1  0.5289458101800  0.5349687895233  0.6327339371701 1.0
C      1  0.5025516916875  0.4653662228352  0.5194583973448 1.0
END
