TITL C-31660-4929-36 -0.976 3375.00 -152.85118289 0 0 20 (C1) n - 1
REM
REM Run started: at 2020.11.29 22:11:54 in /rds/project/t2_vol4/rds-t2-cs072/BORA/CARBON/AIRSS/Generating-Clusters/Str-Search/Higher-Symm/C10-100
REM VASP from code version vasp.5.4.4.18Apr17-6-g9f103f2a35 (build Oct 11 2019 16:45:47) gamma-only
REM
REM
REM
REM
REM ./C.cell (f39ce9773e2efe3fa5bbdf770a4156b8)
REM AIRSS Version 0.9.1 bugfix July 2018 build 013d7b7c2542+ Fri, 06 Jul 2018 19:26:36 +0100
REM compiler GCC version 4.8.5 20150623 (Red Hat 4.8.5-39)
REM options -cpp -mtune=generic -march=x86-64 -g -O0
REM seed -708775182 1105779289 623984552 1764639363 1343262852 -1511465797 -1995193976 -1461316089 -392429704 -1096174366 1389505804 -1469875739
REM
REM C.POTCAR (d86ddea03c3ceb6dc662c8ad6801f873)
REM 
CELL 1.54180   15.00000   15.00000   15.00000   90.00000   90.00000   90.00000
LATT -1
SFAC C  
C      1  0.5936997053779  0.4123534193410  0.5383113103397 1.0
C      1  0.6505447190758  0.4224390784851  0.4523218830587 1.0
C      1  0.3849969398302  0.4045054574310  0.4392813021614 1.0
C      1  0.4442250199099  0.5606098027215  0.4154928947001 1.0
C      1  0.4258183227619  0.6060309451756  0.4992726852200 1.0
C      1  0.5429127442261  0.5507287756328  0.4027953353648 1.0
C      1  0.5621531624979  0.4873658491979  0.5898731012381 1.0
C      1  0.3953899813794  0.4808493121673  0.4076087115085 1.0
C      1  0.5112475149021  0.6457113244414  0.5341248446164 1.0
C      1  0.5738396159808  0.3830535733578  0.4165697012435 1.0
C      1  0.4791105122695  0.4684173308815  0.6359383921809 1.0
C      1  0.5746288121345  0.5750773890073  0.5587872243416 1.0
C      1  0.3611470631009  0.5725520754491  0.5593605913994 1.0
C      1  0.5249292509848  0.3557951970818  0.4988353192338 1.0
C      1  0.5616268315423  0.7063742594275  0.4743593315490 1.0
C      1  0.4322587033430  0.3689779172337  0.5133756493552 1.0
C      1  0.5880014307326  0.6117844344068  0.4690713552456 1.0
C      1  0.5885960881762  0.4736616995616  0.3866246185570 1.0
C      1  0.4140976695931  0.4102843823709  0.6003004030012 1.0
C      1  0.3907759121811  0.5034278766285  0.6076954456852 1.0
END
