TITL C-31273-9599-130 -4.522 3375.00 -808.30847453 0 0 95 (C1) n - 1
REM
REM Run started: at 2020.12.30 02:37:15 in /gpfs/home/chem/mssmkc/CARBON/AIRSS/Generating-Clusters/Str-Search/Higher-Symm/C4-100
REM VASP from code version vasp.5.4.4.18Apr17-6-g9f103f2a35 (build Oct 11 2019 16:45:47) gamma-only
REM
REM
REM
REM
REM ./C.cell (6bd13a13d554368a30d355f37ece5b26)
REM AIRSS Version 0.9.1 bugfix July 2018 build 013d7b7c2542+ Fri, 06 Jul 2018 19:26:36 +0100
REM compiler GCC version 6.3.0
REM options -cpp -iprefix /gpfs/warwick/csc/orac/software/Core/GCCcore/6.3.0/bin/../lib/gcc/x86_64-pc-linux-gnu/6.3.0/ -mtune=generic -march=x86-64 -g -O0
REM seed -257301155 1603195734 1907593139 -431087020 164761962 -2720095 496388542 -973549271 -1611393536 1466464701 -924460477 -787879051
REM
REM C.POTCAR (d86ddea03c3ceb6dc662c8ad6801f873)
REM 
CELL 1.54180   15.00000   15.00000   15.00000   90.00000   90.00000   90.00000
LATT -1
SFAC C  
C      1  0.4941499725063  0.4306330121855  0.5023751772549 1.0
C      1  0.5261961064080  0.4643555207514  0.5994044350869 1.0
C      1  0.3925865595484  0.4477495071218  0.4796425399830 1.0
C      1  0.5113285666071  0.5276462069212  0.4772194764000 1.0
C      1  0.5321793761264  0.5532429602076  0.5705193371559 1.0
C      1  0.4144207635899  0.5372357057568  0.4730922434526 1.0
C      1  0.7351468166956  0.7050228012415  0.4712552769376 1.0
C      1  0.4339278139088  0.6731796055931  0.7234930199846 1.0
C      1  0.3634366749972  0.6622601360966  0.3337612317354 1.0
C      1  0.7044523472058  0.3560833062689  0.4646196452327 1.0
C      1  0.4024564660540  0.3214866978509  0.6897575399989 1.0
C      1  0.3605239728733  0.3048476141658  0.3064302462850 1.0
C      1  0.3623475173550  0.7354470760222  0.5963261574264 1.0
C      1  0.5164472059040  0.7024200368592  0.3542536982561 1.0
C      1  0.6566034197770  0.7463366156140  0.6007351668465 1.0
C      1  0.3453709079672  0.2785387103190  0.5532737147844 1.0
C      1  0.5102392365007  0.2661738845413  0.3175882403573 1.0
C      1  0.6250054983715  0.2941957606136  0.5839583628699 1.0
C      1  0.5081154381968  0.7080690200827  0.6663658437498 1.0
C      1  0.3721702293444  0.6987556535736  0.4277670541997 1.0
C      1  0.6544031359403  0.7351783253365  0.4381281015577 1.0
C      1  0.4743154050678  0.2771793181689  0.6477870567613 1.0
C      1  0.3654749746169  0.2634326636010  0.3898346753751 1.0
C      1  0.6235306389565  0.3122898190927  0.4268739889122 1.0
C      1  0.7708872229145  0.6244772021096  0.5993304447583 1.0
C      1  0.2977291639687  0.6078265382126  0.6844455056237 1.0
C      1  0.4629923412322  0.5793452856044  0.2416760013815 1.0
C      1  0.7415745788709  0.4333298633905  0.5947984284783 1.0
C      1  0.2838489022059  0.4162400816328  0.6564349333974 1.0
C      1  0.4544584251386  0.3888550172314  0.2169358755957 1.0
C      1  0.7266711424405  0.5830771869559  0.6704919059125 1.0
C      1  0.2563769737506  0.5737451579277  0.6089662281120 1.0
C      1  0.5414926032089  0.5285307853897  0.2314049875636 1.0
C      1  0.7159236767531  0.4861953376509  0.6683901364205 1.0
C      1  0.2459338856739  0.4792751673086  0.5966706822453 1.0
C      1  0.5365379857630  0.4312910659931  0.2248708728524 1.0
C      1  0.2396712649269  0.4654402927485  0.5031186412886 1.0
C      1  0.6094458502213  0.3910892419561  0.2761785487976 1.0
C      1  0.6363709155935  0.4685203102852  0.7163006017403 1.0
C      1  0.2670636718120  0.6172083772761  0.5187801070209 1.0
C      1  0.6261907406944  0.5479670987053  0.2697152651897 1.0
C      1  0.6493117569539  0.6250192415954  0.7138370255701 1.0
C      1  0.3170732652331  0.3890702095857  0.2870506678849 1.0
C      1  0.7520937129569  0.4340549050078  0.4381414843521 1.0
C      1  0.4077873339934  0.3971748856693  0.7473737052672 1.0
C      1  0.3187380128888  0.5818199503412  0.3050859148473 1.0
C      1  0.7742440419238  0.6229073931535  0.4426545399070 1.0
C      1  0.4291303679682  0.5876073138025  0.7654272488669 1.0
C      1  0.3318045987599  0.4539876094153  0.7322534084508 1.0
C      1  0.3735407387668  0.4412910049081  0.2291000582845 1.0
C      1  0.7811273675500  0.4788922875477  0.5193925510462 1.0
C      1  0.3421753211327  0.5470722231322  0.7441070448936 1.0
C      1  0.3777788724875  0.5347443606038  0.2424898384909 1.0
C      1  0.7961961590368  0.5715858458020  0.5218793494268 1.0
C      1  0.4697476679047  0.1388984227860  0.5335134670687 1.0
C      1  0.4813831139458  0.1310355400364  0.4387213892596 1.0
C      1  0.5592667417985  0.1422145172194  0.4989792964784 1.0
C      1  0.4717601444789  0.8607078422360  0.5491687324240 1.0
C      1  0.4724607947488  0.8449812525414  0.4523283435907 1.0
C      1  0.5535731942586  0.8595075406395  0.5017058500009 1.0
C      1  0.3660747696358  0.6151955674907  0.4853661663039 1.0
C      1  0.6607328364775  0.6201443595131  0.3217614563261 1.0
C      1  0.5171940579185  0.6433397788634  0.5841346805461 1.0
C      1  0.2961135752787  0.4000559560290  0.4517146979924 1.0
C      1  0.5340928564570  0.3541298856578  0.4672848032867 1.0
C      1  0.5621039867998  0.4087066719616  0.6880051199191 1.0
C      1  0.4539852158846  0.6580082356867  0.2991608910818 1.0
C      1  0.7350620073227  0.7077221854834  0.5685677056553 1.0
C      1  0.3517233219002  0.6872114361965  0.6758564218898 1.0
C      1  0.4449357715721  0.3041820372715  0.2610913501218 1.0
C      1  0.6983943149647  0.3518252657912  0.5595310349905 1.0
C      1  0.3270690430988  0.3304991860536  0.6319112414180 1.0
C      1  0.3209398517134  0.3021518093103  0.4657810195660 1.0
C      1  0.5930194792940  0.3118890463144  0.3291170921035 1.0
C      1  0.5621042623532  0.3132767286316  0.6522446911213 1.0
C      1  0.3169054249307  0.7067955190174  0.5141802677781 1.0
C      1  0.6120684390731  0.6935907266247  0.3617167360557 1.0
C      1  0.6103661853544  0.7048708767772  0.6753785934635 1.0
C      1  0.5051164871561  0.5312929688736  0.7701457512260 1.0
C      1  0.2647065819052  0.5282399873810  0.3621254796574 1.0
C      1  0.7367884058918  0.5816861675145  0.3685777240162 1.0
C      1  0.4901729078097  0.4383563169660  0.7513122223747 1.0
C      1  0.2792217878937  0.4335921460138  0.3581047242657 1.0
C      1  0.7333100479237  0.4846724097007  0.3608658883964 1.0
C      1  0.5942969010021  0.2386057726367  0.5010946413980 1.0
C      1  0.4383960398988  0.2331266236009  0.5636294650906 1.0
C      1  0.4598731212069  0.2220624968117  0.3979377041105 1.0
C      1  0.6035318228737  0.7752496705273  0.5164790270199 1.0
C      1  0.4565240593507  0.7720432742880  0.5945713826546 1.0
C      1  0.4653263526666  0.7430488830720  0.4313599573438 1.0
C      1  0.2361516536372  0.5466682058886  0.4530684469557 1.0
C      1  0.6685452337469  0.4646401877714  0.2948818631535 1.0
C      1  0.5974078023747  0.5496174959029  0.7487019636583 1.0
C      1  0.5111884311311  0.7177612315837  0.5230035818361 1.0
C      1  0.4962854670271  0.2701686744059  0.4838060941305 1.0
END
