TITL C-31273-9599-23 -3.229 3375.00 -602.09710979 0 0 74 (Cs) n - 1
REM
REM Run started: at 2020.12.29 06:37:39 in /gpfs/home/chem/mssmkc/CARBON/AIRSS/Generating-Clusters/Str-Search/Higher-Symm/C4-100
REM VASP from code version vasp.5.4.4.18Apr17-6-g9f103f2a35 (build Oct 11 2019 16:45:47) gamma-only
REM
REM
REM
REM
REM ./C.cell (6bd13a13d554368a30d355f37ece5b26)
REM AIRSS Version 0.9.1 bugfix July 2018 build 013d7b7c2542+ Fri, 06 Jul 2018 19:26:36 +0100
REM compiler GCC version 6.3.0
REM options -cpp -iprefix /gpfs/warwick/csc/orac/software/Core/GCCcore/6.3.0/bin/../lib/gcc/x86_64-pc-linux-gnu/6.3.0/ -mtune=generic -march=x86-64 -g -O0
REM seed 2061704141 -1737566210 -1070928750 -2096751128 -213365251 555796510 1949495216 -1807509182 1291843379 208521448 293277874 641294770
REM
REM C.POTCAR (d86ddea03c3ceb6dc662c8ad6801f873)
REM 
CELL 1.54180   15.00000   15.00000   15.00000   90.00000   90.00000   90.00000
LATT -1
SFAC C  
C      1  0.2781493274867  0.5814576484146  0.5388328776268 1.0
C      1  0.2702263977174  0.5849954472102  0.4370414143240 1.0
C      1  0.2699836866319  0.4984946991005  0.3914518263536 1.0
C      1  0.2654881981010  0.4136664525935  0.4430275326700 1.0
C      1  0.2644310169738  0.4158968832926  0.5477335820082 1.0
C      1  0.2478312898280  0.5031860476687  0.6141501841161 1.0
C      1  0.7169203000110  0.5815804787977  0.5386085794429 1.0
C      1  0.7243294331048  0.5850201504282  0.4368061170233 1.0
C      1  0.7244864618484  0.4985200962375  0.3912386213928 1.0
C      1  0.7292212504828  0.4136893896109  0.4427672263640 1.0
C      1  0.7306065098459  0.4159211145829  0.5474652554275 1.0
C      1  0.7474808598764  0.5032651152155  0.6138983903544 1.0
C      1  0.3233552743341  0.6578136498653  0.5866566162452 1.0
C      1  0.3198266217459  0.6592036573780  0.4017829854475 1.0
C      1  0.3208884822156  0.5006131844657  0.3086166819624 1.0
C      1  0.3194471894929  0.3444156146426  0.4046390022950 1.0
C      1  0.3181956621263  0.3401587988677  0.5889024879328 1.0
C      1  0.3127103233959  0.5034599695129  0.6947567803554 1.0
C      1  0.6717054026254  0.6579339833688  0.5864730059473 1.0
C      1  0.6747604451504  0.6592341432836  0.4015692642781 1.0
C      1  0.6735819331163  0.5005876442230  0.3084140283578 1.0
C      1  0.6751693249396  0.3444651773776  0.4044533399634 1.0
C      1  0.6767326865716  0.3402562502103  0.5886842877499 1.0
C      1  0.6825345524707  0.5035325566954  0.6945128942923 1.0
C      1  0.6131393473747  0.6611985167457  0.3267859457892 1.0
C      1  0.6148370793722  0.4353382720752  0.2711692161254 1.0
C      1  0.6139880698391  0.2788678243561  0.4421212819093 1.0
C      1  0.6179155991782  0.3436330589395  0.6634605166573 1.0
C      1  0.6156863792455  0.5670412592950  0.7213125072422 1.0
C      1  0.6158225237299  0.7253414948375  0.5504420553905 1.0
C      1  0.3813674464091  0.6612403073334  0.3269163835444 1.0
C      1  0.3795730663162  0.4353725361946  0.2713384984500 1.0
C      1  0.3806915457497  0.2788315890050  0.4422151353904 1.0
C      1  0.3771978917407  0.3435943111040  0.6635519269702 1.0
C      1  0.3794841907404  0.5669967559361  0.7214513709862 1.0
C      1  0.3790385364955  0.7252908270666  0.5505642839270 1.0
C      1  0.5438927199561  0.7147341267027  0.6196735999499 1.0
C      1  0.5445076512288  0.7145590903258  0.3722215843373 1.0
C      1  0.5432709184958  0.5008037023785  0.2488337792047 1.0
C      1  0.5446486750278  0.2908554480450  0.3748751614484 1.0
C      1  0.5438827127144  0.2938363057144  0.6197514647851 1.0
C      1  0.5438684848993  0.4995312135682  0.7391810063598 1.0
C      1  0.4512044397420  0.7146948338233  0.6196945742275 1.0
C      1  0.4502069202656  0.7145109648564  0.3723004632799 1.0
C      1  0.4512550167421  0.5008007088491  0.2489436188420 1.0
C      1  0.4500644758352  0.2908745457694  0.3749287917121 1.0
C      1  0.4512450036459  0.2938100570661  0.6197757827770 1.0
C      1  0.4514416620575  0.4995267651348  0.7392359814882 1.0
C      1  0.4460194442429  0.5386632965398  0.3999157074944 1.0
C      1  0.4463187482230  0.4379859967559  0.4168226864905 1.0
C      1  0.4473041336180  0.4066513891035  0.5150634697721 1.0
C      1  0.4129750696895  0.4744054698379  0.5816783039956 1.0
C      1  0.4485177527877  0.5662860512797  0.5775192050121 1.0
C      1  0.4466568590383  0.6037192147267  0.4800041845659 1.0
C      1  0.5487737211456  0.5386688759840  0.3998388940411 1.0
C      1  0.5484890091428  0.4379913752786  0.4167525905302 1.0
C      1  0.5477327418856  0.4066842954809  0.5150175695164 1.0
C      1  0.5820974748641  0.4744547450759  0.5815562569554 1.0
C      1  0.5466464858243  0.5663352381577  0.5774681964102 1.0
C      1  0.5482807527151  0.6037496738563  0.4799494774582 1.0
C      1  0.6038229418463  0.4377088863908  0.6875906931835 1.0
C      1  0.5974926933727  0.6316459555778  0.6483349042758 1.0
C      1  0.5988913443376  0.6977611323787  0.4570952186521 1.0
C      1  0.5971817442369  0.5665775903331  0.3049042654224 1.0
C      1  0.5982208023789  0.3719666603247  0.3447380002321 1.0
C      1  0.5974261580315  0.3091055449733  0.5345901246374 1.0
C      1  0.3913979299358  0.4376386076336  0.6877514208747 1.0
C      1  0.3975939360835  0.6316144977878  0.6484427852860 1.0
C      1  0.3957904029504  0.6976941894572  0.4571959089832 1.0
C      1  0.3972904182704  0.5666166835837  0.3050260761241 1.0
C      1  0.3962828659152  0.3719602704942  0.3448535934260 1.0
C      1  0.3974096319583  0.3090320722389  0.5346883104585 1.0
C      1  0.3248062303290  0.4943236443926  0.5533011404930 1.0
C      1  0.6703365202825  0.4944107741909  0.5532147029844 1.0
END
