TITL C-31794-7627-47 -6.537 3375.00 -1157.53775579 0 0 138 (C1) n - 1
REM
REM Run started: at 2020.12.22 04:02:44 in /gpfs/home/chem/mssmkc/CARBON/AIRSS/Generating-Clusters/Str-Search/Higher-Symm/C100-200
REM VASP from code version vasp.5.4.4.18Apr17-6-g9f103f2a35 (build Oct 11 2019 16:45:47) gamma-only
REM
REM
REM
REM
REM ./C.cell (533062f00bc710175b3da973d35f2034)
REM AIRSS Version 0.9.1 bugfix July 2018 build 013d7b7c2542+ Fri, 06 Jul 2018 19:26:36 +0100
REM compiler GCC version 6.3.0
REM options -cpp -iprefix /gpfs/warwick/csc/orac/software/Core/GCCcore/6.3.0/bin/../lib/gcc/x86_64-pc-linux-gnu/6.3.0/ -mtune=generic -march=x86-64 -g -O0
REM seed 432430751 -1632574143 -1157715823 -1299376459 1007366325 870349519 -2052516629 641293474 481841971 1204616269 -696561095 886887712
REM
REM C.POTCAR (d86ddea03c3ceb6dc662c8ad6801f873)
REM 
CELL 1.54180   15.00000   15.00000   15.00000   90.00000   90.00000   90.00000
LATT -1
SFAC C  
C      1  0.2917780687290  0.6290860799107  0.7263762545992 1.0
C      1  0.2841716849956  0.4425174982870  0.7242211501498 1.0
C      1  0.3172229067063  0.3580047317559  0.6965890613718 1.0
C      1  0.3901117532357  0.3038119746806  0.7240918228770 1.0
C      1  0.5725173603087  0.2621637444827  0.7266047097757 1.0
C      1  0.6588075538689  0.3062380313114  0.7263033703047 1.0
C      1  0.7416512675827  0.4664341664999  0.7269087888324 1.0
C      1  0.7331270211597  0.5620330276227  0.7257117057755 1.0
C      1  0.6228873590179  0.7027534563871  0.7230858828936 1.0
C      1  0.5327969992664  0.7371201587612  0.7233954590921 1.0
C      1  0.3564202754829  0.7011901831215  0.7255690907562 1.0
C      1  0.5380908080425  0.3226651323193  0.7929180964125 1.0
C      1  0.6268262357426  0.3724943350321  0.7915139967955 1.0
C      1  0.6680270262623  0.4557465929622  0.7904442371943 1.0
C      1  0.6572037978184  0.5585305566211  0.7874736761533 1.0
C      1  0.5996969836770  0.6321764643082  0.7866146427347 1.0
C      1  0.5035620782123  0.6697982224888  0.7878879906113 1.0
C      1  0.4123004885557  0.6527307824053  0.7901800117985 1.0
C      1  0.3411702597010  0.5801349799337  0.7926518107036 1.0
C      1  0.3422523668668  0.4874212603785  0.7898564979548 1.0
C      1  0.4284906339148  0.4427224595210  0.8032671022272 1.0
C      1  0.4488413919997  0.3477029003282  0.7898485022215 1.0
C      1  0.4817275226347  0.2386650070932  0.2424603177971 1.0
C      1  0.6249194619207  0.2712850183848  0.2426424761213 1.0
C      1  0.7276679806984  0.3741229092729  0.2434620532962 1.0
C      1  0.7584156919068  0.5179644566578  0.2416104840673 1.0
C      1  0.7057044626297  0.6532819721797  0.2428930563134 1.0
C      1  0.5862882871864  0.7379587599470  0.2430888187870 1.0
C      1  0.4400364914352  0.7492443230370  0.2425847400255 1.0
C      1  0.3139369406698  0.6769841792926  0.2421491996500 1.0
C      1  0.2454097169753  0.5471837512618  0.2426024092514 1.0
C      1  0.2546748900666  0.4015771805641  0.2410955531567 1.0
C      1  0.3435538746602  0.2858764224925  0.2414267879549 1.0
C      1  0.6824571920217  0.4623526236378  0.4148347832837 1.0
C      1  0.6476756666431  0.5585066603222  0.4224996580174 1.0
C      1  0.6117765889352  0.6535086913716  0.4169084782473 1.0
C      1  0.5137525275617  0.6891587619728  0.4164945406911 1.0
C      1  0.4257370688318  0.6389217099435  0.4218250654925 1.0
C      1  0.3377944880105  0.5866404948932  0.4147973195014 1.0
C      1  0.3399113362152  0.4856087808172  0.4217326631459 1.0
C      1  0.3634309646237  0.3939032046505  0.4228968930690 1.0
C      1  0.4455571436806  0.3465322099363  0.4215192651514 1.0
C      1  0.5420836953983  0.3165890560506  0.4147968768118 1.0
C      1  0.6159897526129  0.3861731532704  0.4217042369329 1.0
C      1  0.6386896774024  0.6019994073189  0.1888699093257 1.0
C      1  0.5580584859111  0.6595054442855  0.1891436267813 1.0
C      1  0.4594192286234  0.6661946100335  0.1886751814107 1.0
C      1  0.3742811697440  0.6179792829499  0.1885869120088 1.0
C      1  0.3273658511637  0.5302898929583  0.1890950781232 1.0
C      1  0.3344438853729  0.4323968250332  0.1886268984744 1.0
C      1  0.3940395715386  0.3547449351530  0.1888454146327 1.0
C      1  0.4867409092765  0.3222020592503  0.1892415505129 1.0
C      1  0.5840652738580  0.3447742397593  0.1888287368661 1.0
C      1  0.6532180347723  0.4140619908612  0.1887692156739 1.0
C      1  0.6739939848726  0.5108824762550  0.1882763602899 1.0
C      1  0.6583043271440  0.2185592972831  0.4297787732832 1.0
C      1  0.7804891636608  0.3420831323884  0.4234861278461 1.0
C      1  0.8208292657496  0.5278790676464  0.4290316350343 1.0
C      1  0.7616196814244  0.6895021516276  0.4231052540484 1.0
C      1  0.6097419028059  0.8033507417010  0.4307166101745 1.0
C      1  0.4199849942060  0.8120803922196  0.4225448892313 1.0
C      1  0.2713777482932  0.7235096846606  0.4290910875651 1.0
C      1  0.1853826958566  0.5523352450540  0.4237704212694 1.0
C      1  0.1925837679790  0.3780736049028  0.4198908844252 1.0
C      1  0.3044631032977  0.2324382183400  0.4198533299075 1.0
C      1  0.4704645049203  0.1788293515758  0.4239527883339 1.0
C      1  0.5146182622656  0.7908368499645  0.3835046820977 1.0
C      1  0.3420086099490  0.7721887631653  0.3778756902020 1.0
C      1  0.2446553755256  0.6310455867670  0.3841865689584 1.0
C      1  0.1823323874890  0.4657472793023  0.3748108032352 1.0
C      1  0.2458285375548  0.3030346305097  0.3751844386161 1.0
C      1  0.3863539050314  0.1992098472094  0.3747867800923 1.0
C      1  0.5618529581930  0.2156217925877  0.3843941684441 1.0
C      1  0.7230362072035  0.2753364740418  0.3790917189055 1.0
C      1  0.7835072722081  0.4392007370774  0.3837913649351 1.0
C      1  0.7969746063574  0.6098010813933  0.3777460892509 1.0
C      1  0.6751372739645  0.7329967252706  0.3837893431532 1.0
C      1  0.3914049634432  0.2136706774240  0.5662900959633 1.0
C      1  0.5555571470540  0.2233791225684  0.5614735888226 1.0
C      1  0.7213251705698  0.2836418927506  0.5666977030974 1.0
C      1  0.7759611978832  0.4377521653297  0.5612407153231 1.0
C      1  0.7883578323602  0.6117598392432  0.5676259858481 1.0
C      1  0.6740253517111  0.7266278082349  0.5606309801524 1.0
C      1  0.5107952938296  0.7852034466051  0.5603841535725 1.0
C      1  0.3491629316401  0.7691870211707  0.5664559489708 1.0
C      1  0.2502579771703  0.6233979522264  0.5611705130483 1.0
C      1  0.1977226860042  0.4672381029938  0.5661863503107 1.0
C      1  0.2445896136393  0.3022449534414  0.5534127483942 1.0
C      1  0.2469217640399  0.5896428403431  0.6561845879290 1.0
C      1  0.2334374117994  0.4940457818750  0.6564364038586 1.0
C      1  0.3081379472656  0.3512728058794  0.6023897364771 1.0
C      1  0.4263793237353  0.2411748654915  0.6564207826803 1.0
C      1  0.5222468698510  0.2293957369484  0.6564688915178 1.0
C      1  0.7182316158259  0.3228873742700  0.6568417272009 1.0
C      1  0.7601209929456  0.4096714965498  0.6569132689600 1.0
C      1  0.7477600501684  0.6238638140960  0.6572441207433 1.0
C      1  0.6863277987141  0.6977559012071  0.6561168123307 1.0
C      1  0.4817410371292  0.7732169536296  0.6559448413989 1.0
C      1  0.3869809509916  0.7551753265317  0.6563347505067 1.0
C      1  0.6085887181520  0.8007030312702  0.5227348458660 1.0
C      1  0.4208165526870  0.8104142487807  0.5147972290817 1.0
C      1  0.2741789081451  0.7211293177010  0.5237782312156 1.0
C      1  0.1900603279025  0.5510432966887  0.5156929639274 1.0
C      1  0.1947735958045  0.3779440162971  0.5161551913942 1.0
C      1  0.3047359949496  0.2345903649586  0.5160668861714 1.0
C      1  0.4702854946253  0.1839213052771  0.5158612433285 1.0
C      1  0.6565403836335  0.2221420933848  0.5244494636407 1.0
C      1  0.7787720711155  0.3436479664434  0.5153108899415 1.0
C      1  0.8168955044676  0.5280850409327  0.5238061721326 1.0
C      1  0.7596798054726  0.6889420003347  0.5156500894874 1.0
C      1  0.3405975842270  0.5868569429460  0.5226310773078 1.0
C      1  0.3477135946404  0.4893773276257  0.5136040914270 1.0
C      1  0.3661459175702  0.3958692644866  0.5370248509013 1.0
C      1  0.4511854174391  0.3531896090337  0.5133677178205 1.0
C      1  0.5428958695279  0.3195091338089  0.5223928029985 1.0
C      1  0.6167316987207  0.3860604415265  0.5120369413901 1.0
C      1  0.6808340871417  0.4619249013517  0.5227017992732 1.0
C      1  0.6485695429455  0.5582898867297  0.5132191066568 1.0
C      1  0.6111851754739  0.6517436274789  0.5213987067383 1.0
C      1  0.5127313977135  0.6876991525781  0.5214933664268 1.0
C      1  0.4253890537089  0.6399744480327  0.5124332167189 1.0
C      1  0.2483549399765  0.6285531770957  0.2854547864469 1.0
C      1  0.2097986722029  0.4705084091710  0.2828411951496 1.0
C      1  0.2671586517503  0.3192997166033  0.2829384932863 1.0
C      1  0.3983640137154  0.2243911350026  0.2829782530606 1.0
C      1  0.5610415321314  0.2203356861234  0.2856330148593 1.0
C      1  0.7036959672307  0.2946059086095  0.2856248681350 1.0
C      1  0.7779745689767  0.4390775915397  0.2851875283670 1.0
C      1  0.7697623998734  0.5994181387258  0.2845570244404 1.0
C      1  0.6676840685047  0.7259344361087  0.2851773097544 1.0
C      1  0.5154528099557  0.7806706753054  0.2849485521457 1.0
C      1  0.3566185279207  0.7473117621287  0.2847282822684 1.0
C      1  0.4976105827059  0.4970039379868  0.4964327968589 1.0
C      1  0.5116961547057  0.5074439808016  0.5789800492316 1.0
C      1  0.4831391851078  0.4843331894747  0.7428930434086 1.0
C      1  0.4996699602018  0.4983748549147  0.3218995752362 1.0
C      1  0.5036543544867  0.5015995376766  0.4067508190651 1.0
C      1  0.5092345966383  0.5044981815391  0.6659387462234 1.0
END
