TITL C-31896-717-10 -8.375 3375.00 -1455.32284885 0 0 180 (C1) n - 1
REM
REM Run started: at 2020.12.25 15:12:02 in /gpfs/home/chem/mssmkc/CARBON/AIRSS/Generating-Clusters/Str-Search/Higher-Symm/Only-C180
REM VASP from code version vasp.5.4.4.18Apr17-6-g9f103f2a35 (build Oct 11 2019 16:45:47) gamma-only
REM
REM
REM
REM
REM ./C.cell (73b75853f6e4503fb4b57bac71549d7d)
REM AIRSS Version 0.9.1 bugfix July 2018 build 013d7b7c2542+ Fri, 06 Jul 2018 19:26:36 +0100
REM compiler GCC version 6.3.0
REM options -cpp -iprefix /gpfs/warwick/csc/orac/software/Core/GCCcore/6.3.0/bin/../lib/gcc/x86_64-pc-linux-gnu/6.3.0/ -mtune=generic -march=x86-64 -g -O0
REM seed -1824858242 691034993 1710151994 1092854494 1848390408 -432641950 -997449069 1777666635 633150718 -1269207757 -2042958333 -1618031428
REM
REM C.POTCAR (d86ddea03c3ceb6dc662c8ad6801f873)
REM 
CELL 1.54180   15.00000   15.00000   15.00000   90.00000   90.00000   90.00000
LATT -1
SFAC C  
C      1  0.1428082621949  0.4530598952870  0.7278094522458 1.0
C      1  0.1473549774239  0.3264525814862  0.3497516065654 1.0
C      1  0.1428908449804  0.7172121424854  0.4267062067544 1.0
C      1  0.1783781494409  0.3694835590645  0.4992857351092 1.0
C      1  0.1760771804936  0.5647514664378  0.3939951705926 1.0
C      1  0.1731155000523  0.5591195926385  0.6131339373690 1.0
C      1  0.4846518389412  0.5845280453882  0.8744740966058 1.0
C      1  0.4885882635712  0.1347189334134  0.3772046551098 1.0
C      1  0.4853288947882  0.7802676572284  0.2426581144464 1.0
C      1  0.4209936795810  0.2665103707520  0.5504465372598 1.0
C      1  0.4237450437189  0.5682285195061  0.2572988720724 1.0
C      1  0.4221569479070  0.6828230780251  0.6853331915434 1.0
C      1  0.7297600070430  0.7354756517139  0.2766911164326 1.0
C      1  0.7279737066752  0.5756986301710  0.8133658402747 1.0
C      1  0.7336982060552  0.1840363285559  0.4025691161970 1.0
C      1  0.2623134060547  0.3365595691895  0.4521480691540 1.0
C      1  0.2571154506056  0.6260562573036  0.3900158090367 1.0
C      1  0.2550024706448  0.5344895150667  0.6672342840491 1.0
C      1  0.6342884547476  0.3643455782297  0.6304733198139 1.0
C      1  0.6575103365641  0.4465980588669  0.3085567718378 1.0
C      1  0.6447339753609  0.6937430595371  0.5585687395705 1.0
C      1  0.4235954919449  0.6556858839562  0.8441296063709 1.0
C      1  0.4265451347633  0.1337884146537  0.4515218199411 1.0
C      1  0.4244561710146  0.7178590234104  0.1974881956183 1.0
C      1  0.7506757359253  0.7640577475632  0.6784706322438 1.0
C      1  0.7433647795490  0.2170986724159  0.6322311062428 1.0
C      1  0.7536474325250  0.5185018944787  0.1798611073543 1.0
C      1  0.8577341961795  0.2682248297328  0.3863272166793 1.0
C      1  0.8475322076615  0.6947391809000  0.3624056532512 1.0
C      1  0.8456418995555  0.5195068013899  0.7367090954450 1.0
C      1  0.5818223098121  0.1530964576791  0.3718009575195 1.0
C      1  0.5785283021904  0.7767717923448  0.2622544707711 1.0
C      1  0.5781292906444  0.5679224339870  0.8616688390406 1.0
C      1  0.6702935875306  0.6621730903549  0.3963465578446 1.0
C      1  0.6656966510654  0.5114915828226  0.6944341910551 1.0
C      1  0.6867926430844  0.3123801383354  0.4085481143896 1.0
C      1  0.5885251981690  0.3838579184809  0.2601398080788 1.0
C      1  0.5820718211736  0.7687094851401  0.5226116186179 1.0
C      1  0.5745305651564  0.3531552924593  0.7164687758144 1.0
C      1  0.5080284672849  0.5277427113669  0.7074605700553 1.0
C      1  0.5280043556549  0.3190439459440  0.4201424251639 1.0
C      1  0.5160507468612  0.6581308785282  0.3791267704980 1.0
C      1  0.6978590454482  0.2472271124527  0.3294198107645 1.0
C      1  0.6899001687860  0.7596669243080  0.3696928022289 1.0
C      1  0.6878557943380  0.4826956503192  0.7909957123184 1.0
C      1  0.3541903529813  0.4214065228381  0.3282218177810 1.0
C      1  0.3504163296470  0.6926277366142  0.5214068297660 1.0
C      1  0.3532538390394  0.3917918547333  0.6602429309917 1.0
C      1  0.1904055221714  0.7770706776966  0.4890090869629 1.0
C      1  0.1925130846617  0.3702000200318  0.7480315648982 1.0
C      1  0.1947215608777  0.3534226559349  0.2677467425905 1.0
C      1  0.2759762722217  0.6284911669202  0.4930534782159 1.0
C      1  0.2766046687010  0.4445450254636  0.6181136269525 1.0
C      1  0.2803916926216  0.4260507358961  0.3997781994314 1.0
C      1  0.5730755177468  0.2498558012244  0.7219968469900 1.0
C      1  0.5825477773347  0.4270614554215  0.1676251452071 1.0
C      1  0.5801903162434  0.8289222187076  0.6062902017154 1.0
C      1  0.3464715911255  0.1570238312101  0.3996746143313 1.0
C      1  0.3461415675247  0.7491267992417  0.2519897995417 1.0
C      1  0.3457300390087  0.5913121060322  0.8439969748844 1.0
C      1  0.7575410832854  0.2683818120015  0.7034130292687 1.0
C      1  0.7707668114192  0.4303499714085  0.1853899067275 1.0
C      1  0.7686463492836  0.7987427402528  0.5976988874513 1.0
C      1  0.5818568421711  0.3724495574879  0.5418053175731 1.0
C      1  0.6208526154879  0.5162651491898  0.3702319469030 1.0
C      1  0.5955213291367  0.6178133921234  0.6002538841023 1.0
C      1  0.6172218694642  0.5667562241532  0.5307466117662 1.0
C      1  0.6315408304438  0.4703772337366  0.5313431195781 1.0
C      1  0.6595795149654  0.4709020362630  0.4395515036842 1.0
C      1  0.2074453441205  0.7803772549516  0.5773663859231 1.0
C      1  0.2122716457919  0.2933694759530  0.7046922986462 1.0
C      1  0.2106986369114  0.4290875213315  0.2222731195742 1.0
C      1  0.4431388244806  0.5994974128854  0.3482398596523 1.0
C      1  0.4355588550905  0.5855633657147  0.6703992004559 1.0
C      1  0.4829197633729  0.3454264720737  0.5112325117370 1.0
C      1  0.7079871455404  0.4042037009408  0.3904682851975 1.0
C      1  0.6826711181973  0.6306007468466  0.4864378962319 1.0
C      1  0.6856930775526  0.4533995647902  0.6179488561517 1.0
C      1  0.1274692935925  0.6283480391727  0.4545384178357 1.0
C      1  0.1273972177171  0.4729705786212  0.6371094229461 1.0
C      1  0.1310274927249  0.3925746959869  0.4141945869305 1.0
C      1  0.4179466807641  0.5200426248075  0.8621047989195 1.0
C      1  0.4211641510194  0.1799822994958  0.3302177678795 1.0
C      1  0.4185564926978  0.7997372204598  0.3054259598939 1.0
C      1  0.7249579821560  0.3174157756448  0.7803941227920 1.0
C      1  0.7346061222545  0.3399623360977  0.1919487943272 1.0
C      1  0.7322771253588  0.8385689575787  0.5161647585476 1.0
C      1  0.4346562799669  0.4288573582900  0.8187400948952 1.0
C      1  0.4403011582912  0.2683084740942  0.2808754196970 1.0
C      1  0.4359266814001  0.8053800131847  0.4064347262944 1.0
C      1  0.7316351734440  0.3188804020000  0.6207448219149 1.0
C      1  0.7527151601468  0.4750311809326  0.2721772651279 1.0
C      1  0.7424420975763  0.7027012193511  0.5972583825222 1.0
C      1  0.2778408697595  0.7797794394856  0.6341243139705 1.0
C      1  0.2853720539732  0.2476563256279  0.6768359823517 1.0
C      1  0.2814178867821  0.4785249932830  0.1954876500153 1.0
C      1  0.3730254275141  0.5961173815173  0.5018760614399 1.0
C      1  0.3719833608281  0.4559289369359  0.5838228200707 1.0
C      1  0.3765025871493  0.4519968862603  0.4221432162890 1.0
C      1  0.4540195921270  0.7135098117276  0.7731369869671 1.0
C      1  0.4550673962357  0.1744552512019  0.5342286180069 1.0
C      1  0.4563361321485  0.6275282435129  0.1857330519537 1.0
C      1  0.8236327461982  0.4607224825562  0.5370508931432 1.0
C      1  0.8323834402694  0.4772978436943  0.4441049589734 1.0
C      1  0.8232520039716  0.5493890159419  0.5072664324344 1.0
C      1  0.3473066916994  0.3012713298651  0.6136310509923 1.0
C      1  0.3438531036451  0.5089892108074  0.2724198376374 1.0
C      1  0.3412774383726  0.6975050794359  0.6264267507237 1.0
C      1  0.3911590808161  0.5521961824763  0.5873340081013 1.0
C      1  0.3999513367711  0.4025721832610  0.5045658810773 1.0
C      1  0.3935489777379  0.5487802817634  0.4174703302727 1.0
C      1  0.3545517453820  0.7661101682902  0.4546148580267 1.0
C      1  0.3553495204931  0.4095989757931  0.7578393046448 1.0
C      1  0.3591963382909  0.3287288178335  0.2940477767682 1.0
C      1  0.3266978160415  0.4484248220508  0.1180634719833 1.0
C      1  0.3233572245129  0.8622359422021  0.6432058976775 1.0
C      1  0.3288537251642  0.1965182062696  0.7437702894075 1.0
C      1  0.7503056071180  0.4064560392647  0.7769593635596 1.0
C      1  0.7620620760095  0.2962503086046  0.2696331440538 1.0
C      1  0.7531881533085  0.7868827496455  0.4417867975919 1.0
C      1  0.6026988798196  0.2250837602318  0.3151324335184 1.0
C      1  0.5977336667873  0.7899955761868  0.3535119329453 1.0
C      1  0.5963564669764  0.4815857358991  0.8281909464217 1.0
C      1  0.6691520418310  0.1608966748855  0.6110672185656 1.0
C      1  0.6770452610340  0.5663186135039  0.1474781279710 1.0
C      1  0.6748361401749  0.7728803019436  0.7362820698129 1.0
C      1  0.8345083883379  0.3354900348655  0.3290368835622 1.0
C      1  0.8185102038916  0.7101447051995  0.4474197051147 1.0
C      1  0.8178804366411  0.4373714257421  0.7090698740646 1.0
C      1  0.1844912694656  0.6061526464804  0.5360275999233 1.0
C      1  0.1868642734422  0.4141471830849  0.5782726143273 1.0
C      1  0.1886178482827  0.4744114347352  0.3955524106693 1.0
C      1  0.4416726270395  0.8948007855426  0.4532754176449 1.0
C      1  0.4405745867060  0.3443371004359  0.8734893383886 1.0
C      1  0.4427921565032  0.2657929577642  0.1802021693133 1.0
C      1  0.2596182266829  0.5865393437234  0.8192828063323 1.0
C      1  0.2621754474684  0.1809969792617  0.4159871368201 1.0
C      1  0.2603840277458  0.7284006026848  0.2671406029667 1.0
C      1  0.6296338883754  0.7150131685664  0.8011025376124 1.0
C      1  0.6271150460574  0.1306320397280  0.5287005757944 1.0
C      1  0.6316741447937  0.6519920173870  0.1653948939228 1.0
C      1  0.3753409627062  0.9168715137521  0.6081967797361 1.0
C      1  0.3774884321942  0.2003289890689  0.8109659446264 1.0
C      1  0.3776210609218  0.3910603969216  0.0859724483337 1.0
C      1  0.6510231591322  0.7259996754251  0.2191076988444 1.0
C      1  0.6497178800572  0.6306421777488  0.8368853350887 1.0
C      1  0.6521276624850  0.1394075254605  0.4384962649067 1.0
C      1  0.5232916250948  0.4412345180937  0.7658614641677 1.0
C      1  0.5333506093700  0.3035690551276  0.3154591938207 1.0
C      1  0.5269898315605  0.7556497734377  0.4211479865143 1.0
C      1  0.7861387776624  0.6417805593285  0.5186372576102 1.0
C      1  0.7827636782154  0.4119005941441  0.6137205224249 1.0
C      1  0.8037753957964  0.4327739551345  0.3574179937047 1.0
C      1  0.3299743613829  0.5958268975850  0.6525567589689 1.0
C      1  0.3402675588074  0.3198463347335  0.5136128448599 1.0
C      1  0.3328808735688  0.5820086884068  0.3457805815031 1.0
C      1  0.6378782157120  0.8501408632655  0.5372457491606 1.0
C      1  0.6303270053739  0.2963555710141  0.7768978864556 1.0
C      1  0.6397741130712  0.3560418459680  0.1787629842535 1.0
C      1  0.5948318006811  0.6123501302332  0.3672898038626 1.0
C      1  0.5866547869656  0.5635057156725  0.6793992648484 1.0
C      1  0.6085823051354  0.3178389259225  0.4607216522152 1.0
C      1  0.2254639962487  0.7221123842524  0.3571845834709 1.0
C      1  0.2242386926046  0.5134004632935  0.7669267398137 1.0
C      1  0.2296026036926  0.2634515041244  0.3785233973510 1.0
C      1  0.5919853354577  0.5193444356572  0.1455944874837 1.0
C      1  0.5902101932019  0.8012032595022  0.6974343083715 1.0
C      1  0.5839063304869  0.1854201543458  0.6525819768660 1.0
C      1  0.4157095370806  0.9229491342309  0.5267875592722 1.0
C      1  0.4163994036932  0.2663070667612  0.8598302646800 1.0
C      1  0.4176053725091  0.3165541302065  0.1199164031736 1.0
C      1  0.5415770566292  0.7471796761027  0.7653505960022 1.0
C      1  0.5385249330123  0.1555276205130  0.5705343426261 1.0
C      1  0.5437779704361  0.6046880180750  0.1592425803595 1.0
C      1  0.8198023219182  0.7178697982660  0.2834819718754 1.0
C      1  0.8185884886175  0.5784445468213  0.7944194036501 1.0
C      1  0.8273003053670  0.1911884943982  0.4113878010143 1.0
C      1  0.2668303554809  0.7880921558682  0.4277197675537 1.0
C      1  0.2669824492967  0.4190935098417  0.7887301487453 1.0
C      1  0.2714781071019  0.2947103749763  0.2880439872041 1.0
END
