TITL C-31273-9599-14 -3.152 3375.00 -524.89137095 0 0 66 (C2) n - 1
REM
REM Run started: at 2020.12.29 04:45:10 in /gpfs/home/chem/mssmkc/CARBON/AIRSS/Generating-Clusters/Str-Search/Higher-Symm/C4-100
REM VASP from code version vasp.5.4.4.18Apr17-6-g9f103f2a35 (build Oct 11 2019 16:45:47) gamma-only
REM
REM
REM
REM
REM ./C.cell (6bd13a13d554368a30d355f37ece5b26)
REM AIRSS Version 0.9.1 bugfix July 2018 build 013d7b7c2542+ Fri, 06 Jul 2018 19:26:36 +0100
REM compiler GCC version 6.3.0
REM options -cpp -iprefix /gpfs/warwick/csc/orac/software/Core/GCCcore/6.3.0/bin/../lib/gcc/x86_64-pc-linux-gnu/6.3.0/ -mtune=generic -march=x86-64 -g -O0
REM seed -1138373926 -1829993025 1893015759 136462509 -1632007337 -164715785 -1816896800 -1076475079 -1078642453 -1442842596 206515913 -346434559
REM
REM C.POTCAR (d86ddea03c3ceb6dc662c8ad6801f873)
REM 
CELL 1.54180   15.00000   15.00000   15.00000   90.00000   90.00000   90.00000
LATT -1
SFAC C  
C      1  0.5132965774397  0.2125464263523  0.4647931552990 1.0
C      1  0.4867086142625  0.7874515408598  0.4647799146606 1.0
C      1  0.4357982349602  0.2331333107158  0.4100280422293 1.0
C      1  0.5642150967877  0.7668600338579  0.4100196249656 1.0
C      1  0.2412165136706  0.5002898834419  0.5653904518318 1.0
C      1  0.7587760446202  0.4997057756399  0.5654097685575 1.0
C      1  0.4483151885876  0.2101380951202  0.5422691891488 1.0
C      1  0.5516963579339  0.7898612522715  0.5422545665846 1.0
C      1  0.4859063324433  0.3516357585041  0.6141305859616 1.0
C      1  0.5140883242398  0.6483703009918  0.6141242437289 1.0
C      1  0.2735816884917  0.3448610657780  0.5458084007894 1.0
C      1  0.7264202706478  0.6551365434657  0.5458108497319 1.0
C      1  0.7174122476935  0.3557641234414  0.4941788840119 1.0
C      1  0.2825871190208  0.6442382628306  0.4941682146638 1.0
C      1  0.5430865845469  0.6105533237268  0.4666365062591 1.0
C      1  0.4569138587719  0.3894466264480  0.4666407601934 1.0
C      1  0.7092279079651  0.5258668584082  0.6402105714979 1.0
C      1  0.2907580975286  0.4741374833442  0.6401972796940 1.0
C      1  0.5029502845950  0.6014274543870  0.3280707504611 1.0
C      1  0.4970550027552  0.3985700663719  0.3280741503128 1.0
C      1  0.7545209605316  0.5875068048492  0.4062324981779 1.0
C      1  0.2454825749685  0.4124792876467  0.4062217039388 1.0
C      1  0.5651336742616  0.6700214789551  0.3789660986236 1.0
C      1  0.4348689642995  0.3299755741415  0.3789713055373 1.0
C      1  0.4682536441932  0.5539603391768  0.7330709594438 1.0
C      1  0.5317342904997  0.4460573977027  0.7330765928981 1.0
C      1  0.5537944635679  0.4826363908162  0.5668127062602 1.0
C      1  0.4462014594744  0.5173712906240  0.5668082312059 1.0
C      1  0.4709448871447  0.2643054876661  0.6116634276410 1.0
C      1  0.5290566999763  0.7357005801982  0.6116576105990 1.0
C      1  0.7311951898668  0.6849595231675  0.3994354653414 1.0
C      1  0.2688130818383  0.3150306644701  0.3994354570256 1.0
C      1  0.5351750411641  0.5341731770931  0.2649129705892 1.0
C      1  0.4648233540735  0.4658190940552  0.2649134692187 1.0
C      1  0.6284313367272  0.7809462932836  0.4811287716146 1.0
C      1  0.3715757215451  0.2190528705252  0.4811359634153 1.0
C      1  0.4100148711175  0.7445690768753  0.4624852395664 1.0
C      1  0.5899893023707  0.2554317901958  0.4624974787741 1.0
C      1  0.3413892872376  0.3479833058748  0.3513389382903 1.0
C      1  0.6586189638544  0.6520058265986  0.3513424962817 1.0
C      1  0.2384315378584  0.4250276562646  0.5011498550749 1.0
C      1  0.7615680384655  0.5749663958950  0.5011595696482 1.0
C      1  0.6652675637940  0.6113622971100  0.6129816045869 1.0
C      1  0.3347257847226  0.3886428712902  0.6129789573646 1.0
C      1  0.6267256737555  0.3350398157763  0.4774236476895 1.0
C      1  0.3732747700716  0.6649625816215  0.4774143980232 1.0
C      1  0.7617920982634  0.4115659945434  0.5352157539847 1.0
C      1  0.2382044283272  0.5884337857817  0.5351940439301 1.0
C      1  0.7063916074898  0.7241979450788  0.4845449708675 1.0
C      1  0.2936146935234  0.2757945266699  0.4845465659384 1.0
C      1  0.4403088417076  0.5860143558170  0.4847404207686 1.0
C      1  0.5596896030816  0.4139867658838  0.4847477126618 1.0
C      1  0.6270634433877  0.5089818865670  0.2846558763908 1.0
C      1  0.3729434996187  0.4910078325165  0.2846512260582 1.0
C      1  0.3514489444618  0.4353727064606  0.7029961076960 1.0
C      1  0.6485376369680  0.5646409590847  0.7030031771637 1.0
C      1  0.4525511426136  0.5826306856172  0.6465169145847 1.0
C      1  0.5474421395397  0.4173810089375  0.6465240685036 1.0
C      1  0.5116495625821  0.4528117260992  0.4093700029615 1.0
C      1  0.4883528114824  0.5471896615876  0.4093656420551 1.0
C      1  0.4180840583829  0.4144021791319  0.5584348644955 1.0
C      1  0.5819143090257  0.5856007355552  0.5584345739472 1.0
C      1  0.3133388894423  0.4380811327629  0.3304821948749 1.0
C      1  0.6866666726002  0.5619034462650  0.3304850961210 1.0
C      1  0.5681394504692  0.5373149165899  0.7439409153250 1.0
C      1  0.4318446826904  0.4627056912198  0.7439385442589 1.0
END
