TITL C-31896-717-8 -8.411 3375.00 -1447.82970252 0 0 180 (C4) n - 1
REM
REM Run started: at 2020.12.25 12:59:37 in /gpfs/home/chem/mssmkc/CARBON/AIRSS/Generating-Clusters/Str-Search/Higher-Symm/Only-C180
REM VASP from code version vasp.5.4.4.18Apr17-6-g9f103f2a35 (build Oct 11 2019 16:45:47) gamma-only
REM
REM
REM
REM
REM ./C.cell (73b75853f6e4503fb4b57bac71549d7d)
REM AIRSS Version 0.9.1 bugfix July 2018 build 013d7b7c2542+ Fri, 06 Jul 2018 19:26:36 +0100
REM compiler GCC version 6.3.0
REM options -cpp -iprefix /gpfs/warwick/csc/orac/software/Core/GCCcore/6.3.0/bin/../lib/gcc/x86_64-pc-linux-gnu/6.3.0/ -mtune=generic -march=x86-64 -g -O0
REM seed 1647480598 281741431 -1488261920 -1072608545 1688547282 153228598 1984535979 1607863617 429920464 864175263 578415409 -435305745
REM
REM C.POTCAR (d86ddea03c3ceb6dc662c8ad6801f873)
REM 
CELL 1.54180   15.00000   15.00000   15.00000   90.00000   90.00000   90.00000
LATT -1
SFAC C  
C      1  0.4015449666546  0.5620058139016  0.5479625071342 1.0
C      1  0.4015447371446  0.4520376764224  0.5620087968505 1.0
C      1  0.4015456135893  0.4379898035305  0.4520385367899 1.0
C      1  0.4015454886972  0.5479625035506  0.4379933632336 1.0
C      1  0.5975404815126  0.5629504266381  0.5461774418583 1.0
C      1  0.5975389703110  0.4538180424323  0.5629496183600 1.0
C      1  0.5975363225868  0.4370455948860  0.4538203449509 1.0
C      1  0.5975384663169  0.5461770368414  0.4370449739951 1.0
C      1  0.6877230218752  0.4024227543939  0.5777231529011 1.0
C      1  0.6877176423447  0.4222712656470  0.4024222131008 1.0
C      1  0.6877210571571  0.5975732085178  0.4222687439796 1.0
C      1  0.6877236035245  0.5777257296075  0.5975692364960 1.0
C      1  0.3111445087712  0.4017077768784  0.5759721794683 1.0
C      1  0.3111454750422  0.4240297107522  0.4017078481078 1.0
C      1  0.3111457759978  0.5982909692013  0.4240290518252 1.0
C      1  0.3111444725842  0.5759710640897  0.5982921689476 1.0
C      1  0.5795934634865  0.3111347818642  0.7797957345906 1.0
C      1  0.5795886466522  0.2202047227582  0.3111290338170 1.0
C      1  0.5795978961991  0.6888757849811  0.2202039355934 1.0
C      1  0.5795994560464  0.7797970847815  0.6888700580497 1.0
C      1  0.4145659173402  0.2883717167963  0.7727648357499 1.0
C      1  0.4145638597041  0.2272400369101  0.2883617899599 1.0
C      1  0.4145712894275  0.7116446628389  0.2272520177162 1.0
C      1  0.4145742732860  0.7727546413255  0.7116382134103 1.0
C      1  0.6712052112307  0.3191195899085  0.5315524502173 1.0
C      1  0.6711947760477  0.4684438133992  0.3191174472461 1.0
C      1  0.6711987337169  0.6808727854744  0.4684408752982 1.0
C      1  0.6712062215063  0.5315572101149  0.6808706236647 1.0
C      1  0.3256274094212  0.3194347610902  0.5265884481853 1.0
C      1  0.3256314786427  0.4734120815310  0.3194344089727 1.0
C      1  0.3256295641358  0.6805636052604  0.4734138036768 1.0
C      1  0.3256265409525  0.5265867842751  0.6805647661160 1.0
C      1  0.5950148509360  0.7174532054774  0.5020987109604 1.0
C      1  0.5950188764953  0.4979028070825  0.7174494795141 1.0
C      1  0.5950194888050  0.2825408473492  0.4979005759835 1.0
C      1  0.5950200571970  0.5020994477959  0.2825390636759 1.0
C      1  0.4019262433907  0.7172827214926  0.5069628683601 1.0
C      1  0.4019242911204  0.4930384890238  0.7172842718082 1.0
C      1  0.4019232892616  0.2827135230716  0.4930389806193 1.0
C      1  0.4019289334898  0.5069609406279  0.2827137848818 1.0
C      1  0.7732835890484  0.5558996677511  0.4572057159011 1.0
C      1  0.7732860816395  0.5427873673420  0.5558960922636 1.0
C      1  0.7732850716559  0.4440969382647  0.5427829013964 1.0
C      1  0.7732825707925  0.4572105429008  0.4440928666322 1.0
C      1  0.2252400950398  0.5560651911624  0.4576385886072 1.0
C      1  0.2252394914971  0.5423626507783  0.5560654408484 1.0
C      1  0.2252399652960  0.4439362405262  0.5423620424529 1.0
C      1  0.2252410690182  0.4576402577636  0.4439362424170 1.0
C      1  0.4495490875099  0.3891115904949  0.1588265520760 1.0
C      1  0.4495479725144  0.8411814021633  0.3891248885730 1.0
C      1  0.4495484850758  0.6108822833607  0.8411730438848 1.0
C      1  0.4495474425441  0.1588357274064  0.6108952388387 1.0
C      1  0.5498201519470  0.3841628148300  0.1576698031901 1.0
C      1  0.5498219455453  0.8423333098025  0.3841731470612 1.0
C      1  0.5498223070203  0.6158334136678  0.8423232175015 1.0
C      1  0.5498195403455  0.1576774583782  0.6158433916209 1.0
C      1  0.8434542902779  0.4797934540015  0.3098484199164 1.0
C      1  0.8434568354264  0.6901406025782  0.4797907189927 1.0
C      1  0.8434561384395  0.5202018801196  0.6901401070856 1.0
C      1  0.8434544852771  0.3098528822150  0.5201979051730 1.0
C      1  0.1559365530830  0.4815859083016  0.3098760615945 1.0
C      1  0.1559345041925  0.6901261207221  0.4815854717678 1.0
C      1  0.1559327708382  0.5184149733028  0.6901267744505 1.0
C      1  0.1559330792026  0.3098751470823  0.5184143345901 1.0
C      1  0.2070196290780  0.2287328116290  0.5463989552742 1.0
C      1  0.2070291307626  0.4536017522822  0.2287373009370 1.0
C      1  0.2070274594944  0.7712662693567  0.4536061200535 1.0
C      1  0.2070220670688  0.5463963940662  0.7712675156946 1.0
C      1  0.7924276582609  0.2290334938516  0.5489794038354 1.0
C      1  0.7924239659537  0.4510170604586  0.2290338464253 1.0
C      1  0.7924259501609  0.7709554158238  0.4510151776003 1.0
C      1  0.7924251374686  0.5489805972438  0.7709558058593 1.0
C      1  0.3918834602641  0.4401654141486  0.2117077468975 1.0
C      1  0.3918834217541  0.7882930369699  0.4401718281280 1.0
C      1  0.3918794200263  0.5598298057573  0.7882938551655 1.0
C      1  0.3918794673318  0.2117086730551  0.5598366009556 1.0
C      1  0.6086462296686  0.4383340859108  0.2086639347450 1.0
C      1  0.6086438670332  0.7913326325439  0.4383343981054 1.0
C      1  0.6086448994665  0.5616703067000  0.7913246450844 1.0
C      1  0.6086450290534  0.2086694179243  0.5616716715055 1.0
C      1  0.3905761477916  0.1945370093620  0.7685995151079 1.0
C      1  0.3905718961950  0.2314068113573  0.1945285921894 1.0
C      1  0.3905779603330  0.8054779084342  0.2314221491269 1.0
C      1  0.3905817374118  0.7685851820487  0.8054710754063 1.0
C      1  0.5640275066448  0.2282019092675  0.8257424633399 1.0
C      1  0.5640254525086  0.1742621491792  0.2281947147201 1.0
C      1  0.5640315143221  0.7718167582046  0.1742658084848 1.0
C      1  0.5640332389658  0.8257374633300  0.7718098695770 1.0
C      1  0.2145494562769  0.4763315728720  0.8306734025570 1.0
C      1  0.2145445882232  0.1693334215240  0.4763299367134 1.0
C      1  0.2145606801324  0.5236644418310  0.1693331206297 1.0
C      1  0.2145561597781  0.8306746871034  0.5236690619103 1.0
C      1  0.7853909043130  0.4797114738636  0.8313109712681 1.0
C      1  0.7853921616539  0.1686824070995  0.4797067971123 1.0
C      1  0.7853787564669  0.5202875777445  0.1686879472288 1.0
C      1  0.7853865414801  0.8313067149290  0.5202806393794 1.0
C      1  0.7027057943479  0.5955809101604  0.7491807847767 1.0
C      1  0.7027053839316  0.2508116811601  0.5955782022604 1.0
C      1  0.7027011885259  0.4044190107225  0.2508126938315 1.0
C      1  0.7027026300171  0.7491801791225  0.4044187077147 1.0
C      1  0.2968776700100  0.5921521068495  0.7483197206557 1.0
C      1  0.2968768382281  0.2516814642781  0.5921536422309 1.0
C      1  0.2968844677650  0.4078437287483  0.2516824758912 1.0
C      1  0.2968820897397  0.7483185851337  0.4078469206894 1.0
C      1  0.3931263428749  0.2991599850506  0.3433074312901 1.0
C      1  0.3931304688386  0.6566953413300  0.2991643894015 1.0
C      1  0.3931288388602  0.7008349985286  0.6566910243530 1.0
C      1  0.3931260565550  0.3433124372288  0.7008397811041 1.0
C      1  0.6063907139599  0.2978767037128  0.3484516302816 1.0
C      1  0.6063964959945  0.6515481916248  0.2978729569499 1.0
C      1  0.6064002737884  0.7021257453461  0.6515448904487 1.0
C      1  0.6063983930746  0.3484534638479  0.7021208132706 1.0
C      1  0.8415365352690  0.6710006446211  0.5807322646941 1.0
C      1  0.8415375273175  0.4192627509318  0.6710005072827 1.0
C      1  0.8415309896501  0.3289938227299  0.4192608265310 1.0
C      1  0.8415312411213  0.5807351233424  0.3289919146868 1.0
C      1  0.1578621879861  0.6701671287464  0.5820682214316 1.0
C      1  0.1578618712648  0.4179354559963  0.6701678779432 1.0
C      1  0.1578641883816  0.3298332082898  0.4179353275822 1.0
C      1  0.1578638729957  0.5820659564978  0.3298326029087 1.0
C      1  0.3014824718949  0.3394327716159  0.3354625738022 1.0
C      1  0.3014828898838  0.6645390652926  0.3394338731173 1.0
C      1  0.3014811367721  0.6605660286625  0.6645401731320 1.0
C      1  0.3014794320009  0.3354631138185  0.6605693706473 1.0
C      1  0.6978841397458  0.3362832101960  0.3365436125485 1.0
C      1  0.6978880335261  0.6634524624700  0.3362842800384 1.0
C      1  0.6978924968757  0.6637143456822  0.6634479930777 1.0
C      1  0.6978925474852  0.3365469796270  0.6637119290341 1.0
C      1  0.7702711344512  0.1930809241560  0.3998812179604 1.0
C      1  0.7702608761533  0.6001234455345  0.1930831822117 1.0
C      1  0.7702725537654  0.8069096192595  0.6001137559908 1.0
C      1  0.7702791517580  0.3998873733246  0.8069084408418 1.0
C      1  0.2300334247927  0.1942742556954  0.3965829623412 1.0
C      1  0.2300397131678  0.6034144281466  0.1942775080541 1.0
C      1  0.2300339847303  0.8057238581430  0.6034167567391 1.0
C      1  0.2300290149269  0.3965833304622  0.8057287748792 1.0
C      1  0.2219245341896  0.6358903473203  0.2802132249138 1.0
C      1  0.2219225162146  0.7197865711154  0.6358925007431 1.0
C      1  0.2219202451421  0.3641101480166  0.7197882248741 1.0
C      1  0.2219242439850  0.2802140977801  0.3641118629531 1.0
C      1  0.7781528165481  0.6342979226849  0.2782352119787 1.0
C      1  0.7781608851650  0.7217594156882  0.6342994677407 1.0
C      1  0.7781632157543  0.3656945735624  0.7217582155588 1.0
C      1  0.7781523107368  0.2782338211345  0.3656993702579 1.0
C      1  0.5902171591689  0.2998622639879  0.1407764654377 1.0
C      1  0.5902201231851  0.8592289169913  0.2998741057175 1.0
C      1  0.5902229415726  0.7001314209051  0.8592203272241 1.0
C      1  0.5902192704786  0.1407838655371  0.7001432489462 1.0
C      1  0.4115802454229  0.3039070960987  0.1364946089760 1.0
C      1  0.4115833597189  0.8635136657196  0.3039180251052 1.0
C      1  0.4115847322709  0.6960899628960  0.8635088847618 1.0
C      1  0.4115808874874  0.1365019366776  0.6961013205558 1.0
C      1  0.5511953552706  0.1425493355231  0.7829501265355 1.0
C      1  0.5511948717885  0.2170553113173  0.1425430663075 1.0
C      1  0.5511978054207  0.8574666782678  0.2170676297736 1.0
C      1  0.5511999875718  0.7829380553588  0.8574599019241 1.0
C      1  0.4555716682568  0.1249712207401  0.7780806946137 1.0
C      1  0.4555720674969  0.2219269068499  0.1249652130378 1.0
C      1  0.4555776747963  0.8750419652183  0.2219400172745 1.0
C      1  0.4555787172882  0.7780660100554  0.8750358586963 1.0
C      1  0.5510164064340  0.3409883570252  0.4261314737588 1.0
C      1  0.5510172968127  0.5738704673642  0.3409866922380 1.0
C      1  0.5510183449559  0.6590100462658  0.5738699247145 1.0
C      1  0.5510208295043  0.4261304407607  0.6590052643055 1.0
C      1  0.4482683324865  0.3406268629627  0.4230396143458 1.0
C      1  0.4482689399263  0.5769621784407  0.3406287986668 1.0
C      1  0.4482681940563  0.6593658156891  0.5769611226726 1.0
C      1  0.4482685299484  0.4230409988093  0.6593648974891 1.0
C      1  0.8450790243695  0.5779963713123  0.6109667581505 1.0
C      1  0.8450757213798  0.3890256651729  0.5779942730823 1.0
C      1  0.8450746738509  0.4219979723148  0.3890233107611 1.0
C      1  0.8450799315368  0.6109655880222  0.4219979116594 1.0
C      1  0.1533819903943  0.5769164312003  0.6114928640037 1.0
C      1  0.1533837361083  0.3885076510440  0.5769180633554 1.0
C      1  0.1533849034959  0.4230837005197  0.3885071869318 1.0
C      1  0.1533844768625  0.6114933289816  0.4230834734257 1.0
C      1  0.4962945980618  0.7047601170772  0.1766120813546 1.0
C      1  0.4962971021959  0.8233902977579  0.7047516417717 1.0
C      1  0.4962910447951  0.2952594880297  0.8233958343615 1.0
C      1  0.4962856342949  0.1766049724081  0.2952490324986 1.0
END
