TITL C-31273-9599-175 -4.749 3375.00 -771.17834759 0 0 95 (C1) n - 1
REM
REM Run started: at 2020.12.30 11:48:22 in /gpfs/home/chem/mssmkc/CARBON/AIRSS/Generating-Clusters/Str-Search/Higher-Symm/C4-100
REM VASP from code version vasp.5.4.4.18Apr17-6-g9f103f2a35 (build Oct 11 2019 16:45:47) gamma-only
REM
REM
REM
REM
REM ./C.cell (6bd13a13d554368a30d355f37ece5b26)
REM AIRSS Version 0.9.1 bugfix July 2018 build 013d7b7c2542+ Fri, 06 Jul 2018 19:26:36 +0100
REM compiler GCC version 6.3.0
REM options -cpp -iprefix /gpfs/warwick/csc/orac/software/Core/GCCcore/6.3.0/bin/../lib/gcc/x86_64-pc-linux-gnu/6.3.0/ -mtune=generic -march=x86-64 -g -O0
REM seed -915548931 -1506571658 -2114586914 1062017792 -1662037861 282825722 -984675949 -2130749353 963980735 -1817844084 -1944934057 -1919862104
REM
REM C.POTCAR (d86ddea03c3ceb6dc662c8ad6801f873)
REM 
CELL 1.54180   15.00000   15.00000   15.00000   90.00000   90.00000   90.00000
LATT -1
SFAC C  
C      1  0.6126384401950  0.6591194850137  0.4704637959146 1.0
C      1  0.6369071892818  0.6021038527762  0.3944958231698 1.0
C      1  0.6329088071577  0.3406802230985  0.4797157944074 1.0
C      1  0.6279165547220  0.3502199160024  0.5750077427896 1.0
C      1  0.6580774331829  0.5706016536082  0.6529087077283 1.0
C      1  0.3923819277820  0.6416442425297  0.4692896933386 1.0
C      1  0.3828484122844  0.5766651383445  0.3955447806246 1.0
C      1  0.4214933866008  0.3410675988891  0.4764262459276 1.0
C      1  0.4252816925990  0.3572826377377  0.5699926246268 1.0
C      1  0.3699971074161  0.5023127348562  0.6614526280888 1.0
C      1  0.6198363740247  0.3404123473253  0.7371860493063 1.0
C      1  0.6572563022124  0.6558680059073  0.6932487483688 1.0
C      1  0.6262891573684  0.7988371060236  0.4093340611755 1.0
C      1  0.7085270847862  0.4211321409977  0.2508381378133 1.0
C      1  0.6093562972637  0.1850801504795  0.4682003943825 1.0
C      1  0.3588278291025  0.4097370399437  0.6993816370797 1.0
C      1  0.3595518844706  0.6595514339752  0.7216204415078 1.0
C      1  0.3335074905752  0.7735537732017  0.4065888424891 1.0
C      1  0.3245407279939  0.4906385483299  0.2638083028802 1.0
C      1  0.3478138657104  0.2927348152676  0.4481802615977 1.0
C      1  0.5864637308410  0.4305130444229  0.4622871298089 1.0
C      1  0.5840983559616  0.4392082603644  0.5669829991218 1.0
C      1  0.6107627546027  0.5309201252914  0.5875634459660 1.0
C      1  0.5665531993096  0.5826404957887  0.5154822067806 1.0
C      1  0.6048246116437  0.5260316319418  0.4388601380987 1.0
C      1  0.4747754836467  0.4270132454063  0.4588250316108 1.0
C      1  0.4775466694338  0.4368031879408  0.5630099490546 1.0
C      1  0.4279714227456  0.5162176329213  0.5906988917689 1.0
C      1  0.4572215336388  0.5785843410697  0.5174721843032 1.0
C      1  0.4364733535647  0.5157925141138  0.4380448506733 1.0
C      1  0.4656740055137  0.4347555448694  0.1987043642783 1.0
C      1  0.3786538487662  0.1470402102178  0.4896107621377 1.0
C      1  0.4178600318310  0.3571089855606  0.8408321274852 1.0
C      1  0.4053034903354  0.7372538913767  0.7443003600332 1.0
C      1  0.3914418294775  0.8259866853310  0.3514597848536 1.0
C      1  0.6266397698110  0.4074508201704  0.2088088465137 1.0
C      1  0.5396406841164  0.1250222437033  0.4868082439526 1.0
C      1  0.5753638529296  0.3450195586141  0.8206215419995 1.0
C      1  0.5604667157150  0.7688868682240  0.7386956621322 1.0
C      1  0.5573995731875  0.8383117105094  0.3568011607654 1.0
C      1  0.4910074206242  0.1884591362025  0.6717078884490 1.0
C      1  0.5387347450284  0.5387087080337  0.8547260905665 1.0
C      1  0.5311557426937  0.8386510915866  0.5779661907877 1.0
C      1  0.5306518947825  0.6766800693355  0.2311612764804 1.0
C      1  0.5283981942235  0.2592640602765  0.2987587178457 1.0
C      1  0.4073227654369  0.1901770181582  0.6656785877667 1.0
C      1  0.4558379134195  0.5427013753724  0.8624969135344 1.0
C      1  0.4488069732990  0.8260318421371  0.5742840392962 1.0
C      1  0.4472934393709  0.6699456371889  0.2313591577137 1.0
C      1  0.4490868244995  0.2807435248427  0.2895861517591 1.0
C      1  0.9098530409304  0.5306094934736  0.3598370663834 1.0
C      1  0.8334150235649  0.5795699605049  0.3498475684428 1.0
C      1  0.7597033600916  0.5825296906540  0.2890668421806 1.0
C      1  0.7761338912097  0.4828408005776  0.2686371242406 1.0
C      1  0.8513184312954  0.4705215712534  0.3242250333711 1.0
C      1  0.1982875350652  0.4320922012851  0.4486580135644 1.0
C      1  0.2082902950666  0.5151369108327  0.4241931534147 1.0
C      1  0.2268628854594  0.5584639682282  0.3445981627028 1.0
C      1  0.2446103359634  0.4682143182619  0.3038704523345 1.0
C      1  0.2396251621071  0.3931020733307  0.3696231980635 1.0
C      1  0.6043608414922  0.7806519884320  0.5836435433623 1.0
C      1  0.6137020268231  0.6905770134160  0.2695852222183 1.0
C      1  0.6154864010079  0.2798177908945  0.3271600577994 1.0
C      1  0.5767019413897  0.2064188788400  0.6399761065970 1.0
C      1  0.6168958149417  0.5155451776510  0.8082436764962 1.0
C      1  0.3766207515277  0.7678349547351  0.5742434803907 1.0
C      1  0.3638494680501  0.6692689472826  0.2711733243090 1.0
C      1  0.3748136294916  0.3373022227771  0.2921288222541 1.0
C      1  0.3474520337569  0.2415891756616  0.6135897903690 1.0
C      1  0.3821074292580  0.5165428482345  0.8110873543640 1.0
C      1  0.3096412807197  0.3285710229644  0.3640692758830 1.0
C      1  0.3653576443315  0.3369802348585  0.6367733584342 1.0
C      1  0.3566525399077  0.5665799616286  0.7335498461004 1.0
C      1  0.3564165984772  0.7239960774825  0.4877845805108 1.0
C      1  0.3271110419916  0.5818800463154  0.3115566402094 1.0
C      1  0.6334043939053  0.2648002694735  0.4217909675087 1.0
C      1  0.6202529082314  0.2964475862688  0.6545104564756 1.0
C      1  0.6565757805380  0.5770919175370  0.7467199072020 1.0
C      1  0.6276034748662  0.7466613664584  0.4935198763509 1.0
C      1  0.6742042941877  0.6201887439438  0.3078387470159 1.0
C      1  0.3310931828567  0.2215057530976  0.5192201014058 1.0
C      1  0.3686055962338  0.4198788617898  0.7936315285145 1.0
C      1  0.3625528830918  0.7308891932776  0.6593119192025 1.0
C      1  0.3436293172846  0.7486207598833  0.3169519723522 1.0
C      1  0.3861070033339  0.4219275380289  0.2429882132229 1.0
C      1  0.5915815216695  0.1635962431568  0.5578445928300 1.0
C      1  0.6231115563573  0.4200815334547  0.7928740783102 1.0
C      1  0.6211372447912  0.7420649789874  0.6727164430869 1.0
C      1  0.6182894762490  0.7707957692432  0.3199554397919 1.0
C      1  0.6571719686082  0.3449141677058  0.2730190695168 1.0
C      1  0.4936861993608  0.3290597934978  0.8602467688551 1.0
C      1  0.4851940925295  0.7716255997020  0.7738449858312 1.0
C      1  0.5451462125664  0.4302476931690  0.1761528696488 1.0
C      1  0.4507719782153  0.1084134915548  0.4722416460762 1.0
C      1  0.4720132160236  0.8633849049145  0.3602191140513 1.0
END
