TITL C-31937-2793-3 -7.252 3375.00 -1171.85651838 0 0 144 (S8) n - 1
REM
REM Run started: at 2021.01.04 06:22:44 in /gpfs/home/chem/mssmkc/CARBON/AIRSS/Generating-Clusters/Str-Search/Higher-Symm/C100-200
REM VASP from code version vasp.5.4.4.18Apr17-6-g9f103f2a35 (build Oct 11 2019 16:45:47) gamma-only
REM
REM
REM
REM
REM ./C.cell (533062f00bc710175b3da973d35f2034)
REM AIRSS Version 0.9.1 bugfix July 2018 build 013d7b7c2542+ Fri, 06 Jul 2018 19:26:36 +0100
REM compiler GCC version 6.3.0
REM options -cpp -iprefix /gpfs/warwick/csc/orac/software/Core/GCCcore/6.3.0/bin/../lib/gcc/x86_64-pc-linux-gnu/6.3.0/ -mtune=generic -march=x86-64 -g -O0
REM seed 1445514387 -728658323 -79569788 98798547 -1481307243 -1635814219 1066814572 1227618106 1163567902 -18968502 961522315 -2039594902
REM
REM C.POTCAR (d86ddea03c3ceb6dc662c8ad6801f873)
REM 
CELL 1.54180   15.00000   15.00000   15.00000   90.00000   90.00000   90.00000
LATT -1
SFAC C  
C      1  0.5730087757034  0.5206988991234  0.3757864128359 1.0
C      1  0.5663221631304  0.4632877479208  0.6240847406504 1.0
C      1  0.5206993687643  0.4269905557561  0.3757861391603 1.0
C      1  0.4632878506812  0.4336767734754  0.6240846754059 1.0
C      1  0.4269909863136  0.4793012622325  0.3757860911463 1.0
C      1  0.4336774123165  0.5367111336612  0.6240847242559 1.0
C      1  0.4793007561315  0.5730096615096  0.3757867184575 1.0
C      1  0.5367115777214  0.5663223265837  0.6240848619154 1.0
C      1  0.5509997902954  0.7285132026217  0.7402594226106 1.0
C      1  0.6974963769503  0.6256912625942  0.2597800949202 1.0
C      1  0.7285134108204  0.4489998240774  0.7402569409831 1.0
C      1  0.6256929135892  0.3025039654809  0.2597786877449 1.0
C      1  0.4490013451288  0.2714833899653  0.7402608590819 1.0
C      1  0.3025034628897  0.3743071874031  0.2597813004384 1.0
C      1  0.2714848357498  0.5509971599390  0.7402567877998 1.0
C      1  0.3743055348607  0.6974964052180  0.2597810903112 1.0
C      1  0.8194857627819  0.4429467555075  0.3582908419180 1.0
C      1  0.6853120601029  0.2334199716702  0.6417735611375 1.0
C      1  0.4429508670183  0.1805209159777  0.3582886773612 1.0
C      1  0.2334227169862  0.3146903049987  0.6417736181356 1.0
C      1  0.1805172610489  0.5570565531742  0.3582916562776 1.0
C      1  0.3146884564383  0.7665795330124  0.6417747026291 1.0
C      1  0.5570520890962  0.8194806477447  0.3582900972084 1.0
C      1  0.7665776621721  0.6853086238007  0.6417768101417 1.0
C      1  0.7764170166025  0.4106707956781  0.5121854321817 1.0
C      1  0.6314522401939  0.2411796522476  0.4879041164231 1.0
C      1  0.4106743026475  0.2235815840648  0.5121867636062 1.0
C      1  0.2411769762649  0.3685496253900  0.4879002550338 1.0
C      1  0.2235822404603  0.5893285516650  0.5121866173268 1.0
C      1  0.3685473675826  0.7588205458705  0.4879047846243 1.0
C      1  0.5893277569023  0.7764171103161  0.5121877053383 1.0
C      1  0.7588202218139  0.6314516169459  0.4879040974125 1.0
C      1  0.3012209171827  0.6346857639128  0.7582410727684 1.0
C      1  0.4542276865049  0.7359049360497  0.2415329785719 1.0
C      1  0.6346797167200  0.6987758894274  0.7582407767936 1.0
C      1  0.7359050683021  0.5457730643189  0.2415343337939 1.0
C      1  0.6987786936401  0.3653130125828  0.7582395758204 1.0
C      1  0.5457756299588  0.2640979545205  0.2415309369648 1.0
C      1  0.3653200643812  0.3012205936050  0.7582414973420 1.0
C      1  0.2640934390229  0.4542298884982  0.2415346271961 1.0
C      1  0.6118001319290  0.3829553975860  0.9534317995101 1.0
C      1  0.4962911897465  0.3382628179965  0.0464702744739 1.0
C      1  0.3829558983105  0.3882032120640  0.9534316357084 1.0
C      1  0.3382555239855  0.5037106325456  0.0464702115505 1.0
C      1  0.3881991438797  0.6170447595785  0.9534320228717 1.0
C      1  0.5037080873346  0.6617385817795  0.0464704439976 1.0
C      1  0.6170431773060  0.6117966984973  0.9534312721224 1.0
C      1  0.6617445307253  0.4962903316112  0.0464694430068 1.0
C      1  0.5263061789642  0.3405651508905  0.9518865347920 1.0
C      1  0.4057587696773  0.3686278941609  0.0479968279244 1.0
C      1  0.3405614166577  0.4736958803987  0.9518858484814 1.0
C      1  0.3686199831308  0.5942438981296  0.0479969428770 1.0
C      1  0.4736929594397  0.6594348567703  0.9518866212463 1.0
C      1  0.5942406279061  0.6313723220172  0.0479967675325 1.0
C      1  0.6594378124655  0.5263044480822  0.9518852146722 1.0
C      1  0.6313795129118  0.4057566930611  0.0479961945242 1.0
C      1  0.4334301066625  0.5320401021732  0.7341544148810 1.0
C      1  0.4755796631814  0.5697535990499  0.2657711532254 1.0
C      1  0.5320397776277  0.5665689967331  0.7341546207997 1.0
C      1  0.5697530558841  0.5244202186876  0.2657713152532 1.0
C      1  0.5665695501246  0.4679589710042  0.7341545843651 1.0
C      1  0.5244202023825  0.4302471701629  0.2657712444627 1.0
C      1  0.4679596536390  0.4334298937683  0.7341545762135 1.0
C      1  0.4302467274121  0.4755803258808  0.2657711341633 1.0
C      1  0.5484293235373  0.2966116719282  0.5110208113081 1.0
C      1  0.3899194927541  0.3212305497593  0.4893769813561 1.0
C      1  0.2966102053909  0.4515723462809  0.5110180481812 1.0
C      1  0.3212322359649  0.6100794170064  0.4893749311533 1.0
C      1  0.4515714430351  0.7033891225736  0.5110212105085 1.0
C      1  0.6100790420480  0.6787678470007  0.4893764472070 1.0
C      1  0.7033886460508  0.5484272914652  0.5110198033037 1.0
C      1  0.6787672623897  0.3899213982184  0.4893738156568 1.0
C      1  0.5589553528572  0.6431253887740  0.7950606545656 1.0
C      1  0.6428406952415  0.5597982387567  0.2048528721191 1.0
C      1  0.6431249386764  0.4410426455300  0.7950606363892 1.0
C      1  0.5598004813952  0.3571611242512  0.2048525877057 1.0
C      1  0.4410444138242  0.3568736401682  0.7950605583775 1.0
C      1  0.3571593370975  0.4402026853630  0.2048526559004 1.0
C      1  0.3568750366846  0.5589559158859  0.7950610569932 1.0
C      1  0.4402000182065  0.6428398786583  0.2048524579802 1.0
C      1  0.6352986858758  0.5666211604619  0.1049432159920 1.0
C      1  0.6426705871358  0.4515117371818  0.8949605486015 1.0
C      1  0.5666226435524  0.3647067831547  0.1049431338383 1.0
C      1  0.4515130467586  0.3573323560063  0.8949615148201 1.0
C      1  0.3647006856895  0.4333793733628  0.1049436418425 1.0
C      1  0.3573287083514  0.5484880752785  0.8949611274726 1.0
C      1  0.4333760886287  0.6352958164202  0.1049436601971 1.0
C      1  0.5484861052925  0.6426673111575  0.8949614946247 1.0
C      1  0.2216802318032  0.6825749389945  0.5450678242340 1.0
C      1  0.4315859447870  0.8275598197859  0.4541359212802 1.0
C      1  0.6825740840453  0.7783175930647  0.5450667258616 1.0
C      1  0.8275602017865  0.5684127023936  0.4541364646333 1.0
C      1  0.7783211614417  0.3174249179519  0.5450678230227 1.0
C      1  0.5684169334372  0.1724391844867  0.4541331173346 1.0
C      1  0.3174271053308  0.2216856139598  0.5450633155873 1.0
C      1  0.1724367773034  0.4315883992987  0.4541316191795 1.0
C      1  0.7161479866043  0.6771978057811  0.7195687509697 1.0
C      1  0.7782488725240  0.4729785831002  0.2804823449243 1.0
C      1  0.6772021633455  0.2838520348165  0.7195700694319 1.0
C      1  0.4729795858334  0.2217548933567  0.2804824222321 1.0
C      1  0.2838549988153  0.3227992810025  0.7195685408139 1.0
C      1  0.2217510384403  0.5270231550766  0.2804843688313 1.0
C      1  0.3227978489736  0.7161451451131  0.7195709804906 1.0
C      1  0.5270217413233  0.7782460861095  0.2804849458102 1.0
C      1  0.7146108292874  0.2501333258873  0.5521821835926 1.0
C      1  0.4756519592370  0.1712004040277  0.4478862456501 1.0
C      1  0.2501311128348  0.2853917515464  0.5521804464379 1.0
C      1  0.1711956104425  0.5243540711962  0.4478877401590 1.0
C      1  0.2853899368385  0.7498676824449  0.5521829925750 1.0
C      1  0.5243505517582  0.8288002107402  0.4478870481826 1.0
C      1  0.7498671518720  0.7146090480403  0.5521833151499 1.0
C      1  0.8288013679186  0.4756486814247  0.4478859912287 1.0
C      1  0.4308248790041  0.3590737861399  0.5663379156171 1.0
C      1  0.3514812155414  0.4495639455926  0.4338649740691 1.0
C      1  0.3590750799122  0.5691765027448  0.5663371302905 1.0
C      1  0.4495633812377  0.6485199556981  0.4338652571964 1.0
C      1  0.5691752333452  0.6409253983192  0.5663380421879 1.0
C      1  0.6485188023241  0.5504359962157  0.4338650857770 1.0
C      1  0.6409246665496  0.4308227246582  0.5663365771858 1.0
C      1  0.5504370545274  0.3514800096191  0.4338645576933 1.0
C      1  0.2453244387244  0.4914221212359  0.6711400851134 1.0
C      1  0.3139572041125  0.6736067667236  0.3290786399878 1.0
C      1  0.4914209800368  0.7546742337644  0.6711415295080 1.0
C      1  0.6736056578466  0.6860418742567  0.3290789231494 1.0
C      1  0.7546743732038  0.5085759204049  0.6711401203965 1.0
C      1  0.6860448764645  0.3263951535149  0.3290783252459 1.0
C      1  0.5085802005707  0.2453245438854  0.6711412993971 1.0
C      1  0.3263943711034  0.3139586814105  0.3290770558099 1.0
C      1  0.2452314266595  0.6120955491098  0.3147511688905 1.0
C      1  0.3993656563311  0.7603182275141  0.6855162469105 1.0
C      1  0.6120928057529  0.7547670886671  0.3147509315475 1.0
C      1  0.7603156533269  0.6006345937583  0.6855153378587 1.0
C      1  0.7547692504186  0.3879033310954  0.3147505229508 1.0
C      1  0.6006349324323  0.2396796009418  0.6855158022973 1.0
C      1  0.3879074642779  0.2452347150827  0.3147510851746 1.0
C      1  0.2396838757014  0.3993662447720  0.6855142717428 1.0
C      1  0.6471538449761  0.3237782086745  0.4214613833735 1.0
C      1  0.4795941792437  0.2712150979504  0.5787658099149 1.0
C      1  0.3237787898723  0.3528466644211  0.4214612718251 1.0
C      1  0.2712152160023  0.5204080765294  0.5787653620450 1.0
C      1  0.3528464415280  0.6762214524121  0.4214612953790 1.0
C      1  0.5204069283083  0.7287845722981  0.5787658944132 1.0
C      1  0.6762201550761  0.6471533221244  0.4214617123827 1.0
C      1  0.7287848370092  0.4795910350504  0.5787651385814 1.0
END
