TITL C-31273-9599-20 -3.842 3375.00 -658.18067069 0 0 79 (C1) n - 1
REM
REM Run started: at 2020.12.29 05:59:50 in /gpfs/home/chem/mssmkc/CARBON/AIRSS/Generating-Clusters/Str-Search/Higher-Symm/C4-100
REM VASP from code version vasp.5.4.4.18Apr17-6-g9f103f2a35 (build Oct 11 2019 16:45:47) gamma-only
REM
REM
REM
REM
REM ./C.cell (6bd13a13d554368a30d355f37ece5b26)
REM AIRSS Version 0.9.1 bugfix July 2018 build 013d7b7c2542+ Fri, 06 Jul 2018 19:26:36 +0100
REM compiler GCC version 6.3.0
REM options -cpp -iprefix /gpfs/warwick/csc/orac/software/Core/GCCcore/6.3.0/bin/../lib/gcc/x86_64-pc-linux-gnu/6.3.0/ -mtune=generic -march=x86-64 -g -O0
REM seed -415395667 -1051717353 -1398391189 -1643726088 -895436700 -813851101 995261872 1743557313 -1999666588 -2138438347 531819553 322551054
REM
REM C.POTCAR (d86ddea03c3ceb6dc662c8ad6801f873)
REM 
CELL 1.54180   15.00000   15.00000   15.00000   90.00000   90.00000   90.00000
LATT -1
SFAC C  
C      1  0.6557144225995  0.5604356791686  0.6998117519671 1.0
C      1  0.6521611070935  0.3849560170510  0.6810857243947 1.0
C      1  0.6382777302012  0.3041550821453  0.5178351616928 1.0
C      1  0.6468952850395  0.3720871213045  0.3567802012583 1.0
C      1  0.6555737198294  0.5272676367559  0.2948403001041 1.0
C      1  0.6414355929524  0.6729039452646  0.3942911924809 1.0
C      1  0.6362072538686  0.6822181702650  0.5752192384255 1.0
C      1  0.6830717242804  0.3464554519262  0.5956781233296 1.0
C      1  0.6818925849204  0.3398575533915  0.4399447200948 1.0
C      1  0.6978969214885  0.4485419270575  0.3299246220985 1.0
C      1  0.6894163842034  0.6013110505566  0.3478636913352 1.0
C      1  0.6753014855761  0.6736489816916  0.4859670974735 1.0
C      1  0.6876630177254  0.6227830108538  0.6326988217517 1.0
C      1  0.6955790465927  0.4736615558551  0.6857271335211 1.0
C      1  0.5133127927021  0.4313088998180  0.2691130134859 1.0
C      1  0.5127704865327  0.5930501172950  0.2659480188346 1.0
C      1  0.4905166270333  0.7320325442627  0.4267902096465 1.0
C      1  0.4854011489513  0.7010616118853  0.6633260997656 1.0
C      1  0.5043192467944  0.4966496332207  0.7434482938723 1.0
C      1  0.5137448786972  0.3087159760833  0.6640068903145 1.0
C      1  0.4849927560246  0.2728361134362  0.4472396579508 1.0
C      1  0.5522222449292  0.2611501497132  0.5164761061616 1.0
C      1  0.5598241343332  0.3618185850953  0.3269011792006 1.0
C      1  0.5685254784430  0.5188460065987  0.2564052873425 1.0
C      1  0.5594234652108  0.7104776667199  0.3627911112896 1.0
C      1  0.5502078824476  0.7223238893708  0.5917808288258 1.0
C      1  0.5716340674061  0.5693826191122  0.7339869632899 1.0
C      1  0.5735738298531  0.3538067535400  0.7267722137856 1.0
C      1  0.3398193242879  0.6978377728335  0.4876292846092 1.0
C      1  0.3330997981535  0.6275212501454  0.6533061542117 1.0
C      1  0.3154953782339  0.4782712105513  0.7063395342097 1.0
C      1  0.3724767713928  0.3340109473624  0.5737111352497 1.0
C      1  0.3337766606137  0.3329398669334  0.4212855160890 1.0
C      1  0.3302283289377  0.4375729245658  0.3069431606772 1.0
C      1  0.3654281281843  0.6288335539945  0.3474767793355 1.0
C      1  0.4366930691247  0.7237756916722  0.2528259970734 1.0
C      1  0.4320025191612  0.8206365164699  0.5280379402303 1.0
C      1  0.4372087666361  0.5721870338583  0.7590038451541 1.0
C      1  0.4208770817126  0.3858171423323  0.7987814116686 1.0
C      1  0.4269517337746  0.2025646694303  0.6057799166887 1.0
C      1  0.4253148502564  0.3074839533933  0.2880254047468 1.0
C      1  0.3762984365527  0.4008277046683  0.1704911059761 1.0
C      1  0.7520646478456  0.5752469436103  0.5803105212584 1.0
C      1  0.7550919302681  0.4849375326304  0.6114240221605 1.0
C      1  0.7508932358343  0.4058633697022  0.5592205965701 1.0
C      1  0.7522726349093  0.4011232712604  0.4656686099979 1.0
C      1  0.7599216350750  0.4695368930188  0.3994735562345 1.0
C      1  0.7552112810323  0.5639770236031  0.4101715997112 1.0
C      1  0.7476134143860  0.6090487601028  0.4915533085524 1.0
C      1  0.4314439042979  0.5651993002953  0.3078861397831 1.0
C      1  0.4024343252818  0.6948683065483  0.4165016197926 1.0
C      1  0.3914075232519  0.7023644608216  0.6362921887448 1.0
C      1  0.4753429818645  0.4622104622938  0.6416186547584 1.0
C      1  0.4508846989346  0.3693701612953  0.6298732528062 1.0
C      1  0.3975478108038  0.2982122677795  0.4802815578000 1.0
C      1  0.4259442272795  0.4756193962781  0.3116340703450 1.0
C      1  0.3483167401994  0.2380434750258  0.6117713784517 1.0
C      1  0.3476859992767  0.3400873403996  0.3298818016052 1.0
C      1  0.3115421224638  0.4431239221215  0.2057911226105 1.0
C      1  0.3564731513573  0.6982940469689  0.2676382851801 1.0
C      1  0.3714444391682  0.7532418472609  0.5576841507244 1.0
C      1  0.3517483706836  0.5672116350937  0.7245321885732 1.0
C      1  0.3494347065169  0.4108156076404  0.7619884951462 1.0
C      1  0.5031664841483  0.6356416495343  0.7291657918643 1.0
C      1  0.5128821691960  0.4055853557190  0.7831808420318 1.0
C      1  0.5142404505288  0.2310484976210  0.6022586162957 1.0
C      1  0.4972218156316  0.2962600301236  0.3527927383773 1.0
C      1  0.4514712647943  0.3661070438147  0.2115066955311 1.0
C      1  0.5210654039423  0.6905924605293  0.2754442142957 1.0
C      1  0.5076738157771  0.7678734696899  0.5195312603826 1.0
C      1  0.2927924150828  0.4119645801407  0.4595826370850 1.0
C      1  0.2903004639440  0.4806158306924  0.3908333342901 1.0
C      1  0.3010357583552  0.5718867694894  0.4071600230023 1.0
C      1  0.2968513294190  0.6122718556279  0.4948737103979 1.0
C      1  0.2893086140502  0.5765935260369  0.5830712882021 1.0
C      1  0.2877925524885  0.4816858592833  0.6134692270282 1.0
C      1  0.3044627067554  0.4102960982722  0.5530987969434 1.0
C      1  0.4879859016208  0.5102771283829  0.5655960896539 1.0
C      1  0.5164976107834  0.5344653336427  0.4891386741986 1.0
END
