TITL C-31794-7627-1 -7.716 3375.00 -1312.27614582 0 0 159 (C1) n - 1
REM
REM Run started: at 2020.12.20 14:33:59 in /gpfs/home/chem/mssmkc/CARBON/AIRSS/Generating-Clusters/Str-Search/Higher-Symm/C100-200
REM VASP from code version vasp.5.4.4.18Apr17-6-g9f103f2a35 (build Oct 11 2019 16:45:47) gamma-only
REM
REM
REM
REM
REM ./C.cell (533062f00bc710175b3da973d35f2034)
REM AIRSS Version 0.9.1 bugfix July 2018 build 013d7b7c2542+ Fri, 06 Jul 2018 19:26:36 +0100
REM compiler GCC version 6.3.0
REM options -cpp -iprefix /gpfs/warwick/csc/orac/software/Core/GCCcore/6.3.0/bin/../lib/gcc/x86_64-pc-linux-gnu/6.3.0/ -mtune=generic -march=x86-64 -g -O0
REM seed 613315888 97871899 -1675924981 -349715168 -945610496 100323063 1436344596 1343367006 -764135391 -1816791797 -349970535 -932797322
REM
REM C.POTCAR (d86ddea03c3ceb6dc662c8ad6801f873)
REM 
CELL 1.54180   15.00000   15.00000   15.00000   90.00000   90.00000   90.00000
LATT -1
SFAC C  
C      1  0.1534319593240  0.6107671135068  0.4324689838189 1.0
C      1  0.3147752727593  0.2393438490436  0.4539192849780 1.0
C      1  0.6894057702617  0.2127470708277  0.4127818572062 1.0
C      1  0.8669753123803  0.5875821721957  0.4005459542894 1.0
C      1  0.5608362317699  0.8316482550455  0.4032324048274 1.0
C      1  0.2271797639508  0.5493010736268  0.5527473885564 1.0
C      1  0.4196956129643  0.2261766813059  0.5945327942193 1.0
C      1  0.6964653208745  0.3797138579525  0.6052075282601 1.0
C      1  0.7508867695761  0.6111507314342  0.4866171538266 1.0
C      1  0.4371172620313  0.8064662177001  0.5260372448652 1.0
C      1  0.6922341711947  0.5793112830828  0.4268804354388 1.0
C      1  0.4194126683684  0.7174492081784  0.5033266521035 1.0
C      1  0.3503296896892  0.5551534528938  0.4212956428742 1.0
C      1  0.4297004470886  0.3823923158252  0.3676007046693 1.0
C      1  0.6186956041321  0.3946307276749  0.3253378565101 1.0
C      1  0.2520625373622  0.2645864809321  0.6197779382521 1.0
C      1  0.5618879559070  0.1497632388525  0.5845141993169 1.0
C      1  0.8373274084790  0.4495914636554  0.5741374881899 1.0
C      1  0.7058100024121  0.8020462237916  0.5667492124068 1.0
C      1  0.1547319833664  0.6752116119227  0.6341352871645 1.0
C      1  0.4619191245452  0.3499504070836  0.8165432054500 1.0
C      1  0.6234805178292  0.4265711828277  0.8126752495604 1.0
C      1  0.5984509428555  0.6075262480629  0.7965102333347 1.0
C      1  0.4219975413065  0.6579199696528  0.7762019470621 1.0
C      1  0.3373521080624  0.5013236153326  0.7952703003879 1.0
C      1  0.3094869982519  0.3410724140232  0.2224581618347 1.0
C      1  0.6547957537422  0.2853743752844  0.1681471587725 1.0
C      1  0.7701827298285  0.5517428727822  0.1623386216855 1.0
C      1  0.5284048036571  0.6802387409931  0.1888857691525 1.0
C      1  0.3107095763803  0.6192913180173  0.2305831013816 1.0
C      1  0.8466633951003  0.4142468509289  0.4856918655754 1.0
C      1  0.7338321806807  0.7992151137518  0.4729559616309 1.0
C      1  0.2056957897889  0.7623971174162  0.5269097081393 1.0
C      1  0.1870073520811  0.3602122416631  0.5376577895511 1.0
C      1  0.5384339588405  0.1364024892619  0.4911876628943 1.0
C      1  0.1460708630960  0.4344995259664  0.3044544439210 1.0
C      1  0.4307359380444  0.1386946810881  0.2776658200224 1.0
C      1  0.8560471496792  0.2817827615040  0.2818460121157 1.0
C      1  0.7831584919993  0.7484276427751  0.2500893481357 1.0
C      1  0.3492579077269  0.8479834589169  0.3579880301048 1.0
C      1  0.2687130677849  0.6433872554622  0.3097527514187 1.0
C      1  0.2917169061987  0.3249744840709  0.3132729186965 1.0
C      1  0.6233667649163  0.2543880245269  0.2500502749091 1.0
C      1  0.8098702623603  0.5273687276136  0.2471113703326 1.0
C      1  0.5439722688189  0.7087140820608  0.2783113095816 1.0
C      1  0.2738260845156  0.6345244423033  0.7483125188946 1.0
C      1  0.3111362635102  0.3436007517308  0.7596199569393 1.0
C      1  0.5895381635927  0.2776057264074  0.7641576688588 1.0
C      1  0.7314084338224  0.5308383765320  0.7597726020474 1.0
C      1  0.5422566553431  0.7194334677361  0.6977654604711 1.0
C      1  0.4425981992532  0.4373417183858  0.1731253586892 1.0
C      1  0.5990770960254  0.4315277898175  0.1419022530332 1.0
C      1  0.6067198471124  0.5284493366695  0.1346602730303 1.0
C      1  0.5322190855813  0.5806639224287  0.1630410997193 1.0
C      1  0.4476833473481  0.5350821449679  0.1663523631378 1.0
C      1  0.5784756179195  0.5810696891442  0.5944719343103 1.0
C      1  0.4380647115896  0.6444988150330  0.5708482839008 1.0
C      1  0.3131314479084  0.5541736084893  0.5222695620946 1.0
C      1  0.4560812105945  0.3176378901722  0.5785494088911 1.0
C      1  0.6176243042289  0.4170484257773  0.5738481688067 1.0
C      1  0.3939834180944  0.7123478683508  0.4092718307804 1.0
C      1  0.3001709766196  0.4831117448825  0.3705276874722 1.0
C      1  0.4692042165175  0.3066088619019  0.3252072047334 1.0
C      1  0.7148242804128  0.3893988756446  0.2987616853971 1.0
C      1  0.6797233747951  0.6325849708921  0.3466860386605 1.0
C      1  0.2121654008318  0.3524115510856  0.6314805691249 1.0
C      1  0.5018494193404  0.1843735907859  0.6445776140239 1.0
C      1  0.7763710609132  0.4264534059744  0.6373453094801 1.0
C      1  0.7120957112333  0.7405682565453  0.6354351561590 1.0
C      1  0.2257817623116  0.7358710179354  0.6244849981150 1.0
C      1  0.0917938798651  0.6581022231709  0.5647532063864 1.0
C      1  0.2232438911631  0.1898065312830  0.5667597668651 1.0
C      1  0.6566991960158  0.1583631591851  0.5577586232765 1.0
C      1  0.8713001153664  0.5371559240208  0.5502321976840 1.0
C      1  0.6322721105250  0.8607975752196  0.5434894480242 1.0
C      1  0.4692396817772  0.8374751893763  0.6111053516276 1.0
C      1  0.1712880027861  0.5773037161125  0.6397922515845 1.0
C      1  0.3339472308125  0.2215438845585  0.6526843215407 1.0
C      1  0.7050697225054  0.2885547061547  0.6380364720214 1.0
C      1  0.7723479389958  0.6620137909905  0.6423794068254 1.0
C      1  0.5814316915309  0.4489645042331  0.3878527223214 1.0
C      1  0.6111082556446  0.5288398089407  0.4450043194549 1.0
C      1  0.5379246936346  0.5913184751241  0.4039199434735 1.0
C      1  0.4536200240780  0.5390852154268  0.4117356981933 1.0
C      1  0.4842517642305  0.4531688120537  0.3944217977949 1.0
C      1  0.4473009329719  0.1314597457780  0.3620878099243 1.0
C      1  0.8464349841672  0.3076517727650  0.3640583346854 1.0
C      1  0.7954197450660  0.7609388156430  0.3352266378423 1.0
C      1  0.2773625932347  0.8584685024991  0.4055558397774 1.0
C      1  0.1427106286929  0.4140419301032  0.3890021263577 1.0
C      1  0.8842084508705  0.5102370445182  0.4591501807808 1.0
C      1  0.6483812542329  0.8412749557456  0.4487995810771 1.0
C      1  0.1401655203832  0.6903998194298  0.4902036663062 1.0
C      1  0.2355468132187  0.2679627838274  0.5088896016295 1.0
C      1  0.6326297356004  0.1537085068633  0.4655306014320 1.0
C      1  0.2484503038102  0.4813594837047  0.7509060616621 1.0
C      1  0.4404150724277  0.2665852597879  0.7724953108663 1.0
C      1  0.6969648822678  0.3835904749016  0.7670389587575 1.0
C      1  0.6672912774151  0.6639266181304  0.7568504845378 1.0
C      1  0.3876586400180  0.7314044980626  0.7161028009580 1.0
C      1  0.2157603295252  0.5618793650894  0.7235711468232 1.0
C      1  0.3522677064177  0.2613944232033  0.7411714103452 1.0
C      1  0.6751424365270  0.2976762696954  0.7300274868989 1.0
C      1  0.7443338957433  0.6170626584844  0.7218240559604 1.0
C      1  0.4626028476119  0.7801982123890  0.6843967859426 1.0
C      1  0.5272972239646  0.6498312371226  0.6176908428762 1.0
C      1  0.3892700082559  0.5679910062748  0.5814513790337 1.0
C      1  0.4497973629944  0.4082410460261  0.5905733104461 1.0
C      1  0.5337705146066  0.3733337966626  0.5723171747519 1.0
C      1  0.6048139630407  0.5124447265825  0.5452647237156 1.0
C      1  0.1929444190706  0.5956478776606  0.3496931994742 1.0
C      1  0.3254086594808  0.2487621851851  0.3633206687482 1.0
C      1  0.6892316734686  0.2350149324262  0.3200105538432 1.0
C      1  0.8311994154065  0.5946750367817  0.3148089203108 1.0
C      1  0.5151678912185  0.7884793289789  0.3288149236089 1.0
C      1  0.2127129372911  0.4998551058076  0.3365313065035 1.0
C      1  0.4144545816815  0.2285123908057  0.3209291802981 1.0
C      1  0.7592291432205  0.2996364634464  0.2982041243046 1.0
C      1  0.7591436167659  0.6648587440177  0.3023593387079 1.0
C      1  0.4172548553762  0.7913023063084  0.3491553965970 1.0
C      1  0.2938557517128  0.7157342221539  0.6937345415009 1.0
C      1  0.2406155999265  0.3919467324884  0.7154966024435 1.0
C      1  0.5165857125826  0.2272424674490  0.7303576514794 1.0
C      1  0.7566431142891  0.4467149347299  0.7288674577413 1.0
C      1  0.6419384766352  0.7339868958388  0.7041426695056 1.0
C      1  0.8183520721612  0.3286810449074  0.4512393159684 1.0
C      1  0.8009980170334  0.7536008033864  0.4285664663611 1.0
C      1  0.2357259988512  0.8279713112369  0.4732364542503 1.0
C      1  0.1488494104226  0.4263564307037  0.4802723449991 1.0
C      1  0.4535304638802  0.1350626355503  0.4555713603677 1.0
C      1  0.8179593399825  0.6218976218736  0.5598703191812 1.0
C      1  0.5431168462182  0.8785642804190  0.5613013652564 1.0
C      1  0.0864117005471  0.5624413043866  0.5777476397974 1.0
C      1  0.3054665724621  0.1401938286943  0.5828068487945 1.0
C      1  0.7200851102017  0.2290079378243  0.5679629517725 1.0
C      1  0.6415871315947  0.5218350931573  0.8067817680853 1.0
C      1  0.5158830531718  0.6533175122779  0.7725934759437 1.0
C      1  0.3481291011837  0.6014138830884  0.7973986809477 1.0
C      1  0.3821802120276  0.4064932142686  0.7968082477242 1.0
C      1  0.5550885487012  0.3587701292649  0.8142352696974 1.0
C      1  0.7482890257190  0.2600123932980  0.4790058193546 1.0
C      1  0.8317162433516  0.6635354893997  0.4631996384210 1.0
C      1  0.5020557370944  0.8591504366496  0.4751383076360 1.0
C      1  0.1416305708191  0.5285324056555  0.4994288460276 1.0
C      1  0.3760257112415  0.1756611020775  0.5115634117063 1.0
C      1  0.3615789846490  0.3923444666123  0.1827833440928 1.0
C      1  0.6535305988211  0.3574416131369  0.1235825919174 1.0
C      1  0.6960042034545  0.5573120199706  0.1270092614158 1.0
C      1  0.5041509892521  0.7364612290243  0.1196281898503 1.0
C      1  0.3710291026715  0.5846756705338  0.1851509543427 1.0
C      1  0.5845771259127  0.6462396188035  0.3417770969950 1.0
C      1  0.3363889599048  0.6469432721367  0.3802945765585 1.0
C      1  0.3364883634594  0.3995897348961  0.3602536947244 1.0
C      1  0.5522218479126  0.3290654106887  0.2718289633677 1.0
C      1  0.7668569161913  0.4568587880954  0.2778527763478 1.0
C      1  0.4117241760993  0.4858801475171  0.6344791568614 1.0
C      1  0.5249260228385  0.3933491940496  0.1907879480515 1.0
C      1  0.3917582515817  0.4695393959825  0.7197833638285 1.0
C      1  0.4848598935828  0.7803913071054  0.0490517396295 1.0
END
