TITL C-31273-9599-217 -4.391 3375.00 -785.11167014 0 0 95 (C1) n - 1
REM
REM Run started: at 2020.12.30 20:37:47 in /gpfs/home/chem/mssmkc/CARBON/AIRSS/Generating-Clusters/Str-Search/Higher-Symm/C4-100
REM VASP from code version vasp.5.4.4.18Apr17-6-g9f103f2a35 (build Oct 11 2019 16:45:47) gamma-only
REM
REM
REM
REM
REM ./C.cell (6bd13a13d554368a30d355f37ece5b26)
REM AIRSS Version 0.9.1 bugfix July 2018 build 013d7b7c2542+ Fri, 06 Jul 2018 19:26:36 +0100
REM compiler GCC version 6.3.0
REM options -cpp -iprefix /gpfs/warwick/csc/orac/software/Core/GCCcore/6.3.0/bin/../lib/gcc/x86_64-pc-linux-gnu/6.3.0/ -mtune=generic -march=x86-64 -g -O0
REM seed -686445929 1761753788 -250183979 -745365063 1152593774 865850156 1076248485 -330523789 814388316 -1650425454 -1915891528 -388862464
REM
REM C.POTCAR (d86ddea03c3ceb6dc662c8ad6801f873)
REM 
CELL 1.54180   15.00000   15.00000   15.00000   90.00000   90.00000   90.00000
LATT -1
SFAC C  
C      1  0.7573745493025  0.7312769861260  0.5859542914181 1.0
C      1  0.2483696216171  0.7382613707024  0.5896611197998 1.0
C      1  0.4119233822859  0.5232788625005  0.5589851917142 1.0
C      1  0.5997833553380  0.5136513886605  0.5568783204806 1.0
C      1  0.4247054777444  0.7902613307095  0.3864918720703 1.0
C      1  0.5787608479692  0.7913706522975  0.3865637768958 1.0
C      1  0.6724354639672  0.5801097730914  0.5445404007741 1.0
C      1  0.3360841089533  0.5902000876317  0.5437672703611 1.0
C      1  0.5875313990159  0.7599526742556  0.5575074244910 1.0
C      1  0.4183222630599  0.7585557710463  0.5608687719877 1.0
C      1  0.5570607330244  0.2736692713855  0.3840913111134 1.0
C      1  0.3816135717184  0.2377462427065  0.4492633890540 1.0
C      1  0.4446296261327  0.4774598835402  0.4707956045046 1.0
C      1  0.5574567426762  0.4763918879560  0.4692939213817 1.0
C      1  0.6895845628419  0.2995807712523  0.5209168904956 1.0
C      1  0.3078557620203  0.3155069075001  0.5793426119031 1.0
C      1  0.2647301027743  0.4313737694486  0.4704471882942 1.0
C      1  0.7406111351528  0.4264191880667  0.4441941243443 1.0
C      1  0.2789301349085  0.5102294718216  0.4132297786493 1.0
C      1  0.7168546069913  0.5109569917608  0.3984216544660 1.0
C      1  0.6536894780514  0.4150682165660  0.2759428211974 1.0
C      1  0.3315240640747  0.4133197003627  0.2914809884255 1.0
C      1  0.7015361979906  0.6492496442694  0.6027812882991 1.0
C      1  0.3002501035877  0.6546947870360  0.6037207305177 1.0
C      1  0.3126088894804  0.5164795864226  0.6973955486661 1.0
C      1  0.6568270133666  0.5327632752967  0.7371730690769 1.0
C      1  0.3738027008720  0.3013896757148  0.6479329551674 1.0
C      1  0.6003421146187  0.2795800828211  0.5628485979402 1.0
C      1  0.6934887764925  0.3404345375188  0.3147919662300 1.0
C      1  0.3210400246848  0.3397152253591  0.3473670264622 1.0
C      1  0.3670724830069  0.5881231868557  0.7337876271891 1.0
C      1  0.6174320721107  0.6171727003722  0.7453787117724 1.0
C      1  0.3057331615187  0.2790850127297  0.4928217625416 1.0
C      1  0.7163633034262  0.2704432770843  0.4350513335623 1.0
C      1  0.7115030380820  0.3918451226073  0.5310524248456 1.0
C      1  0.2810304851829  0.4132659349779  0.5716640503012 1.0
C      1  0.3259113680381  0.7285769277518  0.5324744676121 1.0
C      1  0.6788788762262  0.7246303457782  0.5299470408254 1.0
C      1  0.6569864634252  0.4334615530250  0.6056440445113 1.0
C      1  0.3619042994928  0.4596047261752  0.6209139620306 1.0
C      1  0.4849647635831  0.4765808134597  0.7960576381891 1.0
C      1  0.5509332235627  0.4988992373896  0.9550472977555 1.0
C      1  0.4547467784473  0.5686473741778  0.7658581725344 1.0
C      1  0.5228164149517  0.6366362929248  0.7543325434818 1.0
C      1  0.5844100691828  0.7447882552794  0.6562846137214 1.0
C      1  0.4224203867178  0.7330564631117  0.6615912888039 1.0
C      1  0.6482033679589  0.2686469000784  0.3647216710845 1.0
C      1  0.3947084200856  0.2788278136920  0.3623336244846 1.0
C      1  0.2536739357084  0.4676897759662  0.6546288084375 1.0
C      1  0.6894771211626  0.4728723361857  0.6900555355360 1.0
C      1  0.5664355734167  0.4165809020390  0.2420961823524 1.0
C      1  0.4132377738984  0.4194122498472  0.2422427295848 1.0
C      1  0.4543466822345  0.8110112487087  0.4823836041655 1.0
C      1  0.5504831410613  0.8115728514104  0.4811008484863 1.0
C      1  0.5476253035551  0.3310163320903  0.7211362209343 1.0
C      1  0.4771196516780  0.4004574528385  0.7445894199609 1.0
C      1  0.6866846649397  0.6789979020327  0.4384770471290 1.0
C      1  0.3122638162867  0.6829161397227  0.4398483562173 1.0
C      1  0.2748001118772  0.3472247494361  0.4303893732204 1.0
C      1  0.7528159089437  0.3489580179994  0.3898543263030 1.0
C      1  0.4096539861897  0.6392317328490  0.3278909557223 1.0
C      1  0.5820096423270  0.6450376764087  0.3236725458826 1.0
C      1  0.6102393083580  0.5666205963240  0.2777692222712 1.0
C      1  0.3745911501527  0.5630213386748  0.2831047878305 1.0
C      1  0.4293714655940  0.2277219722394  0.6649472116973 1.0
C      1  0.5591776096282  0.2051498355060  0.6205669342474 1.0
C      1  0.4213297262725  0.3906089869131  0.6608428944798 1.0
C      1  0.5854401515143  0.3618904989489  0.6283954315039 1.0
C      1  0.6772326751982  0.5052898775252  0.3092532649827 1.0
C      1  0.3063518858813  0.5012615537637  0.3211655562783 1.0
C      1  0.6487985235768  0.6790174185354  0.6798278831894 1.0
C      1  0.3563870210259  0.6693622823927  0.6819488600850 1.0
C      1  0.6336047615283  0.7150099778365  0.3711017240006 1.0
C      1  0.3661296826807  0.7162880314285  0.3713652254201 1.0
C      1  0.2949510827392  0.5921296495106  0.4574732857406 1.0
C      1  0.7051496484090  0.5879025159979  0.4526844635277 1.0
C      1  0.4714543726967  0.1856609679375  0.5864948983961 1.0
C      1  0.4973002697154  0.6122927619365  0.3656390908336 1.0
C      1  0.5013347527780  0.7152784636285  0.5137334185979 1.0
C      1  0.5016175320363  0.7920293178057  0.3319325239337 1.0
C      1  0.5569897327139  0.5249560452114  0.1239421718547 1.0
C      1  0.4902643610701  0.3620770990990  0.2569280418372 1.0
C      1  0.4388285343549  0.5093837084148  0.2369941615997 1.0
C      1  0.5311827495993  0.4796879950445  0.8776808126853 1.0
C      1  0.5211875360759  0.2448718356356  0.7016191086295 1.0
C      1  0.5011207635813  0.4077672787991  0.5974401909541 1.0
C      1  0.4820635557638  0.2939736528869  0.3252857538574 1.0
C      1  0.5307158029664  0.2883876718893  0.4803483876800 1.0
C      1  0.5408242826929  0.5136185452508  0.2191964251975 1.0
C      1  0.5603758812289  0.5138121428617  0.0430004996864 1.0
C      1  0.4997972085324  0.3952443569607  0.4969544954518 1.0
C      1  0.4577235011332  0.2223316062053  0.5004267679441 1.0
C      1  0.5085939608953  0.5112281050397  0.6039919720275 1.0
C      1  0.5057436789019  0.7188202615832  0.7025901965702 1.0
C      1  0.5003815317127  0.5265118293806  0.4089908016485 1.0
END
