TITL C-31273-9599-177 -4.766 3375.00 -763.74359588 0 0 97 (C1) n - 1
REM
REM Run started: at 2020.12.30 12:16:50 in /gpfs/home/chem/mssmkc/CARBON/AIRSS/Generating-Clusters/Str-Search/Higher-Symm/C4-100
REM VASP from code version vasp.5.4.4.18Apr17-6-g9f103f2a35 (build Oct 11 2019 16:45:47) gamma-only
REM
REM
REM
REM
REM ./C.cell (6bd13a13d554368a30d355f37ece5b26)
REM AIRSS Version 0.9.1 bugfix July 2018 build 013d7b7c2542+ Fri, 06 Jul 2018 19:26:36 +0100
REM compiler GCC version 6.3.0
REM options -cpp -iprefix /gpfs/warwick/csc/orac/software/Core/GCCcore/6.3.0/bin/../lib/gcc/x86_64-pc-linux-gnu/6.3.0/ -mtune=generic -march=x86-64 -g -O0
REM seed -1046847752 -1329447979 -1954965755 -400322365 -1870234933 -159249496 -1262721010 1627013471 -776674867 -2081703549 -803458749 1479363783
REM
REM C.POTCAR (d86ddea03c3ceb6dc662c8ad6801f873)
REM 
CELL 1.54180   15.00000   15.00000   15.00000   90.00000   90.00000   90.00000
LATT -1
SFAC C  
C      1  0.3348893133793  0.5823268957891  0.2193785649393 1.0
C      1  0.3350594710265  0.4170537930041  0.7830560678535 1.0
C      1  0.6698265984074  0.5786950634709  0.7770519122730 1.0
C      1  0.6699525992171  0.4212298867410  0.2226520087952 1.0
C      1  0.3364174050300  0.2185233074665  0.5822008205046 1.0
C      1  0.3354216112447  0.7829243154404  0.4174927287714 1.0
C      1  0.6692219775028  0.7752664720408  0.5782289665657 1.0
C      1  0.6687142471372  0.2222272489921  0.4213164967546 1.0
C      1  0.7026084707420  0.5229793702105  0.5896770494311 1.0
C      1  0.7037563752274  0.4711395567463  0.4090681646818 1.0
C      1  0.2921198114601  0.5240340043221  0.4064750726239 1.0
C      1  0.2865874740162  0.4704601797167  0.5886811929964 1.0
C      1  0.7050175946869  0.5872905435195  0.5204211954269 1.0
C      1  0.7048466271822  0.4052810578935  0.4773162329167 1.0
C      1  0.2898233321518  0.4072292067552  0.5186219947033 1.0
C      1  0.2854882736947  0.5877614604419  0.4755212472054 1.0
C      1  0.3572897813683  0.2319413744287  0.4082777356099 1.0
C      1  0.3556688283093  0.7680379818601  0.5917757337891 1.0
C      1  0.6423196607727  0.2332156890974  0.5927037599398 1.0
C      1  0.6424954356644  0.7637152455972  0.4073657438543 1.0
C      1  0.3555725245873  0.4083289333170  0.2335089275175 1.0
C      1  0.3548560763344  0.5914923478540  0.7672332832032 1.0
C      1  0.6431795304687  0.5925970638061  0.2345483109951 1.0
C      1  0.6432725038989  0.4076211949562  0.7634799799072 1.0
C      1  0.3812903035050  0.4069541117494  0.4735368822822 1.0
C      1  0.3735714897626  0.5926230912072  0.5259306915162 1.0
C      1  0.6159188358853  0.3973514650834  0.5233680000716 1.0
C      1  0.6127314663307  0.5873912766085  0.4756349815487 1.0
C      1  0.3820113892616  0.4751949591310  0.4058032770050 1.0
C      1  0.3733839922949  0.5241167973057  0.5937971907691 1.0
C      1  0.6163221468427  0.5203280092354  0.3992175263014 1.0
C      1  0.6112554509565  0.4757436380592  0.5886534168994 1.0
C      1  0.6693786809206  0.7782437130077  0.4867650985463 1.0
C      1  0.6682744055868  0.2175480756569  0.5130066239334 1.0
C      1  0.3366732988422  0.7823240057561  0.5102835118694 1.0
C      1  0.3381553344770  0.2180251988952  0.4897506137571 1.0
C      1  0.6702177128849  0.4870005276413  0.7781057153084 1.0
C      1  0.6702630662081  0.5130332581053  0.2193373050988 1.0
C      1  0.3360236218541  0.5098658900601  0.7815404990363 1.0
C      1  0.3356659609088  0.4898282242576  0.2196917832836 1.0
C      1  0.7682266436674  0.4573346580177  0.5812272967020 1.0
C      1  0.7702751747814  0.5364682676881  0.4208397860086 1.0
C      1  0.2269767682991  0.4567438635637  0.4147216218939 1.0
C      1  0.2181215940830  0.5334043441543  0.5759509080556 1.0
C      1  0.7821501653770  0.6097854590415  0.4637555503724 1.0
C      1  0.7832290237502  0.3867488154179  0.5349594524650 1.0
C      1  0.2161460145770  0.3833923526946  0.4577616489516 1.0
C      1  0.2066785281969  0.6054282796851  0.5312073240420 1.0
C      1  0.3213421627645  0.3258820954267  0.7413387001746 1.0
C      1  0.3205096176069  0.6747365405750  0.2588566910687 1.0
C      1  0.6830949657732  0.3296837135177  0.2636794461776 1.0
C      1  0.6815965415233  0.6681848834584  0.7344254620574 1.0
C      1  0.3210220192034  0.7410468627571  0.3264712474885 1.0
C      1  0.3210955861426  0.2585603778144  0.6748999947268 1.0
C      1  0.6826336123635  0.2639908590875  0.3301259217243 1.0
C      1  0.6815765809170  0.7335793657319  0.6682474576823 1.0
C      1  0.4016256758410  0.6503464594001  0.2145168582907 1.0
C      1  0.4024495189213  0.3497443771053  0.7865544511131 1.0
C      1  0.5918791007084  0.6378549147503  0.7655394584270 1.0
C      1  0.5945121147122  0.3595677802008  0.2321474719098 1.0
C      1  0.4024736188475  0.2150083999679  0.6504721681567 1.0
C      1  0.4023030185394  0.7862044688970  0.3496997469526 1.0
C      1  0.5915920773166  0.7639656838282  0.6378094646944 1.0
C      1  0.5939216236592  0.2325223869079  0.3592568248745 1.0
C      1  0.4556275876011  0.3365581405132  0.6000367217882 1.0
C      1  0.4526539961070  0.6623551538924  0.3987214895133 1.0
C      1  0.5508501441653  0.3250710492791  0.3904764874616 1.0
C      1  0.5493510490165  0.6749698896294  0.6099803556111 1.0
C      1  0.4559599078279  0.5997905945574  0.3356377927356 1.0
C      1  0.4525572420633  0.3987068805252  0.6634194610145 1.0
C      1  0.5512321266443  0.3905846804803  0.3241574293522 1.0
C      1  0.5492192034989  0.6091661550544  0.6767328904569 1.0
C      1  0.4895210054523  0.6616604550340  0.2625402994968 1.0
C      1  0.4893988804544  0.3385373633612  0.7369952986997 1.0
C      1  0.5012207263055  0.6727635602237  0.7482793308090 1.0
C      1  0.5031174443155  0.3294704963276  0.2540550044208 1.0
C      1  0.4898657634041  0.2629930087693  0.6619568718133 1.0
C      1  0.4889976602836  0.7364158615397  0.3383721090951 1.0
C      1  0.5013071510859  0.7476184142457  0.6735181808461 1.0
C      1  0.5031264266898  0.2545290654647  0.3286918275455 1.0
C      1  0.5454653537166  0.4802732382125  0.3577002532308 1.0
C      1  0.5362926726458  0.5215698011199  0.6361889233660 1.0
C      1  0.4446135823543  0.4896003089866  0.6417434910873 1.0
C      1  0.4539768863508  0.5092060177128  0.3601600798249 1.0
C      1  0.5447397020059  0.3580739164606  0.4803998651658 1.0
C      1  0.5368538195364  0.6331421672814  0.5228480493024 1.0
C      1  0.4449710014315  0.6396234208502  0.4894817535184 1.0
C      1  0.4532559129416  0.3619365501212  0.5096253311865 1.0
C      1  0.5926486102020  0.2624268552688  0.6657500233636 1.0
C      1  0.5922260231649  0.7354259136156  0.3348726056233 1.0
C      1  0.4025765849879  0.2593079372183  0.3316706818891 1.0
C      1  0.4013790659616  0.7411350396349  0.6685703325399 1.0
C      1  0.5927557210282  0.6656412750003  0.2623170107457 1.0
C      1  0.5927504973069  0.3349389976977  0.7355514289696 1.0
C      1  0.4020581455201  0.3318825727687  0.2593707024542 1.0
C      1  0.4009587747596  0.6683468431594  0.7412748732073 1.0
C      1  0.5441999035665  0.5333227310773  0.5346486813695 1.0
END
