TITL C-31273-9599-202 -2.336 3375.00 -386.39001268 0 0 49 (C7v) n - 1
REM
REM Run started: at 2020.12.30 17:50:10 in /gpfs/home/chem/mssmkc/CARBON/AIRSS/Generating-Clusters/Str-Search/Higher-Symm/C4-100
REM VASP from code version vasp.5.4.4.18Apr17-6-g9f103f2a35 (build Oct 11 2019 16:45:47) gamma-only
REM
REM
REM
REM
REM ./C.cell (6bd13a13d554368a30d355f37ece5b26)
REM AIRSS Version 0.9.1 bugfix July 2018 build 013d7b7c2542+ Fri, 06 Jul 2018 19:26:36 +0100
REM compiler GCC version 6.3.0
REM options -cpp -iprefix /gpfs/warwick/csc/orac/software/Core/GCCcore/6.3.0/bin/../lib/gcc/x86_64-pc-linux-gnu/6.3.0/ -mtune=generic -march=x86-64 -g -O0
REM seed -1242455813 -1765241754 -726633839 -2117851032 -1424996744 399518117 1607143250 -1760232693 320831038 -1037910296 215614471 -552976734
REM
REM C.POTCAR (d86ddea03c3ceb6dc662c8ad6801f873)
REM 
CELL 1.54180   15.00000   15.00000   15.00000   90.00000   90.00000   90.00000
LATT -1
SFAC C  
C      1  0.4166744790814  0.6585835901540  0.5838277330864 1.0
C      1  0.4166140653720  0.5331442910056  0.6762467965062 1.0
C      1  0.4166396867668  0.3827430182358  0.6360672087229 1.0
C      1  0.4167772712258  0.3206952008972  0.4931731333538 1.0
C      1  0.4170628991196  0.3935087417358  0.3555842801880 1.0
C      1  0.4171177561972  0.5465920987866  0.3266004185201 1.0
C      1  0.4170473644197  0.6648134043075  0.4281130943719 1.0
C      1  0.6152675222295  0.3156207194630  0.5805485717288 1.0
C      1  0.6153438012775  0.3224326415964  0.4065081735336 1.0
C      1  0.6156095777463  0.4624626171596  0.3028894531983 1.0
C      1  0.6156008441683  0.6308104740238  0.3473342072250 1.0
C      1  0.6153932501937  0.7008794861212  0.5072880664320 1.0
C      1  0.6150953046990  0.6194711545512  0.6613957088855 1.0
C      1  0.6149775976605  0.4482682644605  0.6941589742582 1.0
C      1  0.5408381104354  0.6426413330615  0.6931039081111 1.0
C      1  0.5407846765600  0.4379291784264  0.7321973779008 1.0
C      1  0.5409182925232  0.2798146462770  0.5962043631501 1.0
C      1  0.5411306552017  0.2875571805608  0.3882268179610 1.0
C      1  0.5414087753815  0.4550296133659  0.2642034025040 1.0
C      1  0.5413897216305  0.6565202100932  0.3175090797455 1.0
C      1  0.5410342641063  0.7399600996512  0.5091295706236 1.0
C      1  0.3371133472570  0.3886741616863  0.4956680086986 1.0
C      1  0.3371591810907  0.4340118111233  0.4099335120547 1.0
C      1  0.3372649289599  0.5291488305813  0.3919354168646 1.0
C      1  0.3370995175452  0.6025965404695  0.4550080322862 1.0
C      1  0.3370321856660  0.5985070499358  0.5518323515872 1.0
C      1  0.3368868062386  0.5206494784319  0.6094198762863 1.0
C      1  0.3369106378076  0.4270272669455  0.5844151862568 1.0
C      1  0.4840337985353  0.5266641170357  0.4011783540688 1.0
C      1  0.4840598219548  0.5942673079521  0.4589565599176 1.0
C      1  0.4837868081704  0.5906089987406  0.5478719448208 1.0
C      1  0.4837524646414  0.5190306918795  0.6006741513817 1.0
C      1  0.4838451713670  0.4330299215736  0.5778110992207 1.0
C      1  0.4838957966383  0.3975314988066  0.4963010868969 1.0
C      1  0.4840352229463  0.4392302358101  0.4176528256003 1.0
C      1  0.6576913627683  0.3976984852306  0.4464448360398 1.0
C      1  0.6577788794438  0.4783911041253  0.3867237412791 1.0
C      1  0.6577388082810  0.5754057665058  0.4122570010207 1.0
C      1  0.6575733484363  0.6155789802683  0.5041126320580 1.0
C      1  0.6574250837527  0.5686876142339  0.5929144771156 1.0
C      1  0.6574750519561  0.4700703342934  0.6118493486542 1.0
C      1  0.6576083869881  0.3938513966145  0.5466819403702 1.0
C      1  0.4481034256367  0.7254683589403  0.5085484513093 1.0
C      1  0.4479124953022  0.6337129943552  0.6814227125251 1.0
C      1  0.4478744539506  0.4414576184636  0.7178116732915 1.0
C      1  0.4480183130215  0.2933387120874  0.5901803603143 1.0
C      1  0.4481920708313  0.3006273508334  0.3945749468700 1.0
C      1  0.4485298631129  0.4580906252428  0.2786047768987 1.0
C      1  0.4484768517037  0.6471649838993  0.3289045563056 1.0
END
