TITL C-31896-717-54 -10.68 3375.00 -1464.89329218 0 0 180 (Cs) n - 1
REM
REM Run started: at 2020.12.27 04:23:35 in /gpfs/home/chem/mssmkc/CARBON/AIRSS/Generating-Clusters/Str-Search/Higher-Symm/Only-C180
REM VASP from code version vasp.5.4.4.18Apr17-6-g9f103f2a35 (build Oct 11 2019 16:45:47) gamma-only
REM
REM
REM
REM
REM ./C.cell (73b75853f6e4503fb4b57bac71549d7d)
REM AIRSS Version 0.9.1 bugfix July 2018 build 013d7b7c2542+ Fri, 06 Jul 2018 19:26:36 +0100
REM compiler GCC version 6.3.0
REM options -cpp -iprefix /gpfs/warwick/csc/orac/software/Core/GCCcore/6.3.0/bin/../lib/gcc/x86_64-pc-linux-gnu/6.3.0/ -mtune=generic -march=x86-64 -g -O0
REM seed 461377558 189307397 -954633766 448089394 -1355660505 850676882 1975298188 621481501 -287466862 -1478089811 1708546810 -1046327082
REM
REM C.POTCAR (d86ddea03c3ceb6dc662c8ad6801f873)
REM 
CELL 1.54180   15.00000   15.00000   15.00000   90.00000   90.00000   90.00000
LATT -1
SFAC C  
C      1  0.6770518225442  0.8535705893574  0.6351890855326 1.0
C      1  0.5757195479619  0.8832147200186  0.2216783597516 1.0
C      1  0.2725752555215  0.8796381697696  0.5740641880218 1.0
C      1  0.6770532386580  0.1464290844801  0.6351957561457 1.0
C      1  0.5757196477937  0.1167818021614  0.2216830047261 1.0
C      1  0.2725775858586  0.1203597585466  0.5740703730356 1.0
C      1  0.7406444119919  0.3951053385157  0.6935692812952 1.0
C      1  0.5402565182094  0.3949558291558  0.1964298243241 1.0
C      1  0.1868829498632  0.3966018957496  0.6151157484878 1.0
C      1  0.7406418141574  0.6048921527172  0.6935653761718 1.0
C      1  0.5402558575437  0.6050466048173  0.1964304413874 1.0
C      1  0.1868799010587  0.6033999375707  0.6151147756481 1.0
C      1  0.2518686959557  0.7701415906489  0.5658213411077 1.0
C      1  0.7017555329012  0.7556694691848  0.6477422014254 1.0
C      1  0.5665694580758  0.7798278721240  0.2354456816966 1.0
C      1  0.2518698884773  0.2298574210972  0.5658255051044 1.0
C      1  0.7017540599822  0.2443288824543  0.6477441470108 1.0
C      1  0.5665662091319  0.2201733589354  0.2354486360927 1.0
C      1  0.2857104738191  0.2642952611702  0.3496876852619 1.0
C      1  0.4663672540045  0.2773926664116  0.7719346625735 1.0
C      1  0.7487124780836  0.2665010728881  0.3768694519086 1.0
C      1  0.2857077248937  0.7357040709831  0.3496903502470 1.0
C      1  0.4663682081279  0.7226122452385  0.7719317267449 1.0
C      1  0.7487151645796  0.7334964037446  0.3768675122828 1.0
C      1  0.8049049047622  0.5524748112275  0.2104779816550 1.0
C      1  0.0648443899807  0.5458290371966  0.4690077405944 1.0
C      1  0.5998668039332  0.5505140675718  0.9199004178631 1.0
C      1  0.8049061863619  0.4475179871779  0.2104790100682 1.0
C      1  0.0648467500585  0.4541717668612  0.4690127084695 1.0
C      1  0.5998686459615  0.4494879870259  0.9199011090082 1.0
C      1  0.5771770336009  0.6867467154227  0.1967444487252 1.0
C      1  0.1899469006113  0.6930357237124  0.5707078972828 1.0
C      1  0.7513099299983  0.6937743558836  0.6845334968386 1.0
C      1  0.5771770614866  0.3132505047739  0.1967462072258 1.0
C      1  0.1899475601192  0.3069667349995  0.5707129683357 1.0
C      1  0.7513124959304  0.3062283970000  0.6845395268157 1.0
C      1  0.1417103851256  0.5510799575987  0.5360981454796 1.0
C      1  0.6514813016490  0.5473329554757  0.8361485656463 1.0
C      1  0.7105563662152  0.5503691449429  0.2050260585407 1.0
C      1  0.1417125407970  0.4489255045737  0.5361061655511 1.0
C      1  0.6514821117877  0.4526674365503  0.8361487361950 1.0
C      1  0.7105574863614  0.4496245722188  0.2050285458208 1.0
C      1  0.8334035302777  0.3850366002486  0.4678129866294 1.0
C      1  0.2889031539629  0.3864191711778  0.2408711810228 1.0
C      1  0.3409564755131  0.3828906640472  0.8062739762252 1.0
C      1  0.8334054985112  0.6149622760848  0.4678133127594 1.0
C      1  0.2889026257518  0.6135822423408  0.2408715926859 1.0
C      1  0.3409565174134  0.6171123135043  0.8062748912416 1.0
C      1  0.4626607359261  0.5461804944765  0.2104647413875 1.0
C      1  0.2527524901547  0.5471429569783  0.6664367623127 1.0
C      1  0.7669593290391  0.5453817938192  0.6190283534979 1.0
C      1  0.4626602559377  0.4538203985195  0.2104646442992 1.0
C      1  0.2527551416175  0.4528636123813  0.6664370796105 1.0
C      1  0.7669600365786  0.4546151337576  0.6190289494949 1.0
C      1  0.3374024452999  0.7769921778772  0.2107998576565 1.0
C      1  0.3282313962286  0.7884645211815  0.7944716124574 1.0
C      1  0.8447491550892  0.7856434835361  0.4842326129880 1.0
C      1  0.3373975756202  0.2230104761803  0.2107922867421 1.0
C      1  0.3282345147102  0.2115438313175  0.7944819023689 1.0
C      1  0.8447482239117  0.2143535001133  0.4842320878183 1.0
C      1  0.2077225001970  0.6197059566938  0.5098431474725 1.0
C      1  0.6564476593759  0.5921452584614  0.7501194544486 1.0
C      1  0.6330835203437  0.6068740261447  0.2370320527600 1.0
C      1  0.2077229459741  0.3802958744327  0.5098461685450 1.0
C      1  0.6564487780900  0.4078543490234  0.7501211844234 1.0
C      1  0.6330845059724  0.3931236459357  0.2370347133789 1.0
C      1  0.4417688380249  0.3967683507394  0.5042427139261 1.0
C      1  0.5279786746252  0.4027412228492  0.5568236725057 1.0
C      1  0.5586111523234  0.4127405201697  0.4056259607806 1.0
C      1  0.4417708775536  0.6032333391387  0.5042412506325 1.0
C      1  0.5279788054170  0.5972602017121  0.5568242485297 1.0
C      1  0.5586116091655  0.5872602473151  0.4056257397158 1.0
C      1  0.7019073094385  0.8913155369438  0.3086728033067 1.0
C      1  0.2599102877359  0.8964868558267  0.4211076295949 1.0
C      1  0.5690987058991  0.8597532142912  0.7499480064297 1.0
C      1  0.7019081417736  0.1086793018095  0.3086772818758 1.0
C      1  0.2599150790696  0.1035058080022  0.4211150900271 1.0
C      1  0.5690916501882  0.1402501562472  0.7499507455542 1.0
C      1  0.3674219041826  0.3284906323599  0.4974783193007 1.0
C      1  0.5649631489835  0.3369907064165  0.6206675084904 1.0
C      1  0.5819690228501  0.3143104469190  0.3834888994834 1.0
C      1  0.3674214214790  0.6715086661287  0.4974795142719 1.0
C      1  0.5649642476840  0.6630108581645  0.6206657281347 1.0
C      1  0.5819717272996  0.6856884585748  0.3834870918251 1.0
C      1  0.3335244593813  0.4099379796274  0.7096788985197 1.0
C      1  0.7653580023134  0.4050961690752  0.5307611214611 1.0
C      1  0.3850037150586  0.4136094889369  0.2603729889107 1.0
C      1  0.3335244587598  0.5900646099856  0.7096795468009 1.0
C      1  0.7653590818227  0.5949015402197  0.5307619311311 1.0
C      1  0.3850034102209  0.5863896522198  0.2603735691663 1.0
C      1  0.3172801053882  0.8500568449670  0.7377455234738 1.0
C      1  0.7955054951518  0.8451305508041  0.5175681196575 1.0
C      1  0.4021172708516  0.8284042996790  0.2045553528562 1.0
C      1  0.3172844801309  0.1499410432431  0.7377498916952 1.0
C      1  0.7955082117643  0.1548678188377  0.5175687001945 1.0
C      1  0.4021207830438  0.1715981312256  0.2045574841467 1.0
C      1  0.6779086107915  0.6690237890108  0.4041722864278 1.0
C      1  0.3325326815417  0.6611237925549  0.3989190210287 1.0
C      1  0.4913776450061  0.6507480769094  0.7082988683663 1.0
C      1  0.6779051004062  0.3309728914007  0.4041753477973 1.0
C      1  0.3325318068103  0.3388757146210  0.3989179047205 1.0
C      1  0.4913779422840  0.3492552094448  0.7082965741942 1.0
C      1  0.4159782062658  0.4032996110664  0.6702151476909 1.0
C      1  0.6774897755937  0.3652909031454  0.5038275790719 1.0
C      1  0.3971539110263  0.3977431481375  0.3491245782745 1.0
C      1  0.4159793968795  0.5966990148550  0.6702152603612 1.0
C      1  0.6774937323573  0.6347079915127  0.5038254986198 1.0
C      1  0.3971562440549  0.6022620100702  0.3491231698701 1.0
C      1  0.7160962240369  0.1236842381493  0.5479456177611 1.0
C      1  0.4848303170565  0.1478471961298  0.2462699233064 1.0
C      1  0.3245683049529  0.1141410628492  0.6563552496312 1.0
C      1  0.7160953217101  0.8763166079359  0.5479405580371 1.0
C      1  0.4848338837398  0.8521527731177  0.2462687856262 1.0
C      1  0.3245654457309  0.8858622300037  0.6563448178246 1.0
C      1  0.6285800459501  0.6086320988626  0.3376704930962 1.0
C      1  0.2921467981541  0.6107157451905  0.4726314761049 1.0
C      1  0.5838914033755  0.6181748546070  0.7043823945344 1.0
C      1  0.6285779072961  0.3913663786993  0.3376725517768 1.0
C      1  0.2921443153762  0.3892847560339  0.4726330271657 1.0
C      1  0.5838930165218  0.3818267008004  0.7043834148641 1.0
C      1  0.4875686919567  0.1364311070763  0.4382610311172 1.0
C      1  0.4517281095275  0.1256518410027  0.5251724633202 1.0
C      1  0.5426475659495  0.1422314802368  0.5147909786419 1.0
C      1  0.4875689632341  0.8635705167376  0.4382512188508 1.0
C      1  0.4517198905333  0.8743483767570  0.5251706005923 1.0
C      1  0.5426521213729  0.8577704818473  0.5147874610538 1.0
C      1  0.3753827298850  0.2883922741680  0.8075292077568 1.0
C      1  0.8246028310664  0.2889233583237  0.4326030599294 1.0
C      1  0.2862588450195  0.2871064886542  0.2575135445554 1.0
C      1  0.3753846893628  0.7116118949012  0.8075244964651 1.0
C      1  0.8246038721034  0.7110758629608  0.4326021186571 1.0
C      1  0.2862604841540  0.7128928199599  0.2575110839296 1.0
C      1  0.4180837768161  0.4518735332079  0.9456011097440 1.0
C      1  0.9432571662325  0.4467252445024  0.3437487599638 1.0
C      1  0.1276465476060  0.4543395982363  0.2973332531525 1.0
C      1  0.4180848269703  0.5481277994158  0.9456026053823 1.0
C      1  0.9432555968580  0.5532706026544  0.3437477964625 1.0
C      1  0.1276425801043  0.5456559975098  0.2973337909993 1.0
C      1  0.5153049629386  0.4493303791080  0.9606437570274 1.0
C      1  0.8897571214275  0.4517881111123  0.2546236223430 1.0
C      1  0.0484686742240  0.4465860541923  0.3660578452403 1.0
C      1  0.5153042002045  0.5506688072595  0.9606461911826 1.0
C      1  0.8897566964643  0.5482058238113  0.2546228687006 1.0
C      1  0.0484717588720  0.5534107124028  0.3660574867586 1.0
C      1  0.5993787156753  0.4406078739465  0.4963887854608 1.0
C      1  0.4614834269503  0.4433960256738  0.4117173144327 1.0
C      1  0.4463233445295  0.4506263418419  0.5887144090734 1.0
C      1  0.5993791736634  0.5593938565494  0.4963884300649 1.0
C      1  0.4614835198906  0.5566066727642  0.4117164253217 1.0
C      1  0.4463234056940  0.5493751958474  0.5887144923311 1.0
C      1  0.6276105266215  0.8225260206999  0.5460946101830 1.0
C      1  0.4931956925591  0.8307420349780  0.3506360044387 1.0
C      1  0.3741388292899  0.8461384406708  0.5752046608623 1.0
C      1  0.6276142736818  0.1774747590462  0.5460992569820 1.0
C      1  0.4931956224087  0.1692592325797  0.3506399075648 1.0
C      1  0.3741383812820  0.1538627099032  0.5752074837177 1.0
C      1  0.3571946125928  0.5510872143292  0.8673886883861 1.0
C      1  0.8853581039189  0.5478018503132  0.4272216185720 1.0
C      1  0.2222365262976  0.5518029254601  0.2576565978960 1.0
C      1  0.3571931868822  0.4489165750177  0.8673866744930 1.0
C      1  0.8853565615956  0.4521952334565  0.4272211214601 1.0
C      1  0.2222348438435  0.4481954013099  0.2576556093351 1.0
C      1  0.6251198222008  0.9057305925267  0.7003509429223 1.0
C      1  0.6391470513947  0.9465247978698  0.2622372334549 1.0
C      1  0.2571976435323  0.9510529721634  0.4997823733775 1.0
C      1  0.6251223662086  0.0942699870144  0.7003535904115 1.0
C      1  0.6391446115460  0.0534758111633  0.2622389933122 1.0
C      1  0.2571980566153  0.0489473539145  0.4997815655359 1.0
C      1  0.3402033115146  0.2473776375785  0.5484216808486 1.0
C      1  0.6388661763827  0.2809993201119  0.5746858563586 1.0
C      1  0.5514365065658  0.2379104767073  0.3328006220744 1.0
C      1  0.3402040314534  0.7526211358473  0.5484233275556 1.0
C      1  0.6388674133482  0.7190019615089  0.5746827931741 1.0
C      1  0.5514378770468  0.7620878366832  0.3327993222824 1.0
C      1  0.2722660389317  0.8223223010543  0.3850019942917 1.0
C      1  0.5149093938328  0.7984705607864  0.7735729975647 1.0
C      1  0.7290518836017  0.8177225041993  0.3400885925379 1.0
C      1  0.2722733238096  0.1776819401834  0.3849979645654 1.0
C      1  0.5149114299239  0.2015230552684  0.7735740685554 1.0
C      1  0.7290509319006  0.1822741612683  0.3400923618981 1.0
END
