TITL C-31273-9599-118 -1.512 3375.00 -239.54926650 0 0 30 (C1) n - 1
REM
REM Run started: at 2020.12.30 00:20:36 in /gpfs/home/chem/mssmkc/CARBON/AIRSS/Generating-Clusters/Str-Search/Higher-Symm/C4-100
REM VASP from code version vasp.5.4.4.18Apr17-6-g9f103f2a35 (build Oct 11 2019 16:45:47) gamma-only
REM
REM
REM
REM
REM ./C.cell (6bd13a13d554368a30d355f37ece5b26)
REM AIRSS Version 0.9.1 bugfix July 2018 build 013d7b7c2542+ Fri, 06 Jul 2018 19:26:36 +0100
REM compiler GCC version 6.3.0
REM options -cpp -iprefix /gpfs/warwick/csc/orac/software/Core/GCCcore/6.3.0/bin/../lib/gcc/x86_64-pc-linux-gnu/6.3.0/ -mtune=generic -march=x86-64 -g -O0
REM seed -234195378 -2104251601 -1834982595 -747850948 -524301410 555487286 1150739769 -1466718318 -314707142 -920319236 235275722 -1521815171
REM
REM C.POTCAR (d86ddea03c3ceb6dc662c8ad6801f873)
REM 
CELL 1.54180   15.00000   15.00000   15.00000   90.00000   90.00000   90.00000
LATT -1
SFAC C  
C      1  0.4654371890054  0.4220561907589  0.3168114416377 1.0
C      1  0.3744656691817  0.4633660062913  0.4329853344946 1.0
C      1  0.4559510590160  0.3424056579890  0.3731204676315 1.0
C      1  0.4429954458986  0.5295135028488  0.6731919647267 1.0
C      1  0.5721210017168  0.5219503475383  0.3743748619443 1.0
C      1  0.5930475421079  0.4397529587022  0.6568823786433 1.0
C      1  0.3699623729479  0.6057251597785  0.5434179841248 1.0
C      1  0.6359030665179  0.6526530066809  0.4607973228701 1.0
C      1  0.6441445631449  0.4038225914203  0.5131420525705 1.0
C      1  0.4568765967495  0.6842990055589  0.6348418583441 1.0
C      1  0.4826539488235  0.6534836747877  0.3952352767750 1.0
C      1  0.5032374231081  0.3312419936645  0.5584187524871 1.0
C      1  0.4008453103086  0.3690248011511  0.4463964473046 1.0
C      1  0.4187951675660  0.4961047928539  0.3523116850238 1.0
C      1  0.5487707060247  0.3493641335266  0.3987176109168 1.0
C      1  0.4216695348745  0.6867631207770  0.5473343254826 1.0
C      1  0.5764121578109  0.3441634714580  0.4878804521487 1.0
C      1  0.5579470338408  0.6944889568661  0.4432480881170 1.0
C      1  0.3784421533139  0.5326537706814  0.6003397318674 1.0
C      1  0.6569745903555  0.4559176792774  0.5899806499844 1.0
C      1  0.6353205446468  0.5592762381472  0.4398190993687 1.0
C      1  0.4644049733174  0.6215816453553  0.6894106569794 1.0
C      1  0.5253398979072  0.3761214786461  0.6403477333986 1.0
C      1  0.4866329989777  0.5693031725177  0.3619718627893 1.0
C      1  0.5025130498423  0.4578760709475  0.6833885726738 1.0
C      1  0.6682890933977  0.4933317651237  0.5003277958120 1.0
C      1  0.4683696876518  0.7117495108015  0.4681584220903 1.0
C      1  0.5593259472580  0.4316207930114  0.3415300500321 1.0
C      1  0.3583999043242  0.5181504431699  0.5077363011860 1.0
C      1  0.4150859703634  0.3333914596688  0.5320025185746 1.0
END
