TITL C-31896-717-30 -7.958 3375.00 -1462.58931335 0 0 180 (Ci) n - 1
REM
REM Run started: at 2020.12.26 07:51:33 in /gpfs/home/chem/mssmkc/CARBON/AIRSS/Generating-Clusters/Str-Search/Higher-Symm/Only-C180
REM VASP from code version vasp.5.4.4.18Apr17-6-g9f103f2a35 (build Oct 11 2019 16:45:47) gamma-only
REM
REM
REM
REM
REM ./C.cell (73b75853f6e4503fb4b57bac71549d7d)
REM AIRSS Version 0.9.1 bugfix July 2018 build 013d7b7c2542+ Fri, 06 Jul 2018 19:26:36 +0100
REM compiler GCC version 6.3.0
REM options -cpp -iprefix /gpfs/warwick/csc/orac/software/Core/GCCcore/6.3.0/bin/../lib/gcc/x86_64-pc-linux-gnu/6.3.0/ -mtune=generic -march=x86-64 -g -O0
REM seed -1810423706 2023999751 1026184482 -146236883 641129470 1209150387 -645759410 -2042851237 80651726 1842227698 -1158868400 1485835182
REM
REM C.POTCAR (d86ddea03c3ceb6dc662c8ad6801f873)
REM 
CELL 1.54180   15.00000   15.00000   15.00000   90.00000   90.00000   90.00000
LATT -1
SFAC C  
C      1  0.5703139372315  0.3743335156846  0.8554373041901 1.0
C      1  0.4296799932933  0.6256759341561  0.1445661595028 1.0
C      1  0.1393862373445  0.3621851067916  0.3628373961061 1.0
C      1  0.8606140944105  0.6378081043928  0.6371622312968 1.0
C      1  0.7094304971684  0.4297652697384  0.2125258911567 1.0
C      1  0.2905664856788  0.5702345681230  0.7874777703353 1.0
C      1  0.4057045568755  0.2896844848752  0.5146581449729 1.0
C      1  0.5942926627945  0.7103181664574  0.4853396391218 1.0
C      1  0.2301126383226  0.2265304015957  0.5088705512032 1.0
C      1  0.7698916660581  0.7734692573057  0.4911276686441 1.0
C      1  0.2031363754337  0.6575930785092  0.2920538888942 1.0
C      1  0.7968612755594  0.3424060878135  0.7079469237200 1.0
C      1  0.4441424837837  0.4755223135743  0.2007573551222 1.0
C      1  0.5558570585300  0.5244782929595  0.7992416370206 1.0
C      1  0.5019879916732  0.8447242034709  0.4052515652113 1.0
C      1  0.4980141110330  0.1552742051665  0.5947486855984 1.0
C      1  0.3593616184107  0.6713752065820  0.1841788402632 1.0
C      1  0.6406409540850  0.3286310911699  0.8158237725666 1.0
C      1  0.5134761065078  0.8419763468518  0.4989791032735 1.0
C      1  0.4865253989985  0.1580255822037  0.5010203036692 1.0
C      1  0.5168004412108  0.2574508718594  0.7226523617323 1.0
C      1  0.4832005419707  0.7425481413007  0.2773508294081 1.0
C      1  0.3612328141236  0.3476483518060  0.5828876752609 1.0
C      1  0.6387669416308  0.6523527859912  0.4171126188299 1.0
C      1  0.2298076242912  0.5321917465450  0.2277050718126 1.0
C      1  0.7701930661916  0.4678108082088  0.7722953155193 1.0
C      1  0.7209619391912  0.7587227685841  0.6462034022219 1.0
C      1  0.2790396317310  0.2412762626296  0.3537928131885 1.0
C      1  0.8631166210434  0.4520407779575  0.4042997815052 1.0
C      1  0.1368840100672  0.5479557527423  0.5956977047673 1.0
C      1  0.2861823839688  0.5537643539644  0.3873498753543 1.0
C      1  0.7138134213301  0.4462367987184  0.6126523176440 1.0
C      1  0.7093008735790  0.2463885263864  0.3866877532175 1.0
C      1  0.2906994211604  0.7536108703029  0.6133110185933 1.0
C      1  0.5616496825404  0.2512697648550  0.3670816933892 1.0
C      1  0.4383482923776  0.7487307135701  0.6329203381079 1.0
C      1  0.7161252155099  0.2060827962002  0.5404465191562 1.0
C      1  0.2838753105896  0.7939160798235  0.4595536600329 1.0
C      1  0.5847909833567  0.5718543224270  0.1758542981542 1.0
C      1  0.4152081687832  0.4281455696524  0.8241456619548 1.0
C      1  0.9076541660396  0.4961206966800  0.5656071635508 1.0
C      1  0.0923435720556  0.5038747873331  0.4343906896559 1.0
C      1  0.5123125659018  0.4417608844334  0.8408533902626 1.0
C      1  0.4876883068177  0.5582390236890  0.1591475923342 1.0
C      1  0.5772971995379  0.4573207973282  0.4077577369212 1.0
C      1  0.4227027184199  0.5426788329102  0.5922448700141 1.0
C      1  0.2579993452753  0.1966670172243  0.5940349803769 1.0
C      1  0.7420031732464  0.8033302260876  0.4059634346035 1.0
C      1  0.6478407434240  0.2154131303732  0.6856802702203 1.0
C      1  0.3521618943469  0.7845902701541  0.3143222059221 1.0
C      1  0.6369014635333  0.6332140936585  0.1347807245299 1.0
C      1  0.3631005299314  0.3667833472906  0.8652190051610 1.0
C      1  0.4488275001028  0.6874207210290  0.4120905794433 1.0
C      1  0.5511687935336  0.3125795269850  0.5879114759746 1.0
C      1  0.3599223103004  0.2817407452401  0.8549764243437 1.0
C      1  0.6400820025409  0.7182556814747  0.1450295682295 1.0
C      1  0.1026954671137  0.4047978319323  0.4355453372306 1.0
C      1  0.8973062711564  0.5951979274484  0.5644544705506 1.0
C      1  0.5191532086414  0.7242185387675  0.6866294273297 1.0
C      1  0.4808453990921  0.2757830209141  0.3133715459896 1.0
C      1  0.7707130798632  0.6776788386713  0.6260755329112 1.0
C      1  0.2292880576585  0.3223183728750  0.3739222182950 1.0
C      1  0.1869426696528  0.2506569881082  0.6400001567299 1.0
C      1  0.8130639707174  0.7493417624084  0.3600007355093 1.0
C      1  0.2964145741937  0.2051528345739  0.4393542798347 1.0
C      1  0.7035887190847  0.7948459681718  0.5606436347265 1.0
C      1  0.2093478577652  0.6009415824361  0.6128550871661 1.0
C      1  0.7906507381955  0.3990554488281  0.3871416808641 1.0
C      1  0.4189652437365  0.1556030150453  0.6498070457360 1.0
C      1  0.5810344638631  0.8443957216483  0.3501930449647 1.0
C      1  0.6328072653137  0.5728341171949  0.6660042351673 1.0
C      1  0.3671916211186  0.4271670575398  0.3339947245120 1.0
C      1  0.6098232228364  0.2552751119296  0.7635320953608 1.0
C      1  0.3901768199932  0.7447251971041  0.2364704590609 1.0
C      1  0.4323813273727  0.2002337855725  0.7356578601148 1.0
C      1  0.5676189031025  0.7997640839371  0.2643441495008 1.0
C      1  0.5021313254217  0.4142590070812  0.2606310643973 1.0
C      1  0.4978656769676  0.5857410115478  0.7393703388527 1.0
C      1  0.5085496874954  0.6685445560778  0.5015877937062 1.0
C      1  0.4914507991196  0.3314571108049  0.4984123177175 1.0
C      1  0.6232348407573  0.2951506509213  0.2299664637008 1.0
C      1  0.3767644711816  0.7048521344934  0.7700351773039 1.0
C      1  0.4035914149841  0.3712792838348  0.6602258061307 1.0
C      1  0.5964051946167  0.6287227914367  0.3397759152647 1.0
C      1  0.6991123868742  0.4937760136052  0.2811877914621 1.0
C      1  0.3008848764849  0.5062246608461  0.7188127251422 1.0
C      1  0.1575285905085  0.5755393808669  0.2839562289829 1.0
C      1  0.8424695572863  0.4244604130470  0.7160446836563 1.0
C      1  0.6148623824130  0.5488846963843  0.2742420538107 1.0
C      1  0.3851348317565  0.4511144940042  0.7257572946391 1.0
C      1  0.6730151650233  0.7735527973161  0.7293013562515 1.0
C      1  0.3269878769787  0.2264498081270  0.2706961644918 1.0
C      1  0.3651322941001  0.6606599249655  0.4732744801660 1.0
C      1  0.6348681799166  0.3393386252867  0.5267245408350 1.0
C      1  0.6874888016975  0.5891909655869  0.4707624664342 1.0
C      1  0.3125115226973  0.4108085171131  0.5292373388890 1.0
C      1  0.8829655902891  0.6292361789930  0.4717348021118 1.0
C      1  0.1170372901237  0.3707591670989  0.5282655847265 1.0
C      1  0.5313172090171  0.4547082230454  0.6577252147293 1.0
C      1  0.4686814771001  0.5452939327275  0.3422760083080 1.0
C      1  0.2740802303539  0.3892919184007  0.4486329072887 1.0
C      1  0.7259194720048  0.6107063929527  0.5513689293890 1.0
C      1  0.3405776354072  0.2895902050019  0.2001263959377 1.0
C      1  0.6594236362512  0.7104129414140  0.7998702578230 1.0
C      1  0.2386807405770  0.6865426100832  0.5721717611381 1.0
C      1  0.7613187850593  0.3134566628002  0.4278265983827 1.0
C      1  0.3837000452607  0.1898394118355  0.4977051538903 1.0
C      1  0.6163021766512  0.8101609743839  0.5022936112972 1.0
C      1  0.4318334836854  0.8105367964322  0.5517513503933 1.0
C      1  0.5681645801904  0.1894641919068  0.4482477622205 1.0
C      1  0.8958720754706  0.5485932951901  0.4166502510952 1.0
C      1  0.1041281939446  0.4514029169282  0.5833510261987 1.0
C      1  0.2769731227921  0.4519108372459  0.3758490949238 1.0
C      1  0.7230251333844  0.5480888179006  0.6241490343148 1.0
C      1  0.4795596904201  0.6822734529095  0.7745063269981 1.0
C      1  0.5204400424811  0.3177301135669  0.2254952756901 1.0
C      1  0.3525476362104  0.5606624587997  0.4637214593987 1.0
C      1  0.6474497610250  0.4393363349706  0.5362770017214 1.0
C      1  0.3951909372381  0.4048673202243  0.1494756541808 1.0
C      1  0.6048089978261  0.5951356394823  0.8505244464345 1.0
C      1  0.6964006843187  0.6203726148074  0.8222245073455 1.0
C      1  0.3036003770925  0.3796271958308  0.1777746475913 1.0
C      1  0.1318639565604  0.5661898748247  0.3779846674532 1.0
C      1  0.8681334485617  0.4338075636855  0.6220155003712 1.0
C      1  0.5639126062084  0.6307575622820  0.6756191856125 1.0
C      1  0.4360838327573  0.3692422540041  0.3243821116526 1.0
C      1  0.7412884473431  0.3055186474751  0.5275267481537 1.0
C      1  0.2587091349248  0.6944790711739  0.4724735991425 1.0
C      1  0.8354876707118  0.7337320418228  0.2756304017597 1.0
C      1  0.1645499883961  0.2662726929302  0.7243777182148 1.0
C      1  0.2808005052935  0.5395495206272  0.6348797393331 1.0
C      1  0.7191966904227  0.4604493478660  0.3651193889684 1.0
C      1  0.3155186219812  0.6451680663574  0.8127529695316 1.0
C      1  0.6844847369426  0.3548306160518  0.1872466161649 1.0
C      1  0.3456147276623  0.1646746347539  0.5919282649898 1.0
C      1  0.6543880212754  0.8353239001542  0.4080695561892 1.0
C      1  0.9179879847978  0.4776746774594  0.4729623152150 1.0
C      1  0.0820102926302  0.5223181107039  0.5270371432140 1.0
C      1  0.1621896503992  0.2890406858375  0.5493478320507 1.0
C      1  0.8378146592905  0.7109580087535  0.4506530483764 1.0
C      1  0.2777754031962  0.6275921172064  0.2258273709856 1.0
C      1  0.7222217674981  0.3724133671827  0.7741727609598 1.0
C      1  0.6720912312397  0.1853648518490  0.4565531153917 1.0
C      1  0.3279072718941  0.8146352358129  0.5434458640402 1.0
C      1  0.5746492206325  0.8020248718618  0.7034076940131 1.0
C      1  0.4253517970794  0.1979753157433  0.2965876997179 1.0
C      1  0.6427514437196  0.2567383963673  0.3120854576602 1.0
C      1  0.3572467662066  0.7432608884950  0.6879144141674 1.0
C      1  0.2135108581673  0.6310427181546  0.3966146119677 1.0
C      1  0.7864849911427  0.3689603311383  0.6033842760316 1.0
C      1  0.4476296306742  0.5226577412682  0.4436948995575 1.0
C      1  0.5523668776087  0.4773421059857  0.5563042918234 1.0
C      1  0.5028592804797  0.3553178731828  0.6660778535317 1.0
C      1  0.4971370285412  0.6446832981407  0.3339243651345 1.0
C      1  0.6635533018607  0.4889962840990  0.4462437632709 1.0
C      1  0.3364472033207  0.5110028458438  0.5537553651507 1.0
C      1  0.7610386925887  0.5687994577168  0.7817028843249 1.0
C      1  0.2389554190512  0.4312006889630  0.2182923292127 1.0
C      1  0.5714427455723  0.2975788068606  0.4540136026100 1.0
C      1  0.4285575634684  0.7024211976952  0.5459882971422 1.0
C      1  0.4434824927842  0.7781296322423  0.3650686038672 1.0
C      1  0.5565184511209  0.2218704509771  0.6349342736001 1.0
C      1  0.5482209667635  0.4851458869885  0.3188215034946 1.0
C      1  0.4517764807846  0.5148556865347  0.6811821340810 1.0
C      1  0.3941516271500  0.5090130860171  0.2832928242401 1.0
C      1  0.6058435112612  0.4909890534888  0.7167069746132 1.0
C      1  0.7050158336461  0.1824469810459  0.6268082876645 1.0
C      1  0.2949825241343  0.8175536005589  0.3731905424090 1.0
C      1  0.6862220697612  0.4375618581557  0.7102246835878 1.0
C      1  0.3137741484475  0.5624413105377  0.2897701358429 1.0
C      1  0.6180296346912  0.8701347251985  0.7333615493166 1.0
C      1  0.3819689229117  0.1298680659743  0.2666321595529 1.0
C      1  0.4962536501936  0.5637579123933  0.5247582030427 1.0
C      1  0.5037459907714  0.4362413596850  0.4752423018271 1.0
C      1  0.3738693059885  0.2144731591487  0.8030582859096 1.0
C      1  0.6261356137715  0.7855262261728  0.1969440074380 1.0
C      1  0.5686774356062  0.6820760461734  0.8339574267864 1.0
C      1  0.4313238511588  0.3179273884162  0.1660417596764 1.0
C      1  0.7881371761118  0.5967530793387  0.6886222596388 1.0
C      1  0.2118592690663  0.4032451043986  0.3113739201439 1.0
END
