TITL C-31273-9599-144 -2.894 3375.00 -497.23587363 0 0 61 (C1) n - 1
REM
REM Run started: at 2020.12.30 05:08:43 in /gpfs/home/chem/mssmkc/CARBON/AIRSS/Generating-Clusters/Str-Search/Higher-Symm/C4-100
REM VASP from code version vasp.5.4.4.18Apr17-6-g9f103f2a35 (build Oct 11 2019 16:45:47) gamma-only
REM
REM
REM
REM
REM ./C.cell (6bd13a13d554368a30d355f37ece5b26)
REM AIRSS Version 0.9.1 bugfix July 2018 build 013d7b7c2542+ Fri, 06 Jul 2018 19:26:36 +0100
REM compiler GCC version 6.3.0
REM options -cpp -iprefix /gpfs/warwick/csc/orac/software/Core/GCCcore/6.3.0/bin/../lib/gcc/x86_64-pc-linux-gnu/6.3.0/ -mtune=generic -march=x86-64 -g -O0
REM seed 326394943 1737073992 -1447567106 511918393 411202674 -827220474 1620941272 1727433524 1983781658 -1506975001 -1188293206 -1229978894
REM
REM C.POTCAR (d86ddea03c3ceb6dc662c8ad6801f873)
REM 
CELL 1.54180   15.00000   15.00000   15.00000   90.00000   90.00000   90.00000
LATT -1
SFAC C  
C      1  0.7048271904999  0.5141634568309  0.2952651315412 1.0
C      1  0.3585412141374  0.5875906212057  0.4143577597710 1.0
C      1  0.3099781208445  0.6055643241308  0.4956027072042 1.0
C      1  0.2701101645644  0.3729056717190  0.6087953894745 1.0
C      1  0.7070702529663  0.5616543026984  0.3806594141841 1.0
C      1  0.7631326670739  0.4605684322100  0.3506035548765 1.0
C      1  0.5093186890030  0.4167634672352  0.5893582153104 1.0
C      1  0.4403497929146  0.4555842630457  0.7479773668629 1.0
C      1  0.5953079279567  0.3927222676299  0.3082741903948 1.0
C      1  0.2023145848480  0.4871223010265  0.5386401202873 1.0
C      1  0.2247958567069  0.5635437254117  0.4838911164028 1.0
C      1  0.6630259334377  0.3470159135856  0.5296302589850 1.0
C      1  0.5209341057294  0.3100283910474  0.5806335024806 1.0
C      1  0.6449714050430  0.3480531775898  0.3739284386002 1.0
C      1  0.4306081368980  0.3700559750064  0.7198863517484 1.0
C      1  0.3380877203945  0.3217003603527  0.4735669196003 1.0
C      1  0.6237589445301  0.4766307584565  0.2690248234268 1.0
C      1  0.2533133397205  0.4657546469004  0.6157259369082 1.0
C      1  0.5476197988780  0.6365603842313  0.4067550457790 1.0
C      1  0.2131843423333  0.5238484378711  0.3969745652883 1.0
C      1  0.5059332741050  0.4335309921093  0.3268975840281 1.0
C      1  0.3883219611745  0.5306484392495  0.7120207907603 1.0
C      1  0.7317562090673  0.3849500508036  0.3972714466761 1.0
C      1  0.7889203158097  0.5274122953763  0.4173402017036 1.0
C      1  0.6072613766670  0.5352888385466  0.6230997896759 1.0
C      1  0.4274130216443  0.3219786880370  0.4397109852075 1.0
C      1  0.5653080803926  0.7186905761245  0.5508344277190 1.0
C      1  0.6116998481759  0.3489210795101  0.6084545594488 1.0
C      1  0.3394758215108  0.6093731897190  0.5870755937931 1.0
C      1  0.6048587839833  0.3157638342980  0.4552480359184 1.0
C      1  0.6321772473716  0.5887417770611  0.4485959531939 1.0
C      1  0.7719387887704  0.4927194505664  0.5071170462705 1.0
C      1  0.4576017480597  0.5745066614593  0.3999456891187 1.0
C      1  0.2808978177726  0.3827968213029  0.4221390112961 1.0
C      1  0.3335197808093  0.4352026551255  0.3634470981977 1.0
C      1  0.5381098480755  0.4769612851588  0.7393507570452 1.0
C      1  0.4544614122444  0.3472077093816  0.6387318028329 1.0
C      1  0.6949918207372  0.6370773095148  0.5145751202726 1.0
C      1  0.3019727101320  0.5274170841535  0.3598601885549 1.0
C      1  0.5139736869380  0.2991810206413  0.4824481798624 1.0
C      1  0.5199042250333  0.4693810593737  0.5076132958677 1.0
C      1  0.2098532794796  0.4407733692749  0.4511224022424 1.0
C      1  0.4689836875129  0.7156104581677  0.5682971254465 1.0
C      1  0.5859738098724  0.5289352764872  0.5217372315650 1.0
C      1  0.7351072195971  0.4020562048030  0.4931838984328 1.0
C      1  0.5395021554589  0.7259686092585  0.4526268155323 1.0
C      1  0.4385492058074  0.7589837909751  0.4868036983423 1.0
C      1  0.4254459807618  0.4026129381518  0.3748203907540 1.0
C      1  0.5387009287662  0.5600481026854  0.6964097988170 1.0
C      1  0.5373748513026  0.5193451599313  0.2809502137660 1.0
C      1  0.4815587838110  0.8032867721181  0.4238706841432 1.0
C      1  0.5112935230647  0.5982043605697  0.3207320704342 1.0
C      1  0.4203260104535  0.6513637557022  0.6167134355988 1.0
C      1  0.6490086884720  0.6875248016596  0.5814076123525 1.0
C      1  0.7529574998401  0.5726586675797  0.5584859472793 1.0
C      1  0.5854042962656  0.4374037159341  0.6558261337340 1.0
C      1  0.4522423705268  0.5983153075558  0.6886792173335 1.0
C      1  0.3158380088049  0.5346615511367  0.6474195957235 1.0
C      1  0.4792163602145  0.4755986179452  0.4207647754124 1.0
C      1  0.2983263391811  0.3116543864465  0.5602980684276 1.0
C      1  0.6825889338522  0.5994127579198  0.6185226180924 1.0
END
