TITL C-31273-9599-173 -1.016 3375.00 -167.46029490 0 0 22 (S4) n - 1
REM
REM Run started: at 2020.12.30 10:52:09 in /gpfs/home/chem/mssmkc/CARBON/AIRSS/Generating-Clusters/Str-Search/Higher-Symm/C4-100
REM VASP from code version vasp.5.4.4.18Apr17-6-g9f103f2a35 (build Oct 11 2019 16:45:47) gamma-only
REM
REM
REM
REM
REM ./C.cell (6bd13a13d554368a30d355f37ece5b26)
REM AIRSS Version 0.9.1 bugfix July 2018 build 013d7b7c2542+ Fri, 06 Jul 2018 19:26:36 +0100
REM compiler GCC version 6.3.0
REM options -cpp -iprefix /gpfs/warwick/csc/orac/software/Core/GCCcore/6.3.0/bin/../lib/gcc/x86_64-pc-linux-gnu/6.3.0/ -mtune=generic -march=x86-64 -g -O0
REM seed 818660640 1372512965 -1349408657 1490070999 -1853980252 1655582222 314490024 -839681282 1476641649 708657398 -385194102 -2081700780
REM
REM C.POTCAR (d86ddea03c3ceb6dc662c8ad6801f873)
REM 
CELL 1.54180   15.00000   15.00000   15.00000   90.00000   90.00000   90.00000
LATT -1
SFAC C  
C      1  0.5778921948297  0.4788970072680  0.3542599256556 1.0
C      1  0.4221000343205  0.5210977559311  0.3542621207670 1.0
C      1  0.3835340576508  0.4685503453293  0.5995289637871 1.0
C      1  0.6164925072961  0.5314664052650  0.5995075571089 1.0
C      1  0.4683121799340  0.6167110932105  0.3776898109105 1.0
C      1  0.5316927857243  0.3832732515096  0.3777017327916 1.0
C      1  0.4787711360332  0.4220351199145  0.6233868133188 1.0
C      1  0.5212381107033  0.5779551736479  0.6233842458522 1.0
C      1  0.4725927033870  0.5874025989166  0.5373718181167 1.0
C      1  0.5274152143066  0.4125998920407  0.5373745516674 1.0
C      1  0.5255789810603  0.5984105269895  0.4527099089367 1.0
C      1  0.4744237756362  0.4015884782121  0.4527168072721 1.0
C      1  0.5978948960179  0.4744151133590  0.5245476466876 1.0
C      1  0.4021099358776  0.5255882059138  0.5245503042877 1.0
C      1  0.5871047592351  0.5276615657375  0.4400478920312 1.0
C      1  0.4128965515900  0.4723371047962  0.4400541025609 1.0
C      1  0.3813520434464  0.3895417829746  0.6398427439515 1.0
C      1  0.6113941741811  0.3817595060504  0.3386349297367 1.0
C      1  0.3885940734649  0.6182404266805  0.3386403806818 1.0
C      1  0.6186443472017  0.6104486370072  0.6398489124740 1.0
C      1  0.4999995728266  0.5000175255182  0.3058354228695 1.0
C      1  0.4999659652769  0.5000024837277  0.6718293085343 1.0
END
