TITL C-32361-6883-17 -6.514 3375.00 -1129.97559072 0 0 140 (D2h) n - 1
REM
REM Run started: at 2020.12.22 10:54:10 in /gpfs/home/chem/mssmkc/CARBON/AIRSS/Generating-Clusters/Str-Search/Higher-Symm/C100-200
REM VASP from code version vasp.5.4.4.18Apr17-6-g9f103f2a35 (build Oct 11 2019 16:45:47) gamma-only
REM
REM
REM
REM
REM ./C.cell (533062f00bc710175b3da973d35f2034)
REM AIRSS Version 0.9.1 bugfix July 2018 build 013d7b7c2542+ Fri, 06 Jul 2018 19:26:36 +0100
REM compiler GCC version 6.3.0
REM options -cpp -iprefix /gpfs/warwick/csc/orac/software/Core/GCCcore/6.3.0/bin/../lib/gcc/x86_64-pc-linux-gnu/6.3.0/ -mtune=generic -march=x86-64 -g -O0
REM seed 524463612 1047892797 -1273550937 454727361 1351872727 1931249186 643264047 -1354333143 380748007 -1402795934 1746225627 67419702
REM
REM C.POTCAR (d86ddea03c3ceb6dc662c8ad6801f873)
REM 
CELL 1.54180   15.00000   15.00000   15.00000   90.00000   90.00000   90.00000
LATT -1
SFAC C  
C      1  0.3095483072312  0.3786679556424  0.3295520712880 1.0
C      1  0.3094958849207  0.6213803446107  0.6704090178021 1.0
C      1  0.6905063564983  0.3786177175512  0.3295928241064 1.0
C      1  0.6904491717018  0.6213303078672  0.6704496242065 1.0
C      1  0.3095483307731  0.6213321384541  0.3295519738894 1.0
C      1  0.3094963606997  0.3786194973798  0.6704089207963 1.0
C      1  0.6905062342017  0.6213822032390  0.3295930432004 1.0
C      1  0.6904499706112  0.3786699939956  0.6704502073467 1.0
C      1  0.6829694566980  0.5947609511813  0.2315029816828 1.0
C      1  0.6829442814218  0.4052702065187  0.7685135940983 1.0
C      1  0.3170554596064  0.5947309069768  0.2314875594739 1.0
C      1  0.3170307905958  0.4052395945179  0.7684981270620 1.0
C      1  0.6829694991924  0.4052386934555  0.2315026212232 1.0
C      1  0.6829438218920  0.5947298425090  0.7685130352634 1.0
C      1  0.3170554483439  0.4052691537456  0.2314877360860 1.0
C      1  0.3170305500451  0.5947603911668  0.7684982318411 1.0
C      1  0.5545724143891  0.4486028483749  0.5516808257173 1.0
C      1  0.5545817335924  0.5513997165119  0.4483269102494 1.0
C      1  0.4454183883930  0.4486002940506  0.5516736754864 1.0
C      1  0.4454277633780  0.5513976112095  0.4483197189525 1.0
C      1  0.5545719372585  0.5513977498173  0.5516808193497 1.0
C      1  0.5545818841525  0.4486004146930  0.4483270761385 1.0
C      1  0.4454181266890  0.5513995973045  0.5516736251499 1.0
C      1  0.4454278548729  0.4486025411971  0.4483197815997 1.0
C      1  0.2226369353331  0.5954320525777  0.6296170509570 1.0
C      1  0.2227317500437  0.4045394352784  0.3704315622147 1.0
C      1  0.7772640396312  0.5954628716281  0.6295658454921 1.0
C      1  0.7773669330861  0.4045692531668  0.3703798367579 1.0
C      1  0.2226374829248  0.4045677854355  0.6296171034107 1.0
C      1  0.2227319167920  0.5954607937436  0.3704318082971 1.0
C      1  0.7772649408952  0.4045367582383  0.6295657690094 1.0
C      1  0.7773666299038  0.5954305325902  0.3703805576781 1.0
C      1  0.5773350478477  0.2127578169771  0.6208967535512 1.0
C      1  0.5773321857754  0.7872474673338  0.3791055083115 1.0
C      1  0.4226684783834  0.2127534023753  0.6208948388479 1.0
C      1  0.4226656762778  0.7872435411923  0.3791036164208 1.0
C      1  0.5773351153671  0.7872426663560  0.6208931402395 1.0
C      1  0.5773323113188  0.2127522700918  0.3791082993501 1.0
C      1  0.4226670978477  0.7872475396166  0.6208915679653 1.0
C      1  0.4226643187295  0.2127571055136  0.3791070784779 1.0
C      1  0.8320139723438  0.5427887793913  0.3164773668080 1.0
C      1  0.8321280462214  0.4572253462405  0.6834102485943 1.0
C      1  0.1678772103152  0.5427759071411  0.3165843698738 1.0
C      1  0.1679819242111  0.4572118402046  0.6835170502317 1.0
C      1  0.8320139924147  0.4572117680133  0.3164771640638 1.0
C      1  0.8321271979718  0.5427752023507  0.6834104554442 1.0
C      1  0.1678773901967  0.4572248434064  0.3165842979541 1.0
C      1  0.1679814491710  0.5427879308803  0.6835170913116 1.0
C      1  0.4054208241093  0.6059259161991  0.3721654252514 1.0
C      1  0.4053966219708  0.3940621103372  0.6278173498224 1.0
C      1  0.5946040998728  0.6059378555444  0.3721835997197 1.0
C      1  0.5945789539132  0.3940751594847  0.6278354963314 1.0
C      1  0.4054209146417  0.3940745649241  0.3721654430444 1.0
C      1  0.4053958635635  0.6059374189424  0.6278173660611 1.0
C      1  0.5946044721576  0.3940624056778  0.3721837060513 1.0
C      1  0.5945780922811  0.6059254438309  0.6278356092562 1.0
C      1  0.6691951527647  0.8108068285745  0.3962041322449 1.0
C      1  0.6691973162644  0.1891995917204  0.6037977967274 1.0
C      1  0.3308026145553  0.8108006931584  0.3962026841338 1.0
C      1  0.3308045661661  0.1891942066956  0.6037945104385 1.0
C      1  0.6691829028188  0.1891936486182  0.3962033141722 1.0
C      1  0.6691842188072  0.8107970855547  0.6037979423609 1.0
C      1  0.3308164940987  0.1892020577020  0.3962010075591 1.0
C      1  0.3308176291407  0.8108054485049  0.6037961568547 1.0
C      1  0.5454337581184  0.3091121032525  0.6090114901541 1.0
C      1  0.5454389245787  0.6908919406124  0.3909936786743 1.0
C      1  0.4545617969285  0.3091082986712  0.6090069365306 1.0
C      1  0.4545668274092  0.6908887700541  0.3909890988404 1.0
C      1  0.5454324044067  0.6908876060463  0.6090102058715 1.0
C      1  0.5454391476838  0.3091087051030  0.3909942934166 1.0
C      1  0.4545604355339  0.6908911508616  0.6090057542754 1.0
C      1  0.4545669912188  0.3091122709078  0.3909902332873 1.0
C      1  0.5509852572656  0.5515258093554  0.7048659005267 1.0
C      1  0.5510226310346  0.4484736926058  0.2951440013064 1.0
C      1  0.4489774026597  0.5515262246875  0.7048570323607 1.0
C      1  0.4490142105900  0.4484743431717  0.2951350671621 1.0
C      1  0.5509861413083  0.4484746819615  0.7048657262778 1.0
C      1  0.5510206961216  0.5515277798201  0.2951436145132 1.0
C      1  0.4489796347468  0.4484721120202  0.7048571939626 1.0
C      1  0.4490136921769  0.5515256954476  0.2951350637178 1.0
C      1  0.4537109432090  0.6518301830130  0.1741210730427 1.0
C      1  0.4536938660222  0.3481662655518  0.8258735473111 1.0
C      1  0.5463061127339  0.6518335837159  0.1741270310165 1.0
C      1  0.5462890684695  0.3481697741537  0.8258800657336 1.0
C      1  0.4537107977018  0.3481695963400  0.1741217364875 1.0
C      1  0.4536938091097  0.6518338727071  0.8258730523023 1.0
C      1  0.5463058827889  0.3481662860888  0.1741276320160 1.0
C      1  0.5462888983185  0.6518303466022  0.8258788572131 1.0
C      1  0.2215225728091  0.4428105511167  0.4556040563410 1.0
C      1  0.2214245994474  0.5565840144811  0.5444188602651 1.0
C      1  0.7785807944495  0.4434396632855  0.4555797019712 1.0
C      1  0.7784726695893  0.5572167327365  0.5443942104439 1.0
C      1  0.2215224336683  0.5571891417258  0.4556041036424 1.0
C      1  0.2214243836017  0.4434157752349  0.5444186720492 1.0
C      1  0.7785804267859  0.5565599364537  0.4555801570052 1.0
C      1  0.7784735140640  0.4427827595255  0.5443940872235 1.0
C      1  0.4059604316700  0.5633546944778  0.2012333753179 1.0
C      1  0.4059303157717  0.4366353066993  0.7987542265676 1.0
C      1  0.5940699949426  0.5633646314903  0.2012467648861 1.0
C      1  0.5940391333388  0.4366456173186  0.7987676564213 1.0
C      1  0.4059603844745  0.4366454673252  0.2012333885395 1.0
C      1  0.4059298549507  0.5633644288132  0.7987544549509 1.0
C      1  0.5940702384276  0.4366355001369  0.2012466259115 1.0
C      1  0.5940389716261  0.5633542341700  0.7987677057541 1.0
C      1  0.3225335173805  0.3167509792588  0.2506741890187 1.0
C      1  0.3225223842970  0.6832726675287  0.7493136380668 1.0
C      1  0.6774773229906  0.3167265998990  0.2506869953387 1.0
C      1  0.6774658619998  0.6832481766570  0.7493264449945 1.0
C      1  0.3225338929578  0.6832490413384  0.2506738394561 1.0
C      1  0.3225227600337  0.3167272731642  0.7493136197997 1.0
C      1  0.6774773962100  0.6832731245813  0.2506869667017 1.0
C      1  0.6774663237670  0.3167518654677  0.7493273572212 1.0
C      1  0.4531784906659  0.7857995422924  0.2775629398834 1.0
C      1  0.4531816315289  0.2141963115300  0.7224356654645 1.0
C      1  0.5468189368314  0.7858040332853  0.2775645242033 1.0
C      1  0.5468221581765  0.2142010088392  0.7224374688749 1.0
C      1  0.4531774713339  0.2142003102012  0.2775647344154 1.0
C      1  0.4531804708615  0.7858041164724  0.7224342097646 1.0
C      1  0.5468186547334  0.2141958026891  0.2775660206858 1.0
C      1  0.5468217594137  0.7857992941103  0.7224355685074 1.0
C      1  0.2754720597942  0.8268275036240  0.4542510002062 1.0
C      1  0.2754679552820  0.1731754051143  0.5457541792926 1.0
C      1  0.7245329916083  0.8268239880927  0.4542473816113 1.0
C      1  0.7245284220672  0.1731721436399  0.5457492177672 1.0
C      1  0.2754622901333  0.1731737282638  0.4542630271032 1.0
C      1  0.2754584438411  0.8268235192978  0.5457423439226 1.0
C      1  0.7245394069227  0.1731749557619  0.4542578333084 1.0
C      1  0.7245369949517  0.8268244928023  0.5457387355771 1.0
C      1  0.5934225897892  0.7236776376107  0.7777568090436 1.0
C      1  0.5934266058134  0.2763149933994  0.2222517505971 1.0
C      1  0.4065728004225  0.7236849552248  0.7777487470667 1.0
C      1  0.4065769136749  0.2763220742926  0.2222435049789 1.0
C      1  0.5934232339798  0.2763222875305  0.7777586196062 1.0
C      1  0.5934271495263  0.7236850593683  0.2222506634926 1.0
C      1  0.4065729684150  0.2763149477967  0.7777494670629 1.0
C      1  0.4065771840429  0.7236779879099  0.2222423152146 1.0
C      1  0.5000008848344  0.1779713276438  0.5484263308587 1.0
C      1  0.4999995138495  0.8220290087507  0.4515736913217 1.0
C      1  0.5000004600943  0.8220295831582  0.5484244514053 1.0
C      1  0.4999992407361  0.1779706884780  0.4515754915741 1.0
END
