TITL C-32361-6883-28 -6.989 3375.00 -1180.29560256 0 0 146 (C1) n - 1
REM
REM Run started: at 2020.12.22 20:25:33 in /gpfs/home/chem/mssmkc/CARBON/AIRSS/Generating-Clusters/Str-Search/Higher-Symm/C100-200
REM VASP from code version vasp.5.4.4.18Apr17-6-g9f103f2a35 (build Oct 11 2019 16:45:47) gamma-only
REM
REM
REM
REM
REM ./C.cell (533062f00bc710175b3da973d35f2034)
REM AIRSS Version 0.9.1 bugfix July 2018 build 013d7b7c2542+ Fri, 06 Jul 2018 19:26:36 +0100
REM compiler GCC version 6.3.0
REM options -cpp -iprefix /gpfs/warwick/csc/orac/software/Core/GCCcore/6.3.0/bin/../lib/gcc/x86_64-pc-linux-gnu/6.3.0/ -mtune=generic -march=x86-64 -g -O0
REM seed 1857466783 411633403 -219591662 1002673061 -1502334590 -396151748 -1764304293 754240564 -1545022625 -2109730107 1050019035 -1717821367
REM
REM C.POTCAR (d86ddea03c3ceb6dc662c8ad6801f873)
REM 
CELL 1.54180   15.00000   15.00000   15.00000   90.00000   90.00000   90.00000
LATT -1
SFAC C  
C      1  0.6805558818790  0.6886052631100  0.7565219243845 1.0
C      1  0.7299600247188  0.3949826753134  0.7388042648483 1.0
C      1  0.6193710322753  0.2641422849904  0.7402206238845 1.0
C      1  0.4039703433558  0.2585136821344  0.7191778297045 1.0
C      1  0.2617379264510  0.3892114880655  0.7785920775811 1.0
C      1  0.3538195777775  0.6556238462942  0.7543000759278 1.0
C      1  0.5165147379689  0.7220088145715  0.7869143970651 1.0
C      1  0.3477653720512  0.3603591511004  0.6471040087067 1.0
C      1  0.2555531058569  0.5362609562740  0.7019813161280 1.0
C      1  0.4198993388075  0.6606169892854  0.6189425820925 1.0
C      1  0.6109681539695  0.6914010869444  0.6151432490054 1.0
C      1  0.7339571205972  0.5425094814260  0.6835012386613 1.0
C      1  0.7500916838173  0.3288394795428  0.5772740801678 1.0
C      1  0.5383727598450  0.2540539933601  0.6337927410777 1.0
C      1  0.3140773901579  0.5015602200309  0.4110270007608 1.0
C      1  0.3717302698732  0.6687308139343  0.3983699341427 1.0
C      1  0.5320101349479  0.7374379218678  0.3588838727634 1.0
C      1  0.6959151341227  0.6200155869531  0.4314374013200 1.0
C      1  0.6620448147138  0.4593783427103  0.3296479809852 1.0
C      1  0.5500853405638  0.3038154089457  0.3357675572211 1.0
C      1  0.3984686276892  0.3446780772821  0.4276332572040 1.0
C      1  0.6080266993885  0.5986704021396  0.3780622883182 1.0
C      1  0.5749126918964  0.4594841486805  0.2804883388738 1.0
C      1  0.5192289218636  0.3863379950640  0.3176362193073 1.0
C      1  0.4573968362834  0.4236011082550  0.3939550471203 1.0
C      1  0.4033288462893  0.5117445958227  0.3924560745343 1.0
C      1  0.4377348395737  0.6055062507044  0.3902916778257 1.0
C      1  0.5240367108902  0.6466533204385  0.3767955552242 1.0
C      1  0.5956157736317  0.6742274831782  0.8019184120067 1.0
C      1  0.7197279687286  0.4846034521654  0.7639896882008 1.0
C      1  0.6584999919928  0.3402067547016  0.7737570117868 1.0
C      1  0.5053116795173  0.2770441395862  0.7277969438477 1.0
C      1  0.3492440938607  0.3441000522425  0.7494933372381 1.0
C      1  0.3227883865070  0.5652495837570  0.7658481714168 1.0
C      1  0.4401356703527  0.6676203443722  0.7942422022487 1.0
C      1  0.2837609707582  0.3882870027357  0.2756629406972 1.0
C      1  0.2503100509582  0.6183927848940  0.2760767940277 1.0
C      1  0.4225721184425  0.8364492022123  0.2663772326828 1.0
C      1  0.6860016538946  0.6397133073710  0.3314705327333 1.0
C      1  0.7831018007574  0.5290590187241  0.2609135075135 1.0
C      1  0.7043997327036  0.2924347896234  0.2352734057125 1.0
C      1  0.3330984978066  0.2974771123895  0.2702204591793 1.0
C      1  0.4593234597457  0.7344749539653  0.5835444832151 1.0
C      1  0.6985198592706  0.7150627619640  0.6570401234203 1.0
C      1  0.7733020043716  0.4818335427242  0.6131254653230 1.0
C      1  0.6925506532553  0.2525827885797  0.5730364967111 1.0
C      1  0.4756814107423  0.2908886392948  0.5688344682581 1.0
C      1  0.2599399592450  0.3963693722763  0.6203100748191 1.0
C      1  0.2647468985282  0.5978817158898  0.6299186270237 1.0
C      1  0.5930600521731  0.4538802917421  0.6222431511542 1.0
C      1  0.5114952829635  0.4295030628489  0.6751980516388 1.0
C      1  0.4120271260126  0.4309567971952  0.6218884898046 1.0
C      1  0.4449559098511  0.5066209114268  0.6776822353971 1.0
C      1  0.4794737682588  0.5915254139903  0.6404969160813 1.0
C      1  0.5724305684589  0.6077998972608  0.6417515183953 1.0
C      1  0.6265709549765  0.5298704752273  0.6754009275153 1.0
C      1  0.2670663280654  0.4181816284760  0.3788074984949 1.0
C      1  0.2752950394831  0.6469002283055  0.3773921629390 1.0
C      1  0.4513997055720  0.8040854607934  0.3561691291779 1.0
C      1  0.6951711143969  0.7207376144222  0.3872510740861 1.0
C      1  0.7600548674670  0.4952264643626  0.3516466385857 1.0
C      1  0.6432518184993  0.2642303230745  0.3189322005563 1.0
C      1  0.3908844742302  0.2728096992146  0.3510341715126 1.0
C      1  0.1912099887415  0.6836606922152  0.2523643703834 1.0
C      1  0.4306311387655  0.9103949502845  0.2173438482406 1.0
C      1  0.7678643646838  0.6268037566770  0.2747256335184 1.0
C      1  0.7847780846421  0.4551053108414  0.1997826667350 1.0
C      1  0.6978478522239  0.2169167430856  0.1814406673111 1.0
C      1  0.3140280697420  0.2198222154294  0.2094113212161 1.0
C      1  0.1866296901615  0.3802046118107  0.2535231819858 1.0
C      1  0.6123920845807  0.1676698036435  0.2986935282929 1.0
C      1  0.3065120216764  0.2221891628975  0.3737897554864 1.0
C      1  0.1667401182568  0.4367792097693  0.3881471701706 1.0
C      1  0.2302581494522  0.7393880870692  0.3924715770710 1.0
C      1  0.5065756426041  0.8926812270008  0.3760609225386 1.0
C      1  0.7937177359497  0.7490970291533  0.3730499343162 1.0
C      1  0.7425649534727  0.4011584512223  0.3403037603517 1.0
C      1  0.7541549968158  0.3758189544046  0.2444839586758 1.0
C      1  0.6500424927145  0.1512836752993  0.2190875975388 1.0
C      1  0.2715373213293  0.2062374933536  0.2878304320593 1.0
C      1  0.1251162950426  0.4017962644873  0.3052141372147 1.0
C      1  0.1860563998165  0.7459181596808  0.3152872891272 1.0
C      1  0.4881160028111  0.9214753809240  0.2921477082681 1.0
C      1  0.8251590339675  0.6953874264121  0.2987569385502 1.0
C      1  0.2358152556003  0.4424876100495  0.7044825883597 1.0
C      1  0.3271424576753  0.6706423479656  0.6545698355577 1.0
C      1  0.5526339234363  0.7540334352119  0.5794879401219 1.0
C      1  0.7378291456227  0.6380955168179  0.7073811469739 1.0
C      1  0.7628512705322  0.3936711178149  0.6486358236308 1.0
C      1  0.6281133564414  0.2394750765562  0.6452186306236 1.0
C      1  0.3840551503689  0.2704302413345  0.6140321188465 1.0
C      1  0.4593318813214  0.6159219653236  0.1606927578523 1.0
C      1  0.5422637704444  0.5860902535753  0.1761498796880 1.0
C      1  0.5458375274461  0.4962513909735  0.1915315394929 1.0
C      1  0.4831555154137  0.4407576621750  0.1298278914349 1.0
C      1  0.4055088788848  0.4382068054788  0.1720155630785 1.0
C      1  0.3338182348490  0.4628244237074  0.2228291961291 1.0
C      1  0.3779054592994  0.6105847473931  0.1827552162223 1.0
C      1  0.7542156270791  0.5375681544215  0.4421112937616 1.0
C      1  0.6898822807660  0.2698584359482  0.4078964396904 1.0
C      1  0.4875696853857  0.2378563547186  0.3841658775442 1.0
C      1  0.2938244134481  0.3544913870346  0.4569143033150 1.0
C      1  0.2473261698809  0.5760052255807  0.4467317831861 1.0
C      1  0.3871063068115  0.7676995657560  0.4309614913897 1.0
C      1  0.6143410340325  0.7771779759683  0.3880982455278 1.0
C      1  0.5359068934503  0.8257112925386  0.5129163536973 1.0
C      1  0.7907877823426  0.7902300726769  0.5324554474130 1.0
C      1  0.7686468431279  0.3797960411881  0.4982784977393 1.0
C      1  0.5975733094264  0.1578137435793  0.4588945473517 1.0
C      1  0.3557300292281  0.2293529369729  0.5233418501036 1.0
C      1  0.1618260476024  0.4405852966154  0.4872569364891 1.0
C      1  0.2801407810570  0.7119693500759  0.5398756978581 1.0
C      1  0.5534061699921  0.1577297410027  0.3799430094566 1.0
C      1  0.2814297782679  0.2490219271012  0.4643478563799 1.0
C      1  0.1638860782666  0.5200235031973  0.4428074126719 1.0
C      1  0.2849461588184  0.7726401748919  0.4662698903445 1.0
C      1  0.5770366569307  0.8599709909721  0.4339792622113 1.0
C      1  0.8221055709759  0.7882832323578  0.4489912437001 1.0
C      1  0.7426449304198  0.3439454632476  0.4166661962066 1.0
C      1  0.4442564584863  0.7904950977634  0.5097377913956 1.0
C      1  0.7570209837733  0.7732080764806  0.6073420620944 1.0
C      1  0.7725550610276  0.4774315897406  0.5155450966213 1.0
C      1  0.6636256135368  0.2184322507204  0.4849264890846 1.0
C      1  0.4454330284234  0.2648152505586  0.4767719572335 1.0
C      1  0.2371457664636  0.3971677086344  0.5334486483642 1.0
C      1  0.2547806469532  0.6219007820949  0.5374888778908 1.0
C      1  0.6220808764685  0.5012556269124  0.7836433657134 1.0
C      1  0.5901653810392  0.4047942735845  0.8139982932627 1.0
C      1  0.5061660679941  0.3777906385928  0.7601835870325 1.0
C      1  0.4162421032647  0.4075994286168  0.8030375203799 1.0
C      1  0.4079210584032  0.5086696430228  0.7744328666656 1.0
C      1  0.4672727535843  0.5740019284914  0.8293161726050 1.0
C      1  0.5739875110935  0.5757137369647  0.8356943844165 1.0
C      1  0.4631735414156  0.5524598976788  0.9263756674702 1.0
C      1  0.5587012372736  0.5503345854386  0.9333770791455 1.0
C      1  0.5806160281261  0.4687077816350  0.9787591481038 1.0
C      1  0.5775842113491  0.3975188791765  0.9133561687028 1.0
C      1  0.4952025058996  0.3679603706548  0.9531477108638 1.0
C      1  0.4197431321987  0.4028488495370  0.9039123388843 1.0
C      1  0.4225161868046  0.4768908664579  0.9668761988855 1.0
C      1  0.5545080237088  0.4417266056146  0.5344525661002 1.0
C      1  0.5910226982652  0.5034132813326  0.3757012784270 1.0
C      1  0.5387479334022  0.4594865754086  0.4463773494225 1.0
C      1  0.4953595230401  0.4366760485953  0.0302138076533 1.0
C      1  0.3124861968169  0.5604194023970  0.2233513423573 1.0
C      1  0.4815981959885  0.3899280017816  0.5726842098844 1.0
END
