TITL C-32449-6225-10 -12.972 3375.00 -2257.44247280 0 0 273 (C1) n - 1
REM
REM Run started: at 2020.11.28 12:43:49 in /rds/project/t2_vol4/rds-t2-cs072/BORA/CARBON/AIRSS/Generating-Clusters/Str-Search/Higher-Symm
REM VASP from code version vasp.5.4.4.18Apr17-6-g9f103f2a35 (build Oct 11 2019 16:45:47) gamma-only
REM
REM
REM
REM
REM ./C.cell (e5ae0387ce4d49c7c0135a1433873289)
REM AIRSS Version 0.9.1 bugfix July 2018 build 013d7b7c2542+ Fri, 06 Jul 2018 19:26:36 +0100
REM compiler GCC version 4.8.5 20150623 (Red Hat 4.8.5-39)
REM options -cpp -mtune=generic -march=x86-64 -g -O0
REM seed 1814654495 -1373955801 -334891550 304680233 1239329264 1293789289 -1215694440 79245984 -181546578 -750290134 4677399 1588608523
REM
REM C.POTCAR (d86ddea03c3ceb6dc662c8ad6801f873)
REM 
CELL 1.54180   15.00000   15.00000   15.00000   90.00000   90.00000   90.00000
LATT -1
SFAC C  
C      1  0.5673384358527  0.2518753292281  0.8685912415332 1.0
C      1  0.2491141974864  0.2717498102621  0.7782757558384 1.0
C      1  0.1036912231022  0.2405270891074  0.4957084653936 1.0
C      1  0.2726139083632  0.2765796585036  0.2087800202298 1.0
C      1  0.6048160267823  0.2463776065878  0.1386779890277 1.0
C      1  0.8452793029621  0.2659656722376  0.3544161087291 1.0
C      1  0.8378601678798  0.2577444894750  0.6792001933180 1.0
C      1  0.5531069995508  0.5389850772426  0.3074633126914 1.0
C      1  0.6951644329134  0.5409097234082  0.4552856297086 1.0
C      1  0.6541974205070  0.5497016114995  0.6013074333828 1.0
C      1  0.5198497173439  0.5538356355905  0.6757097327046 1.0
C      1  0.3708675757893  0.5598919960262  0.6252084113890 1.0
C      1  0.3063509568324  0.5562666031008  0.4788625568371 1.0
C      1  0.3907157933982  0.5517753723935  0.3393510597906 1.0
C      1  0.7070280816921  0.3972929546271  0.0747792561578 1.0
C      1  0.9450829962102  0.4250880861531  0.3779870410336 1.0
C      1  0.8655896448977  0.4082982509752  0.7892101153877 1.0
C      1  0.5079546973386  0.4152036679685  0.9682068986072 1.0
C      1  0.1622978111936  0.4494618685647  0.7662565881000 1.0
C      1  0.0580420942715  0.4957977125485  0.4094253546793 1.0
C      1  0.2883036091149  0.4672594089924  0.1440176985146 1.0
C      1  0.3967825034261  0.3780949569910  0.5602172942876 1.0
C      1  0.3918893848971  0.3439757386022  0.4581063380681 1.0
C      1  0.4586566339843  0.3851748265294  0.3933060235859 1.0
C      1  0.5610302938843  0.3680213550461  0.4064027808645 1.0
C      1  0.6132888064884  0.3348669102132  0.4957697261702 1.0
C      1  0.5805923871853  0.3743287815922  0.5820533146259 1.0
C      1  0.4812804362587  0.3428206516582  0.6064504191960 1.0
C      1  0.2856421972101  0.7268848911112  0.3983545109840 1.0
C      1  0.4480764221776  0.7370302072200  0.2465069581409 1.0
C      1  0.6242062023946  0.6941864894463  0.2476158172819 1.0
C      1  0.7516932778903  0.7305650663255  0.4769805918038 1.0
C      1  0.6623797108358  0.7312285450435  0.6981271048629 1.0
C      1  0.4906599169120  0.7295879861227  0.7357496601149 1.0
C      1  0.2908710719091  0.7324314703596  0.6212459778918 1.0
C      1  0.2589447498910  0.7009433344846  0.7747715723180 1.0
C      1  0.1225268818005  0.7292864982222  0.4685035454040 1.0
C      1  0.2958089579353  0.6875677434400  0.1755593332931 1.0
C      1  0.5567528965139  0.7867052874559  0.1165157575543 1.0
C      1  0.8095986580688  0.6589250641737  0.3368448862322 1.0
C      1  0.8086908689305  0.6835462912265  0.7195552455033 1.0
C      1  0.5695206057962  0.6829575338299  0.9703446920172 1.0
C      1  0.7634207787098  0.7335327249759  0.3726806928731 1.0
C      1  0.7595903101221  0.7536492636101  0.6849204153124 1.0
C      1  0.4989777135225  0.7971078959511  0.8118799919028 1.0
C      1  0.2865653994454  0.7806243122282  0.7168910836662 1.0
C      1  0.1767692525509  0.8105672242186  0.4630460794750 1.0
C      1  0.3114961442537  0.7822926354198  0.2176465017752 1.0
C      1  0.6200252987616  0.7753281785038  0.1886160589496 1.0
C      1  0.0984829993264  0.5755517358788  0.3914357572325 1.0
C      1  0.3718271452132  0.5280801488743  0.1239908611636 1.0
C      1  0.6758907753737  0.4880970528156  0.0948519154349 1.0
C      1  0.9038717149245  0.5220799562553  0.3600576844213 1.0
C      1  0.8547464444946  0.5003025915504  0.7624415733253 1.0
C      1  0.4935650008877  0.5252492254919  0.9597433966820 1.0
C      1  0.2017732775652  0.5429619856377  0.7786283983610 1.0
C      1  0.4681844341111  0.3333996170857  0.1335868983759 1.0
C      1  0.8064128291786  0.2922587479259  0.1959746195007 1.0
C      1  0.9000167904127  0.3375744499635  0.5443899905687 1.0
C      1  0.6970396162309  0.3338183890330  0.8164474054270 1.0
C      1  0.3747859621092  0.3325079575821  0.8397096339883 1.0
C      1  0.1380462017665  0.3448777805117  0.6149758897936 1.0
C      1  0.1583818252366  0.3315801912256  0.3134796692026 1.0
C      1  0.6217687870561  0.7286799505219  0.8965068241361 1.0
C      1  0.3069728570842  0.6504582218251  0.8411841528525 1.0
C      1  0.0735491361000  0.7053767307222  0.5506386025826 1.0
C      1  0.2322509311544  0.6228536916983  0.1977306918960 1.0
C      1  0.5323078599483  0.7080534348019  0.0546498964398 1.0
C      1  0.8274014236740  0.6123830189478  0.2504737394459 1.0
C      1  0.8656878473097  0.6336177709572  0.6635724630400 1.0
C      1  0.3346905177106  0.2516546099593  0.7965979321583 1.0
C      1  0.1436419498204  0.2555907585933  0.5733722867974 1.0
C      1  0.2181255802882  0.2553218280039  0.2773098918919 1.0
C      1  0.5148503263613  0.2502793575941  0.1541330913784 1.0
C      1  0.7892961612911  0.2483500717640  0.2798230527591 1.0
C      1  0.8596567534343  0.2559577350437  0.5914250558242 1.0
C      1  0.6433994515107  0.2496520429060  0.8213352908714 1.0
C      1  0.7856487922876  0.8896412604669  0.5609137240709 1.0
C      1  0.6142162487170  0.8889774257164  0.6941799840588 1.0
C      1  0.4214910513577  0.9064549904103  0.6969304034715 1.0
C      1  0.2933737806584  0.8823876156046  0.5720521891200 1.0
C      1  0.3226964382216  0.8892725412048  0.3808516530943 1.0
C      1  0.4504775205254  0.9033595344203  0.1991340631238 1.0
C      1  0.6493240535603  0.8664544825878  0.3509377183689 1.0
C      1  0.8890612381927  0.5428619515904  0.6822139799519 1.0
C      1  0.6473639895887  0.5703329291489  0.8915149809195 1.0
C      1  0.2667940685297  0.5592980794447  0.8437980283308 1.0
C      1  0.0200454013075  0.6226844915433  0.5582176697161 1.0
C      1  0.2255208671840  0.5232391122259  0.1860919275702 1.0
C      1  0.6010074012070  0.5046111360313  0.1473860539243 1.0
C      1  0.8776866494482  0.5327326799415  0.2702145791505 1.0
C      1  0.6770010534639  0.2027964634107  0.7393821649911 1.0
C      1  0.4160838245641  0.1854104763586  0.7697800996082 1.0
C      1  0.2163034918424  0.2134670536244  0.6256798306790 1.0
C      1  0.2360347130245  0.1857827845205  0.3680261371664 1.0
C      1  0.4422250197294  0.2104403377108  0.2129624794530 1.0
C      1  0.7035619501607  0.2013867873916  0.2758127163496 1.0
C      1  0.8140967403122  0.2086953040083  0.5153770985095 1.0
C      1  0.4629709736393  0.8556895731284  0.6138393846833 1.0
C      1  0.3892126342561  0.8421507958602  0.5400356883059 1.0
C      1  0.4065585016693  0.8583306929551  0.4364556505707 1.0
C      1  0.4868296037758  0.8292684657576  0.3926419627960 1.0
C      1  0.5773549030760  0.8444340381792  0.4226180539156 1.0
C      1  0.6072569387926  0.8393963475042  0.5149973344929 1.0
C      1  0.5627691818210  0.8590564480954  0.6091352699988 1.0
C      1  0.8098263946754  0.3743090239748  0.8654921660236 1.0
C      1  0.4187107428293  0.4058106726060  0.0093204081544 1.0
C      1  0.0792785013124  0.4089061862169  0.7221637310225 1.0
C      1  0.0349960166258  0.4397733495930  0.3303943485778 1.0
C      1  0.3384685502995  0.3940155752834  0.9794389841939 1.0
C      1  0.7938156300905  0.4311321188362  0.1128108061037 1.0
C      1  0.0100183089154  0.4235784516289  0.4641504655215 1.0
C      1  0.7959345751267  0.6366871957078  0.5056593371449 1.0
C      1  0.6587618138068  0.6423671720715  0.7481928329566 1.0
C      1  0.4438368719191  0.6553654875259  0.7629769782571 1.0
C      1  0.2324806315100  0.6487728745624  0.6278679687587 1.0
C      1  0.2296612527699  0.6547223263614  0.3607399487252 1.0
C      1  0.4520889085331  0.6446481641119  0.2046039066773 1.0
C      1  0.6757566601770  0.6188692100412  0.2227613451885 1.0
C      1  0.6793887674846  0.2014933355477  0.1841366230726 1.0
C      1  0.8665835171656  0.2211692398446  0.4404025335751 1.0
C      1  0.7701073648129  0.2169178793470  0.7418941542821 1.0
C      1  0.4768633078451  0.2075227588218  0.8535307470091 1.0
C      1  0.1885995990452  0.2343658381787  0.7131286977513 1.0
C      1  0.1417799189274  0.2065022696873  0.4105370606014 1.0
C      1  0.3561251943343  0.2342771542994  0.1765383186600 1.0
C      1  0.5915263222071  0.4728578486871  0.5586979008056 1.0
C      1  0.5063335909000  0.5078308691072  0.5885335720462 1.0
C      1  0.4132751801451  0.4809032719000  0.5712830119755 1.0
C      1  0.3791002356195  0.4980745656300  0.4838260300454 1.0
C      1  0.4300746847878  0.4851951808423  0.4031935085407 1.0
C      1  0.5943740784396  0.4578880928746  0.3734194610872 1.0
C      1  0.6101402174932  0.4983394550052  0.4627893563139 1.0
C      1  0.1318225102295  0.3194175083516  0.7172425825126 1.0
C      1  0.0999131226114  0.2793756499576  0.3732189299433 1.0
C      1  0.3719136923260  0.3123056808428  0.1257308198506 1.0
C      1  0.7439298612960  0.2544760250495  0.1353828795926 1.0
C      1  0.9382302530295  0.2908934705242  0.4584027900733 1.0
C      1  0.7944757009084  0.2867634931331  0.8103612686107 1.0
C      1  0.4439018480291  0.2863599876380  0.8909853574534 1.0
C      1  0.8139760368388  0.4764044542965  0.5519811851995 1.0
C      1  0.6561613662708  0.4753436430722  0.7554595957008 1.0
C      1  0.4145221260910  0.4921202821724  0.7913916212286 1.0
C      1  0.2145751920993  0.4819971915422  0.5987548369014 1.0
C      1  0.2327161519042  0.4792607156075  0.3419693251390 1.0
C      1  0.4440776404738  0.4837554851733  0.1927824389617 1.0
C      1  0.7532116694392  0.4533716114685  0.3219029679924 1.0
C      1  0.8713516927325  0.6518380872907  0.5671499045864 1.0
C      1  0.6732814619739  0.6555867162073  0.8484003752084 1.0
C      1  0.4005271672572  0.6395594537404  0.8516047020144 1.0
C      1  0.1390215216552  0.6607232280496  0.6059712035919 1.0
C      1  0.1805793351767  0.6436405946901  0.2745980954245 1.0
C      1  0.4685681817262  0.6435824261607  0.0978726085002 1.0
C      1  0.7619675527117  0.5990020603868  0.1811121153328 1.0
C      1  0.1642110595691  0.4922657174458  0.2635584859926 1.0
C      1  0.5117213933070  0.4850110259362  0.1190832387950 1.0
C      1  0.8273711681888  0.4471986093667  0.2591182858884 1.0
C      1  0.9091087698757  0.5006573711241  0.5868435354421 1.0
C      1  0.7007110883269  0.4967910188791  0.8462058619159 1.0
C      1  0.3360523641044  0.4951679985300  0.8634121312355 1.0
C      1  0.1211063412412  0.4973762223742  0.6028278744040 1.0
C      1  0.6668752136844  0.8290988112762  0.2545315011872 1.0
C      1  0.8089961748881  0.7993808678353  0.5295465487897 1.0
C      1  0.6315996195687  0.8151422257755  0.7512765501377 1.0
C      1  0.4306963688642  0.8581237132425  0.7878433886977 1.0
C      1  0.2408390358781  0.8160194639777  0.6283973861853 1.0
C      1  0.2470327551444  0.8178825201543  0.3882644635800 1.0
C      1  0.4050424938381  0.8120691312449  0.1958659314596 1.0
C      1  0.4520788213535  0.2494172450735  0.7038363350537 1.0
C      1  0.3070376034785  0.2470811739362  0.5958478180901 1.0
C      1  0.3021768776753  0.2472890162053  0.4121544398897 1.0
C      1  0.4545527699535  0.2480076559836  0.3031762770866 1.0
C      1  0.6353963422517  0.2327111494367  0.3404303219700 1.0
C      1  0.7205693182240  0.2436304848827  0.5034069700990 1.0
C      1  0.6287483222552  0.2432828162737  0.6623205066604 1.0
C      1  0.5999333840731  0.6272388144286  0.5588408182742 1.0
C      1  0.5103479838513  0.6064075626209  0.5907394791442 1.0
C      1  0.4196200396133  0.6403154747346  0.5708757577315 1.0
C      1  0.3938168807640  0.6231657901276  0.4765030794659 1.0
C      1  0.4553525510517  0.5892474656186  0.4065063332939 1.0
C      1  0.5511083574443  0.6161850409021  0.3776855666835 1.0
C      1  0.6104135700778  0.5986797313358  0.4587452131516 1.0
C      1  0.7919377809303  0.8143979055078  0.6191775306779 1.0
C      1  0.5932615766296  0.7975883635338  0.8403039140794 1.0
C      1  0.3533288764152  0.8484998812782  0.7451206864099 1.0
C      1  0.2052248305888  0.8460044739410  0.5415379249452 1.0
C      1  0.2809877788848  0.8332266056812  0.2951459137549 1.0
C      1  0.4837955880788  0.8481630420682  0.1359415710741 1.0
C      1  0.7204303879878  0.8033917031238  0.3254251737409 1.0
C      1  0.2743781335483  0.5625410820246  0.5861013800572 1.0
C      1  0.2840130477120  0.5606076895481  0.3747501279312 1.0
C      1  0.4572511961717  0.5547453440737  0.2602986176071 1.0
C      1  0.7564368894481  0.5254698702054  0.3846631489978 1.0
C      1  0.7430660113395  0.5513621610177  0.5426477909583 1.0
C      1  0.6230573177432  0.5549960693507  0.7024350958263 1.0
C      1  0.4285110149715  0.5635499021190  0.7181385375310 1.0
C      1  0.8574477256128  0.3259960976307  0.7452709154809 1.0
C      1  0.5235875776872  0.3309031724746  0.9141128892942 1.0
C      1  0.2002679768500  0.3597873837873  0.7772241748589 1.0
C      1  0.0393257796678  0.3074574420570  0.4509330970184 1.0
C      1  0.2967628766925  0.3663982369302  0.1536074653129 1.0
C      1  0.6767983826089  0.3090466163575  0.0948357679017 1.0
C      1  0.9014522013603  0.3358935412647  0.3778385257714 1.0
C      1  0.6320289393121  0.3354454866485  0.6595021834202 1.0
C      1  0.4592745058436  0.3425133900265  0.7059434435855 1.0
C      1  0.3098186418706  0.3393458774646  0.5947731121974 1.0
C      1  0.2978973759463  0.3382237458823  0.4153131081130 1.0
C      1  0.4485482067654  0.3431136999756  0.3016544017656 1.0
C      1  0.6244289185441  0.3245772497576  0.3404489939038 1.0
C      1  0.7211593979733  0.3354068801957  0.5011760660871 1.0
C      1  0.6691005688921  0.4082570949128  0.3270444956173 1.0
C      1  0.8043770042029  0.3891400315073  0.5263436430411 1.0
C      1  0.6642601060342  0.3864613752334  0.7346963529630 1.0
C      1  0.4289016841738  0.3955312003369  0.7761851598523 1.0
C      1  0.2295321828701  0.3909238006955  0.6024623375983 1.0
C      1  0.2337265282860  0.3911873642401  0.3668750047719 1.0
C      1  0.4493042778747  0.3885931727442  0.2206652512816 1.0
C      1  0.2150398077060  0.6304993740460  0.7283371738010 1.0
C      1  0.1464424090251  0.6542326371141  0.4214532903022 1.0
C      1  0.3728386317052  0.6345393928584  0.1421754361703 1.0
C      1  0.6134503891791  0.5489110260020  0.2285792613536 1.0
C      1  0.8318010458864  0.5889914587167  0.4060437618468 1.0
C      1  0.7557055159629  0.6329157384263  0.7848069603627 1.0
C      1  0.5731587419913  0.5852598152193  0.9432739034192 1.0
C      1  0.5703518329132  0.2001271427046  0.5913570291824 1.0
C      1  0.4753083834662  0.2398047264744  0.6062847982964 1.0
C      1  0.3895093412626  0.2033078182233  0.5519105989070 1.0
C      1  0.3946654102188  0.2401911094464  0.4555901961950 1.0
C      1  0.4686467536428  0.2006824279888  0.3898004756623 1.0
C      1  0.5762223309892  0.1919586172469  0.4139406870930 1.0
C      1  0.6157398087502  0.2318861200570  0.5003803103905 1.0
C      1  0.9397293586079  0.5886714777007  0.5449524139416 1.0
C      1  0.7826615408139  0.5433782747953  0.8055948909514 1.0
C      1  0.4230503678946  0.5441076378010  0.8838327450391 1.0
C      1  0.0902155594029  0.5817875966230  0.6062696276093 1.0
C      1  0.1223164385597  0.5762010615497  0.2967778297779 1.0
C      1  0.4606190451268  0.5491099604485  0.0595411583991 1.0
C      1  0.7601111808019  0.5252265872256  0.1210045938201 1.0
C      1  0.3773559122093  0.0686305674419  0.4381984339982 1.0
C      1  0.4626231097169  0.0954371898518  0.3855361409944 1.0
C      1  0.5669455741194  0.0897211419553  0.4223448891436 1.0
C      1  0.5958243674058  0.0583774551374  0.5159622531964 1.0
C      1  0.5567921777656  0.0978313023356  0.6019601545573 1.0
C      1  0.4546349501739  0.0744222753353  0.6220593257866 1.0
C      1  0.3830149461727  0.1001545142866  0.5463982024646 1.0
C      1  0.5217972581800  0.7671278524743  0.6394094908463 1.0
C      1  0.3658520611254  0.7374006387971  0.5556557354943 1.0
C      1  0.3443049515868  0.7055657906763  0.4632957282021 1.0
C      1  0.4935137917171  0.7615514271754  0.3208228265886 1.0
C      1  0.5675968976871  0.6979397922993  0.3245602840529 1.0
C      1  0.6622217104914  0.7654968180994  0.5252231619862 1.0
C      1  0.6156511257517  0.7189366913548  0.6018036183253 1.0
C      1  0.2895452850473  0.0848154086417  0.3868554504071 1.0
C      1  0.4592662265829  0.0476925313951  0.2989006814997 1.0
C      1  0.6181024608493  0.0346345945426  0.3614387726304 1.0
C      1  0.6733345158581  0.0138865152890  0.5250974087310 1.0
C      1  0.6062323104413  0.0565963159594  0.6768194571395 1.0
C      1  0.4218147111682  0.0936108835783  0.7172826345713 1.0
C      1  0.3028210672730  0.0540718525383  0.5773355251253 1.0
C      1  0.8305340968023  0.3837387574675  0.1861825724477 1.0
C      1  0.9714451318836  0.4190671653094  0.5635959892365 1.0
C      1  0.7237758940916  0.4057761034637  0.8807315129669 1.0
C      1  0.3220113747742  0.4009693836066  0.8919657430665 1.0
C      1  0.0644157630342  0.4181696448043  0.6183906064829 1.0
C      1  0.1054502304082  0.4107403041596  0.2740774455490 1.0
C      1  0.4938761182201  0.4027157594151  0.0693555797535 1.0
C      1  0.6523871192012  0.9611295329931  0.3531708620891 1.0
C      1  0.7376046798034  0.9615956759142  0.5420203231720 1.0
C      1  0.6151444205420  0.9802291400485  0.7082053953731 1.0
C      1  0.4273585930307  0.0072466750971  0.6918512893933 1.0
C      1  0.2848973491795  0.9752244245638  0.5887397662060 1.0
C      1  0.3143579141615  0.9971255382668  0.3948648978002 1.0
C      1  0.4564885432686  0.9809142885833  0.2497510584277 1.0
END
