TITL C-32361-6883-2 -7.672 3375.00 -1347.62373379 0 0 164 (Cs) n - 1
REM
REM Run started: at 2020.12.21 22:13:07 in /gpfs/home/chem/mssmkc/CARBON/AIRSS/Generating-Clusters/Str-Search/Higher-Symm/C100-200
REM VASP from code version vasp.5.4.4.18Apr17-6-g9f103f2a35 (build Oct 11 2019 16:45:47) gamma-only
REM
REM
REM
REM
REM ./C.cell (533062f00bc710175b3da973d35f2034)
REM AIRSS Version 0.9.1 bugfix July 2018 build 013d7b7c2542+ Fri, 06 Jul 2018 19:26:36 +0100
REM compiler GCC version 6.3.0
REM options -cpp -iprefix /gpfs/warwick/csc/orac/software/Core/GCCcore/6.3.0/bin/../lib/gcc/x86_64-pc-linux-gnu/6.3.0/ -mtune=generic -march=x86-64 -g -O0
REM seed 1630965593 -272157441 1665000106 82374634 1148549197 1337623088 -2039744346 492178119 709329299 1269402988 205076049 1855423263
REM
REM C.POTCAR (d86ddea03c3ceb6dc662c8ad6801f873)
REM 
CELL 1.54180   15.00000   15.00000   15.00000   90.00000   90.00000   90.00000
LATT -1
SFAC C  
C      1  0.4527111195129  0.3991468254556  0.8700021435227 1.0
C      1  0.5472891958653  0.3991476664817  0.8700006494255 1.0
C      1  0.8642803621644  0.4697908265404  0.4012948861362 1.0
C      1  0.1357183986504  0.4697922879508  0.4012967875331 1.0
C      1  0.1542949046212  0.6832732058519  0.5246683060116 1.0
C      1  0.8457071194416  0.6832746216492  0.5246658952091 1.0
C      1  0.4494132239467  0.2983394307338  0.2946586344862 1.0
C      1  0.5505880299087  0.2983402642923  0.2946587255006 1.0
C      1  0.6943109915032  0.6767961141474  0.7133772928647 1.0
C      1  0.3056899011530  0.6767955407127  0.7133805181558 1.0
C      1  0.4075617880344  0.3700323609977  0.2419821353413 1.0
C      1  0.5924375584932  0.3700332504575  0.2419821785774 1.0
C      1  0.1054123876387  0.5110517827111  0.4887980709421 1.0
C      1  0.8945882912701  0.5110516335946  0.4887946667052 1.0
C      1  0.4032754569200  0.2042919226339  0.5996187352450 1.0
C      1  0.5967239604657  0.2042940743803  0.5996146262410 1.0
C      1  0.5543659893735  0.4782917930005  0.7211340293084 1.0
C      1  0.4456341957468  0.4782929428699  0.7211352329099 1.0
C      1  0.5863530968432  0.6734657558707  0.2340276383028 1.0
C      1  0.4136455070600  0.6734655352807  0.2340285813413 1.0
C      1  0.6884096656734  0.7952366129649  0.5749230665428 1.0
C      1  0.3115905178334  0.7952363765225  0.5749246403940 1.0
C      1  0.6020180004086  0.6578523170999  0.7412963901695 1.0
C      1  0.3979833613488  0.6578522358120  0.7412975729751 1.0
C      1  0.6694096218317  0.4098677330612  0.2729777277289 1.0
C      1  0.3305884267902  0.4098672786325  0.2729780848503 1.0
C      1  0.2911873930122  0.7079571275225  0.6179304923717 1.0
C      1  0.7088139428090  0.7079580847349  0.6179277285141 1.0
C      1  0.5489667704687  0.7549770141769  0.2663870137945 1.0
C      1  0.4510311274681  0.7549745947550  0.2663879540436 1.0
C      1  0.7050570896330  0.5000420301689  0.4697256398657 1.0
C      1  0.2949434595391  0.5000404764935  0.4697256435520 1.0
C      1  0.6985977562104  0.4739641168466  0.8128863970787 1.0
C      1  0.3014031946946  0.4739634255135  0.8128895770741 1.0
C      1  0.5513178462474  0.8338044210850  0.5256240929758 1.0
C      1  0.4486816325529  0.8338030432440  0.5256238689871 1.0
C      1  0.3349874006903  0.6324877778200  0.5628861152541 1.0
C      1  0.6650124337817  0.6324865994072  0.5628828982584 1.0
C      1  0.3994262881437  0.8077938461769  0.3349184655012 1.0
C      1  0.6005727627703  0.8077965787478  0.3349187115530 1.0
C      1  0.4075595533593  0.2029478951425  0.2778289971170 1.0
C      1  0.5924407278678  0.2029466271074  0.2778274881260 1.0
C      1  0.5477192985300  0.9054901369143  0.4547614802017 1.0
C      1  0.4522786015787  0.9054871157150  0.4547611166214 1.0
C      1  0.6065936330303  0.4805055763502  0.4719052125288 1.0
C      1  0.3934054140506  0.4805054418179  0.4719052654384 1.0
C      1  0.6796446622013  0.7816536058431  0.3904155951488 1.0
C      1  0.3203556918858  0.7816517943623  0.3904169175374 1.0
C      1  0.2068009578546  0.7287191656773  0.4623388362349 1.0
C      1  0.7931991891468  0.7287203566868  0.4623373178390 1.0
C      1  0.2648167818547  0.5586148742239  0.9629816300605 1.0
C      1  0.7351858042730  0.5585985963419  0.9629831165794 1.0
C      1  0.6337337517419  0.2441807254093  0.5255120218870 1.0
C      1  0.3662672257978  0.2441808883273  0.5255144583748 1.0
C      1  0.6201239917910  0.6305498384494  0.3158851172251 1.0
C      1  0.3798737769384  0.6305495599771  0.3158842622448 1.0
C      1  0.2465617557473  0.3945677128472  0.6739870118155 1.0
C      1  0.7534399882293  0.3945669295996  0.6739850711959 1.0
C      1  0.1234719778639  0.5901105258843  0.5302426696085 1.0
C      1  0.8765300479089  0.5901109578603  0.5302394113602 1.0
C      1  0.2763721027130  0.5572643647634  0.5429224216853 1.0
C      1  0.7236293520282  0.5572631383484  0.5429191367196 1.0
C      1  0.1430320285253  0.5014362336624  0.3013289860151 1.0
C      1  0.8569665856356  0.5014385535042  0.3013267572755 1.0
C      1  0.4511553315202  0.6030386071255  0.1826246535618 1.0
C      1  0.5488423231505  0.6030383027087  0.1826243030993 1.0
C      1  0.8726008979615  0.3789078035411  0.4506381641634 1.0
C      1  0.1274007519469  0.3789079632720  0.4506413779008 1.0
C      1  0.1902803215466  0.2559093655349  0.2595037774611 1.0
C      1  0.8097184019016  0.2559120224995  0.2594994857738 1.0
C      1  0.6699043851518  0.3290908710866  0.5605976297128 1.0
C      1  0.3300955432506  0.3290888990290  0.5606010105033 1.0
C      1  0.5991740527590  0.5198887681720  0.1915952381572 1.0
C      1  0.4008262783511  0.5198878937874  0.1915943255886 1.0
C      1  0.2433825838187  0.4694956984006  0.7339166537543 1.0
C      1  0.7566194291304  0.4694954646371  0.7339152363090 1.0
C      1  0.8116129664523  0.3899730430625  0.5968628794081 1.0
C      1  0.1883892637947  0.3899715698367  0.5968648731797 1.0
C      1  0.4530895749231  0.4388485315412  0.1924869464396 1.0
C      1  0.5469099017611  0.4388484779553  0.1924883130440 1.0
C      1  0.2181013223074  0.6417699495965  0.7147708407790 1.0
C      1  0.7818990204571  0.6417707208635  0.7147683549870 1.0
C      1  0.8061583028656  0.5729838732180  0.6001277362399 1.0
C      1  0.1938419208016  0.5729839832224  0.6001310030100 1.0
C      1  0.6201324067157  0.0659103384388  0.5995335704056 1.0
C      1  0.3798664732029  0.0659113365311  0.5995557928850 1.0
C      1  0.5510064755097  0.3975599219746  0.4519657843432 1.0
C      1  0.4489930259206  0.3975610664360  0.4519665329460 1.0
C      1  0.2564180367908  0.7075102481099  0.3786617507700 1.0
C      1  0.7435818469433  0.7075121088484  0.3786595227634 1.0
C      1  0.4519504262568  0.1170359162248  0.6018077949619 1.0
C      1  0.5480516885243  0.1170380901256  0.6018007852146 1.0
C      1  0.7191646296985  0.7926493158261  0.4836824070289 1.0
C      1  0.2808353851524  0.7926484009968  0.4836843799718 1.0
C      1  0.1974556395214  0.6763820887896  0.6168838119749 1.0
C      1  0.8025454751649  0.6763823010860  0.6168814028657 1.0
C      1  0.4504868290693  0.8810045052432  0.3606833895160 1.0
C      1  0.5495097631783  0.8810054723925  0.3606841766254 1.0
C      1  0.2356295550461  0.3327050639311  0.5374865580248 1.0
C      1  0.7643716399400  0.3327063614525  0.5374851304827 1.0
C      1  0.7340824416435  0.3833031367751  0.3384745121584 1.0
C      1  0.2659180400654  0.3833029514237  0.3384768243763 1.0
C      1  0.1360628304229  0.4246159460368  0.2544397573750 1.0
C      1  0.8639350455118  0.4246191327674  0.2544373188214 1.0
C      1  0.8012694236692  0.3143957032794  0.4570014027510 1.0
C      1  0.1987311727264  0.3143957682784  0.4570047334005 1.0
C      1  0.4504889938737  0.2735643486243  0.7568079098960 1.0
C      1  0.5495128964499  0.2735641250823  0.7568055006918 1.0
C      1  0.2529743634445  0.2267195400312  0.3183956212677 1.0
C      1  0.7470254781186  0.2267198709955  0.3183932209707 1.0
C      1  0.5478389617198  0.7349181596000  0.7411084020558 1.0
C      1  0.4521626802010  0.7349179803587  0.7411087572621 1.0
C      1  0.2691203573030  0.2975530134006  0.3919646752583 1.0
C      1  0.7308786233612  0.2975522612894  0.3919635576388 1.0
C      1  0.3930198173475  0.4355148648349  0.7985513695476 1.0
C      1  0.6069801638914  0.4355148764667  0.7985495840758 1.0
C      1  0.5490567391264  0.5999751200235  0.3683149397821 1.0
C      1  0.4509412022355  0.5999754068178  0.3683138505312 1.0
C      1  0.5871569748376  0.3371162463358  0.8175424840443 1.0
C      1  0.4128439302773  0.3371160073662  0.8175444728681 1.0
C      1  0.7960158449208  0.5465450031399  0.6989540188773 1.0
C      1  0.2039849003919  0.5465451395346  0.6989546094912 1.0
C      1  0.3205533355194  0.5001942883315  0.2455624069061 1.0
C      1  0.6794440622008  0.5001956844248  0.2455603404840 1.0
C      1  0.3592399838476  0.2508816426004  0.4249261070828 1.0
C      1  0.6407622663865  0.2508825824529  0.4249236521716 1.0
C      1  0.4549143794020  0.4349097911449  0.6251816082481 1.0
C      1  0.5450853205209  0.4349088678222  0.6251815380068 1.0
C      1  0.5504374649009  0.8115720646457  0.6796521231735 1.0
C      1  0.4495640480933  0.8115728535881  0.6796524363127 1.0
C      1  0.5530448969904  0.5683525170683  0.4647347272989 1.0
C      1  0.4469545667717  0.5683532651749  0.4647347775588 1.0
C      1  0.5432091701058  0.1550632685471  0.2203604987735 1.0
C      1  0.4567889075646  0.1550632729324  0.2203626873310 1.0
C      1  0.5967631368080  0.4074782398743  0.5447098510249 1.0
C      1  0.4032356379240  0.4074777938887  0.5447109744974 1.0
C      1  0.1192285921152  0.4256069336243  0.5347377783739 1.0
C      1  0.8807713670632  0.4256067075213  0.5347369277998 1.0
C      1  0.6622170260542  0.1896727396180  0.3420757602561 1.0
C      1  0.3377816984563  0.1896736743051  0.3420763024887 1.0
C      1  0.6108101058490  0.2623465282763  0.6816572869193 1.0
C      1  0.3891899832503  0.2623466748341  0.6816592877805 1.0
C      1  0.2405164588890  0.4704188038884  0.3908626303404 1.0
C      1  0.7594837956910  0.4704185759071  0.3908609366999 1.0
C      1  0.5472998595819  0.5800894789018  0.7346860691438 1.0
C      1  0.4527003375745  0.5800894172807  0.7346879811401 1.0
C      1  0.2473585764366  0.5414790261477  0.3060134278534 1.0
C      1  0.7526406850462  0.5414807719490  0.3060097373338 1.0
C      1  0.3954744515394  0.8301337196909  0.6064141340221 1.0
C      1  0.6045266869158  0.8301327950712  0.6064138322552 1.0
C      1  0.4541887426545  0.7321990028419  0.4985759144352 1.0
C      1  0.5458106745742  0.7321993213093  0.4985756352002 1.0
C      1  0.2817381312150  0.6305730723813  0.3335064018904 1.0
C      1  0.7182607545326  0.6305737339276  0.3335047357995 1.0
C      1  0.5581107025983  0.3089016468289  0.3989776178078 1.0
C      1  0.4418892109937  0.3089001964775  0.3989788929789 1.0
C      1  0.2796935724834  0.5164189523164  0.8897026626489 1.0
C      1  0.7203096977402  0.5164161967630  0.8897027872719 1.0
C      1  0.3218832811560  0.3270979776735  0.6601690797634 1.0
C      1  0.6781184068532  0.3270946318327  0.6601684117387 1.0
C      1  0.4101065879626  0.6479723159913  0.5146920764775 1.0
C      1  0.5898922592875  0.6479715202888  0.5146914577728 1.0
C      1  0.1825395599120  0.3492531961390  0.2681926712373 1.0
C      1  0.8174557934377  0.3492563665429  0.2681906026210 1.0
END
