TITL C-32449-6225-8 -12.906 3375.00 -2368.24436850 0 0 287 (C1) n - 1
REM
REM Run started: at 2020.11.28 07:34:29 in /rds/project/t2_vol4/rds-t2-cs072/BORA/CARBON/AIRSS/Generating-Clusters/Str-Search/Higher-Symm
REM VASP from code version vasp.5.4.4.18Apr17-6-g9f103f2a35 (build Oct 11 2019 16:45:47) gamma-only
REM
REM
REM
REM
REM ./C.cell (e5ae0387ce4d49c7c0135a1433873289)
REM AIRSS Version 0.9.1 bugfix July 2018 build 013d7b7c2542+ Fri, 06 Jul 2018 19:26:36 +0100
REM compiler GCC version 4.8.5 20150623 (Red Hat 4.8.5-39)
REM options -cpp -mtune=generic -march=x86-64 -g -O0
REM seed 2038161400 -394642756 1034580855 1022089226 220235411 1971693423 -342209256 -1691719993 -124065925 1586450480 857511162 2052945089
REM
REM C.POTCAR (d86ddea03c3ceb6dc662c8ad6801f873)
REM 
CELL 1.54180   15.00000   15.00000   15.00000   90.00000   90.00000   90.00000
LATT -1
SFAC C  
C      1  0.2561810747170  0.3547583722454  0.5826437068303 1.0
C      1  0.5310257822269  0.2210492762160  0.5688429965835 1.0
C      1  0.8107740558466  0.4476484334489  0.5501870661813 1.0
C      1  0.6342938246473  0.7545029826948  0.5898784619889 1.0
C      1  0.3160363587936  0.7083758343509  0.5685503056993 1.0
C      1  0.7581241378862  0.3571979928341  0.4099004081858 1.0
C      1  0.4689463648975  0.2204303531717  0.4307984336056 1.0
C      1  0.2032858987481  0.4439919639537  0.4446956121384 1.0
C      1  0.3651990481775  0.7536803176736  0.4125044062675 1.0
C      1  0.6866282583955  0.7095799668394  0.4325581299342 1.0
C      1  0.7012662617661  0.3692565329503  0.6085616327835 1.0
C      1  0.7024712583079  0.6451155570816  0.6508467502027 1.0
C      1  0.4241011592074  0.6893826105878  0.6803850729550 1.0
C      1  0.2737949760713  0.4884230449954  0.6338446394688 1.0
C      1  0.4298288258093  0.2950553995987  0.6635641613194 1.0
C      1  0.3004005611134  0.3628194809244  0.3825318166502 1.0
C      1  0.2969570939609  0.6444110317145  0.3506990237710 1.0
C      1  0.5766690051494  0.6909683644465  0.3207270001200 1.0
C      1  0.7331345087861  0.4891447743940  0.3586886109407 1.0
C      1  0.5701529130342  0.2934221052911  0.3362537773729 1.0
C      1  0.7761145721371  0.6873320878384  0.2073189110996 1.0
C      1  0.4352279479345  0.8913148646942  0.1929414480880 1.0
C      1  0.1576380724794  0.5092162767753  0.2294628424629 1.0
C      1  0.3678411102665  0.1935474894417  0.2185185039634 1.0
C      1  0.7697008175448  0.3063924241134  0.1870597389315 1.0
C      1  0.2228234002917  0.6866347582060  0.7918382880590 1.0
C      1  0.5628578220064  0.8897921078150  0.8099759684635 1.0
C      1  0.8305134649453  0.5061925771086  0.7818900326308 1.0
C      1  0.6284023709953  0.1988868772136  0.7816984314243 1.0
C      1  0.2268931607863  0.3115923228386  0.8113891154123 1.0
C      1  0.4521445791405  0.4431312743199  0.0296904369108 1.0
C      1  0.6221940824005  0.4745589610009  0.0273078049044 1.0
C      1  0.6043631224269  0.5686982453825  0.0718453936073 1.0
C      1  0.5090569459059  0.5983726458938  0.0520485211580 1.0
C      1  0.4567824050106  0.5194947564439  0.0997357059283 1.0
C      1  0.5401654998479  0.4436074258125  0.9723631333817 1.0
C      1  0.3734319769252  0.4738731034990  0.9703033240883 1.0
C      1  0.3893314988841  0.5675069178184  0.9291163391871 1.0
C      1  0.4841127904519  0.5981012098106  0.9499746327394 1.0
C      1  0.5361805966609  0.5193144718726  0.9026010417043 1.0
C      1  0.5666097359752  0.3970852892447  0.3110865980384 1.0
C      1  0.5399461742217  0.5218660781685  0.4022760845908 1.0
C      1  0.4612115226203  0.5436328949624  0.3631599423796 1.0
C      1  0.4038610423668  0.4809738586037  0.3065567627211 1.0
C      1  0.4779122525487  0.4241809297779  0.2616906846263 1.0
C      1  0.4319910912819  0.3994627855116  0.6888775478179 1.0
C      1  0.4711405059117  0.5194415661201  0.5907952313525 1.0
C      1  0.5553452056536  0.5251925791274  0.6246230454230 1.0
C      1  0.5905066711953  0.4739282952911  0.7013516902736 1.0
C      1  0.5150647393826  0.4280441910107  0.7445824337848 1.0
C      1  0.5307049352569  0.3775064240144  0.4631098761983 1.0
C      1  0.5855309977069  0.4354764551201  0.4038061158558 1.0
C      1  0.5731709299486  0.5880637318150  0.4618575248144 1.0
C      1  0.4022154546559  0.5771294959726  0.4406649818336 1.0
C      1  0.3405465420203  0.5063029409136  0.4035458926526 1.0
C      1  0.4740535906777  0.3769719299297  0.5370621311522 1.0
C      1  0.4200138926184  0.4366905304060  0.5942462194915 1.0
C      1  0.4345797008715  0.5873597431319  0.5336612290078 1.0
C      1  0.6081189499519  0.5759485141309  0.5521723847418 1.0
C      1  0.6854818660177  0.5229664445280  0.5677473794676 1.0
C      1  0.4039763257351  0.9456123326843  0.4296676362715 1.0
C      1  0.0153901268571  0.5465759254033  0.4121828772484 1.0
C      1  0.3387523216137  0.0870045825409  0.4536400736473 1.0
C      1  0.8452082533485  0.1951928878070  0.4345517071391 1.0
C      1  0.8790585820219  0.7198870367043  0.4543824923528 1.0
C      1  0.5975734865620  0.9463919872380  0.5732233696077 1.0
C      1  0.9901457275540  0.5345500783074  0.6092525455518 1.0
C      1  0.6615035359657  0.0882674575085  0.5478617980550 1.0
C      1  0.1569851940269  0.1919860861047  0.5673892679979 1.0
C      1  0.1237257048677  0.7194506116024  0.5516787299163 1.0
C      1  0.3185537736182  0.4681366804356  0.2412807874954 1.0
C      1  0.4514027622154  0.3335290974870  0.2157597490318 1.0
C      1  0.6387527170748  0.4117298446852  0.2387483527209 1.0
C      1  0.6119914464369  0.6408813018065  0.2323123300952 1.0
C      1  0.4129424580998  0.7010700130323  0.1647697673300 1.0
C      1  0.6720030161096  0.4589833421064  0.7449173692329 1.0
C      1  0.5426569376913  0.3360573652683  0.7861358947561 1.0
C      1  0.3579807059155  0.4124951231948  0.7592033442027 1.0
C      1  0.3863779996940  0.6411644944064  0.7692011025084 1.0
C      1  0.5820661024635  0.7000346264564  0.8370167144258 1.0
C      1  0.6842791885256  0.9045659203985  0.6124108743439 1.0
C      1  0.1678240434866  0.7930414440887  0.5918714493463 1.0
C      1  0.1071392455486  0.2638459312835  0.6061795774975 1.0
C      1  0.6066880856670  0.0414263598094  0.6055065576701 1.0
C      1  0.9592343282794  0.4347453461357  0.6191126452753 1.0
C      1  0.3167079735223  0.9045801650954  0.3912757443001 1.0
C      1  0.8336169631237  0.7918659299133  0.4123266073800 1.0
C      1  0.9009535764597  0.2618934302029  0.3947618340737 1.0
C      1  0.3945686209183  0.0404025412534  0.3965366465105 1.0
C      1  0.0168156699038  0.4424697106833  0.4070606558473 1.0
C      1  0.7481557692523  0.6426832617390  0.8373404936648 1.0
C      1  0.4091419792776  0.8090652634375  0.8338191578614 1.0
C      1  0.2252003438419  0.5381860639238  0.8320457841245 1.0
C      1  0.3766812533996  0.2574653999877  0.8480853834944 1.0
C      1  0.7401562845282  0.3143193824850  0.8225567859560 1.0
C      1  0.2443192280889  0.6455434405813  0.1668545120166 1.0
C      1  0.5876019607131  0.8088691224610  0.1693818446256 1.0
C      1  0.7660411237873  0.5397259171294  0.1523290973677 1.0
C      1  0.6182623544464  0.2556019313154  0.1531684053397 1.0
C      1  0.2507630042612  0.3098646840253  0.1817137923819 1.0
C      1  0.5109882805135  0.7365346656440  0.6830159105669 1.0
C      1  0.2758628820410  0.5782239937555  0.6535119918356 1.0
C      1  0.3336419027107  0.2708243973754  0.6955837431736 1.0
C      1  0.6393417869271  0.3084937025525  0.6383046335639 1.0
C      1  0.7473134511458  0.5588929264138  0.6362690070027 1.0
C      1  0.4884686753643  0.7363281594020  0.3181128161367 1.0
C      1  0.7309361679334  0.5797424489359  0.3439655046976 1.0
C      1  0.6674063349461  0.2718801658983  0.3049838436275 1.0
C      1  0.3597019855001  0.3004607445699  0.3556820788670 1.0
C      1  0.2595922046720  0.5546189941052  0.3606989385868 1.0
C      1  0.1491685801926  0.2232597053414  0.4781147412920 1.0
C      1  0.6440331560122  0.0531648261752  0.4527554172164 1.0
C      1  0.9085216408434  0.4484440749647  0.3997764980081 1.0
C      1  0.6366523196081  0.9465877382773  0.4734435731143 1.0
C      1  0.1404692705016  0.7477117270835  0.4599997417683 1.0
C      1  0.8492911482204  0.2275831115390  0.5231488587958 1.0
C      1  0.3575594751773  0.0526775705190  0.5489671961198 1.0
C      1  0.1100354295329  0.4403470149222  0.5713344097265 1.0
C      1  0.3650093520545  0.9466863424564  0.5293187621384 1.0
C      1  0.8629531935072  0.7470994416727  0.5461642769720 1.0
C      1  0.1423841231239  0.3435657598766  0.3165449376646 1.0
C      1  0.5299429945315  0.1143415974392  0.3318111941264 1.0
C      1  0.8765217091703  0.4071570817637  0.3096079182343 1.0
C      1  0.7035872888683  0.8237125820464  0.3051322803991 1.0
C      1  0.2503925320142  0.7879906836389  0.2819007704541 1.0
C      1  0.8487571372872  0.3419339860562  0.6905269251778 1.0
C      1  0.4712397087361  0.1163167992495  0.6691822735010 1.0
C      1  0.1248855124104  0.4063942020834  0.6696173944765 1.0
C      1  0.2982644918963  0.8234908195683  0.6958355475643 1.0
C      1  0.7494565385395  0.7862241571298  0.7221945490728 1.0
C      1  0.5994939487082  0.6606989831200  0.4169837312918 1.0
C      1  0.3573597863949  0.6562294931823  0.4149613633814 1.0
C      1  0.3049893180159  0.4350533254817  0.4587892492354 1.0
C      1  0.5351489808569  0.2955160893163  0.4271097160315 1.0
C      1  0.6881361924883  0.4328729659440  0.4321941277697 1.0
C      1  0.4027992257028  0.6559036709635  0.5832823434589 1.0
C      1  0.6406249939430  0.6574794101432  0.5884647113323 1.0
C      1  0.7080027085837  0.4408762233291  0.5300507196810 1.0
C      1  0.4641040534924  0.2952279836337  0.5719505481904 1.0
C      1  0.3226535227373  0.4331502329760  0.5597124034296 1.0
C      1  0.0435194533298  0.3955083077383  0.4985241580279 1.0
C      1  0.4469151158847  0.0959630035762  0.5686376511813 1.0
C      1  0.9026211317304  0.3108373705737  0.4964259352192 1.0
C      1  0.7935235568064  0.8171981040233  0.5039604365579 1.0
C      1  0.2860348223706  0.8823153079105  0.4846688121364 1.0
C      1  0.9656886466320  0.3717842509485  0.5484518029089 1.0
C      1  0.5545138607789  0.0957428450787  0.4323494232116 1.0
C      1  0.1073199886762  0.3116870289089  0.5113418760215 1.0
C      1  0.2078527510415  0.8183428058337  0.5007703353047 1.0
C      1  0.7156115156509  0.8822439031979  0.5191462289119 1.0
C      1  0.4180422512394  0.2611046944227  0.2794148654517 1.0
C      1  0.7135870617992  0.3515327452185  0.2598019213646 1.0
C      1  0.7061667381341  0.6526007708602  0.2750705927803 1.0
C      1  0.4156234018103  0.7225808707910  0.2625524874322 1.0
C      1  0.2343429729653  0.4840977536371  0.2927941716610 1.0
C      1  0.5803783926578  0.2670507919390  0.7193482734904 1.0
C      1  0.2847564505722  0.3511951086730  0.7368980947489 1.0
C      1  0.2943079277313  0.6524433602713  0.7245527867179 1.0
C      1  0.5826418321468  0.7227879981976  0.7395695082909 1.0
C      1  0.7601611982716  0.4855755560523  0.7063752994180 1.0
C      1  0.6888491089055  0.4062674076725  0.8348413665772 1.0
C      1  0.6532202787294  0.6380892691872  0.8617957573939 1.0
C      1  0.3970529578937  0.7065106404586  0.8542289041519 1.0
C      1  0.3138994900702  0.4871560053332  0.8179998426883 1.0
C      1  0.4659588714453  0.3187568070321  0.8583366436922 1.0
C      1  0.3021571788904  0.3988309017291  0.1661656999466 1.0
C      1  0.3397684252189  0.6402484010317  0.1390900765122 1.0
C      1  0.5974501636771  0.7067744998555  0.1480577295102 1.0
C      1  0.6817582751173  0.4865405207334  0.1751173170042 1.0
C      1  0.5276087543980  0.3178296723763  0.1435982232016 1.0
C      1  0.5769193053192  0.4011684339283  0.1567461952769 1.0
C      1  0.5995133093108  0.5484988330184  0.1764504281287 1.0
C      1  0.5044666402686  0.6839492350969  0.1084932944565 1.0
C      1  0.3647248948555  0.5538683130906  0.1185412653716 1.0
C      1  0.3816453442217  0.3388491726654  0.1403331091769 1.0
C      1  0.4165965845062  0.4022230091056  0.8438200398381 1.0
C      1  0.3955948199198  0.5489608474906  0.8230546664774 1.0
C      1  0.4894496504459  0.6836072354098  0.8941572444552 1.0
C      1  0.6288737610546  0.5521111984707  0.8847567526094 1.0
C      1  0.6106797527119  0.3430133727668  0.8617022428104 1.0
C      1  0.6267378013414  0.1245944300333  0.2955347035920 1.0
C      1  0.8924098127045  0.4569827638229  0.2281567624958 1.0
C      1  0.6299329858763  0.8899241222428  0.3219238858512 1.0
C      1  0.1664322036761  0.7321468072419  0.3005118441062 1.0
C      1  0.1756255647016  0.2487978684312  0.3271088763727 1.0
C      1  0.3747759545503  0.1247778513283  0.7063108983916 1.0
C      1  0.1110283085911  0.4984515938189  0.7086946232665 1.0
C      1  0.3713306185031  0.8904179787456  0.6804885510980 1.0
C      1  0.8345142672328  0.7304137340961  0.7059913231214 1.0
C      1  0.8167022345369  0.2481307325658  0.6761458698961 1.0
C      1  0.4960737424263  0.2165617155180  0.3299358262663 1.0
C      1  0.7729412789985  0.4050673039251  0.3219997459118 1.0
C      1  0.6727249821104  0.7321301192485  0.3334017499041 1.0
C      1  0.3265533448002  0.7331046145678  0.3150773144479 1.0
C      1  0.2156954209763  0.4042370722398  0.3521012636289 1.0
C      1  0.5041450667457  0.2192033847065  0.6696685753151 1.0
C      1  0.2322334148055  0.4035940371391  0.6680811269556 1.0
C      1  0.3287837117398  0.7316502270005  0.6671612652485 1.0
C      1  0.6731383232656  0.7330280523205  0.6877342245379 1.0
C      1  0.7849464697693  0.4062301731284  0.6440337458803 1.0
C      1  0.6575667614326  0.4149090708342  0.1002698844681 1.0
C      1  0.6652680699366  0.6498664113747  0.0916864849865 1.0
C      1  0.4536215406335  0.7667671459699  0.1017740084408 1.0
C      1  0.2903337738445  0.4974163483122  0.1439602283567 1.0
C      1  0.4543424124240  0.3482051700659  0.0709390341553 1.0
C      1  0.3344243400113  0.4163053065433  0.8985578806816 1.0
C      1  0.3271559553565  0.6467094824254  0.9085051514298 1.0
C      1  0.5420616965053  0.7651109217907  0.9006428436163 1.0
C      1  0.7071780096834  0.4951574412368  0.8800769219501 1.0
C      1  0.5381605722785  0.3498094626730  0.9310238932453 1.0
C      1  0.9117276689815  0.5922577882288  0.6092123388904 1.0
C      1  0.5184641221157  0.8848117849529  0.5961958001373 1.0
C      1  0.1488800777316  0.6269653822876  0.5811367272991 1.0
C      1  0.2466117581738  0.1746961326409  0.6054088311439 1.0
C      1  0.6943438916375  0.1780897895925  0.5691197829048 1.0
C      1  0.1016914696353  0.5945048120396  0.4045270313311 1.0
C      1  0.4826352574135  0.8834293192828  0.4065379968136 1.0
C      1  0.8577055830435  0.6265166563400  0.4262659895836 1.0
C      1  0.7562585560766  0.1766730660449  0.3947071371615 1.0
C      1  0.3045102734622  0.1760418227307  0.4306422810501 1.0
C      1  0.3732471709505  0.2378535660221  0.4266380793473 1.0
C      1  0.7273259551178  0.2624423299837  0.3811822913534 1.0
C      1  0.7616313794615  0.6312745624557  0.4201789114773 1.0
C      1  0.4556278091561  0.7957728115418  0.3911919280950 1.0
C      1  0.1777946996145  0.5416222094384  0.4199167593358 1.0
C      1  0.6263622805687  0.2403812701877  0.5722872928510 1.0
C      1  0.2790823294276  0.2599001006635  0.6162407442872 1.0
C      1  0.2419652743480  0.6329964816657  0.5811603225646 1.0
C      1  0.5442998632740  0.7969001425072  0.6108246970830 1.0
C      1  0.8340976946245  0.5439909800373  0.5837152686487 1.0
C      1  0.2442246461235  0.6297269855752  0.8704536705162 1.0
C      1  0.3028630252754  0.3123189845211  0.8771555815607 1.0
C      1  0.6680699013810  0.2620697038363  0.8451794592879 1.0
C      1  0.7797570115871  0.5521891054046  0.8504595000568 1.0
C      1  0.4998402092458  0.8368150269804  0.8580042734609 1.0
C      1  0.7491429565834  0.6329426585202  0.1283535040599 1.0
C      1  0.6914947416298  0.3098867112866  0.1227231128083 1.0
C      1  0.3236435378523  0.2574435860071  0.1583950917273 1.0
C      1  0.2116549071129  0.5565671574654  0.1622970212264 1.0
C      1  0.4972511157758  0.8374105466867  0.1452248499244 1.0
C      1  0.9067407243857  0.4636482496208  0.7705173618902 1.0
C      1  0.6316666295233  0.8975320725867  0.7644445277381 1.0
C      1  0.1748575532453  0.7505687067435  0.7538669295944 1.0
C      1  0.1498979682554  0.2851983185811  0.7739009111920 1.0
C      1  0.6156394059236  0.1161658459815  0.7537441242644 1.0
C      1  0.0823831444717  0.4704276672303  0.2556871422283 1.0
C      1  0.3667598995514  0.8988760671170  0.2388482346559 1.0
C      1  0.8262428183730  0.7484489418104  0.2479922679287 1.0
C      1  0.8441241699256  0.2751155284411  0.2282332662137 1.0
C      1  0.3839689262831  0.1115489404140  0.2471196540547 1.0
C      1  0.7904245002409  0.7154967272299  0.7859077660348 1.0
C      1  0.3639890258505  0.8504604176684  0.7648773369941 1.0
C      1  0.1536400325459  0.5254111897606  0.7802020983516 1.0
C      1  0.3536531062101  0.2005553465168  0.7639810407926 1.0
C      1  0.8019033740801  0.2891840352309  0.7560452424836 1.0
C      1  0.2052856507875  0.7206241524476  0.2185337115189 1.0
C      1  0.6357431993355  0.8501806608101  0.2369485791899 1.0
C      1  0.8461794068688  0.5062625328962  0.1808557193869 1.0
C      1  0.6454033809053  0.2002652725805  0.2375946948920 1.0
C      1  0.1832941150329  0.2885384644131  0.2457807753617 1.0
C      1  0.5797211770945  0.9073960012507  0.3972262769368 1.0
C      1  0.1292038040103  0.6956624132223  0.3828973423731 1.0
C      1  0.2084504903872  0.2078299867130  0.4067292564431 1.0
C      1  0.6853602232126  0.1096681594950  0.3732673412063 1.0
C      1  0.9204462566865  0.5527461636937  0.4095565236446 1.0
C      1  0.4217212336671  0.9084568376660  0.6056117109826 1.0
C      1  0.8773501089379  0.6964914000350  0.6251244511638 1.0
C      1  0.7890236567581  0.2103566959862  0.5934953057146 1.0
C      1  0.3164314631473  0.1083647977880  0.6287993681532 1.0
C      1  0.0937072300232  0.5413877366036  0.6111710151957 1.0
C      1  0.5665163743537  0.0769417255246  0.6895629691632 1.0
C      1  0.9218609282004  0.4073862285823  0.7015298743061 1.0
C      1  0.7022782548138  0.8809921845332  0.7016477008770 1.0
C      1  0.1988667988458  0.8041778447651  0.6839697418345 1.0
C      1  0.1123458321886  0.3093749254466  0.6920155786818 1.0
C      1  0.4345369684432  0.0743852279447  0.3116702721283 1.0
C      1  0.0647858940376  0.4100165892074  0.3208034979826 1.0
C      1  0.2971777662280  0.8818611005253  0.3023661570500 1.0
C      1  0.8031338167376  0.8020190459223  0.3190212873533 1.0
C      1  0.8881554158623  0.3037168465067  0.3058858184631 1.0
C      1  0.8442997697063  0.3914447374789  0.4690387630845 1.0
C      1  0.3070025519904  0.7799475211975  0.4934121902618 1.0
C      1  0.1788403503909  0.3839736702387  0.5217863201989 1.0
C      1  0.6947778227907  0.7797222197904  0.5095405914929 1.0
C      1  0.5003960223573  0.1504788838292  0.5002256977190 1.0
C      1  0.4750386343218  0.4835688517273  0.8251750705607 1.0
C      1  0.5184502937056  0.4828235032990  0.1776047588246 1.0
END
