TITL C-32399-6830-25 -6.654 3375.00 -1080.43536450 0 0 129 (C1) n - 1
REM
REM Run started: at 2020.12.22 16:22:22 in /gpfs/home/chem/mssmkc/CARBON/AIRSS/Generating-Clusters/Str-Search/Higher-Symm/C100-200
REM VASP from code version vasp.5.4.4.18Apr17-6-g9f103f2a35 (build Oct 11 2019 16:45:47) gamma-only
REM
REM
REM
REM
REM ./C.cell (533062f00bc710175b3da973d35f2034)
REM AIRSS Version 0.9.1 bugfix July 2018 build 013d7b7c2542+ Fri, 06 Jul 2018 19:26:36 +0100
REM compiler GCC version 6.3.0
REM options -cpp -iprefix /gpfs/warwick/csc/orac/software/Core/GCCcore/6.3.0/bin/../lib/gcc/x86_64-pc-linux-gnu/6.3.0/ -mtune=generic -march=x86-64 -g -O0
REM seed 131303194 681488871 -670391959 2189667 -1046432069 1544691646 -1130812765 -536430196 703690838 1995025327 1974069938 -512630024
REM
REM C.POTCAR (d86ddea03c3ceb6dc662c8ad6801f873)
REM 
CELL 1.54180   15.00000   15.00000   15.00000   90.00000   90.00000   90.00000
LATT -1
SFAC C  
C      1  0.2657011860997  0.3058727944316  0.3809578247324 1.0
C      1  0.1788613504036  0.6146138605045  0.3879993195759 1.0
C      1  0.1786632779007  0.5322549046741  0.6617383275746 1.0
C      1  0.7715024439412  0.2757464550021  0.3688261566263 1.0
C      1  0.8247327936393  0.6268568425499  0.3873737021288 1.0
C      1  0.8172656438297  0.5410378442782  0.6612432102137 1.0
C      1  0.2601445900170  0.3290532200389  0.5934650719719 1.0
C      1  0.1769713364857  0.6177124401954  0.6169077575529 1.0
C      1  0.1713487445582  0.5302090479213  0.3396819634683 1.0
C      1  0.7516017210449  0.3149688763180  0.6001791911997 1.0
C      1  0.8179832885726  0.6256544877084  0.6162958462710 1.0
C      1  0.8327815020820  0.5400803590319  0.3410357679555 1.0
C      1  0.7011293234193  0.5892506808706  0.7516988906883 1.0
C      1  0.7094257871508  0.2491501530200  0.4444593824043 1.0
C      1  0.7083718180816  0.6742576695426  0.2983866914701 1.0
C      1  0.2906720176537  0.5863419248811  0.7586704714754 1.0
C      1  0.3103867325070  0.2499028477636  0.4399647302748 1.0
C      1  0.2965457594184  0.6625086858666  0.2996565941815 1.0
C      1  0.7110182709641  0.5900003897800  0.2509805272813 1.0
C      1  0.7114435723432  0.2496302779098  0.5453888416728 1.0
C      1  0.7011685401396  0.6733761610826  0.7058300257405 1.0
C      1  0.2928801047930  0.5815200008365  0.2494518664578 1.0
C      1  0.3274206463754  0.2840304788400  0.5337556764223 1.0
C      1  0.2929394367022  0.6685317904119  0.7088143238053 1.0
C      1  0.4525822789171  0.5512298264958  0.1827280300882 1.0
C      1  0.4504338197663  0.7277089409461  0.7006160794472 1.0
C      1  0.4598701067004  0.2077338654339  0.6086222026041 1.0
C      1  0.5524541391180  0.5536992269015  0.1856317073839 1.0
C      1  0.5457453531081  0.7387178934467  0.7029545862334 1.0
C      1  0.5574948655559  0.2063155082733  0.6124074503664 1.0
C      1  0.4475985812250  0.5482783475192  0.8200885846055 1.0
C      1  0.4538166059922  0.7190564978603  0.3084896168560 1.0
C      1  0.4572045859709  0.2048736217399  0.3779586190794 1.0
C      1  0.5465451830250  0.5503098966994  0.8166869851872 1.0
C      1  0.5488607726555  0.7320395013536  0.3055693900329 1.0
C      1  0.5543133894492  0.2101216566381  0.3820189767052 1.0
C      1  0.5486545249392  0.5820119275052  0.5616019873032 1.0
C      1  0.5483989919492  0.4111991026590  0.5675082477809 1.0
C      1  0.5375999308984  0.4858498890741  0.4274787985176 1.0
C      1  0.4024306034273  0.5605236295918  0.6053144303699 1.0
C      1  0.4549033140414  0.3932228494840  0.5965912725326 1.0
C      1  0.4471675911688  0.4719800750453  0.4005337912868 1.0
C      1  0.5621853079305  0.5751014438633  0.4621424996112 1.0
C      1  0.5448453180189  0.4049701368828  0.4737919629936 1.0
C      1  0.5450968299697  0.5005837153078  0.6060867464091 1.0
C      1  0.3963776796126  0.5470971121935  0.4230582961515 1.0
C      1  0.4510741349435  0.3823746391251  0.4469929022933 1.0
C      1  0.4536364491341  0.4851116296207  0.6344422119370 1.0
C      1  0.7603757418925  0.5120206411924  0.2784187250409 1.0
C      1  0.7491514266938  0.6899285557260  0.6242934873632 1.0
C      1  0.8032798216006  0.3837925975461  0.5479475483663 1.0
C      1  0.2454278594351  0.5025650050938  0.2762002970023 1.0
C      1  0.2460515369321  0.6838901282600  0.6250406727561 1.0
C      1  0.1998733680778  0.3827833264452  0.5303318470852 1.0
C      1  0.7471814669746  0.5125842779369  0.7205318379786 1.0
C      1  0.7552531374066  0.6901128571960  0.3806756504154 1.0
C      1  0.7267437177846  0.3490515412381  0.4125388527595 1.0
C      1  0.2465728252621  0.5071904197073  0.7279801441178 1.0
C      1  0.2477321978634  0.6791229808695  0.3813169128372 1.0
C      1  0.2233214232677  0.3732307402549  0.4345362121916 1.0
C      1  0.5485688646278  0.4524915334348  0.8057248167848 1.0
C      1  0.5545775115911  0.2655855881677  0.3003530365347 1.0
C      1  0.5505876771146  0.7617782560127  0.3974832478528 1.0
C      1  0.4491868927621  0.4509665193882  0.8072664210796 1.0
C      1  0.4555016154587  0.2604599630894  0.2963123732659 1.0
C      1  0.4530283212530  0.7291916922541  0.4083340347786 1.0
C      1  0.5551685596929  0.4573427331188  0.1903187626176 1.0
C      1  0.5547314916894  0.2603427115443  0.6940062053398 1.0
C      1  0.5500077246482  0.7674799952552  0.6099820516454 1.0
C      1  0.4556754078064  0.4536809654953  0.1878340173610 1.0
C      1  0.4543837791468  0.2636985309722  0.6893153188650 1.0
C      1  0.4514518134157  0.7370355021890  0.6003235819836 1.0
C      1  0.3985086380918  0.2107437951161  0.5403872910310 1.0
C      1  0.3819348455750  0.6030240908999  0.2074513083079 1.0
C      1  0.3813155392204  0.6887432209356  0.7459100657098 1.0
C      1  0.6229173295563  0.2064121001508  0.5466344297864 1.0
C      1  0.6213988641769  0.6088280336625  0.2128068014572 1.0
C      1  0.6142136344136  0.6945440282137  0.7453118762882 1.0
C      1  0.3908447950968  0.1976772846793  0.4432537792403 1.0
C      1  0.3789067992305  0.6058454296581  0.7993730741590 1.0
C      1  0.3837500491759  0.6837569524421  0.2626647851389 1.0
C      1  0.6188564458822  0.2088513432312  0.4485250208377 1.0
C      1  0.6129242317458  0.6085562880150  0.7925171662848 1.0
C      1  0.6201931755912  0.6932697660703  0.2621118225211 1.0
C      1  0.0443213407416  0.4403332299315  0.4636317636049 1.0
C      1  0.1165205318783  0.5859551967131  0.4570598714983 1.0
C      1  0.1116234636358  0.4985672449154  0.5977266443218 1.0
C      1  0.9515656022167  0.4453513577229  0.4639233109302 1.0
C      1  0.8848056523236  0.5949291901431  0.4575057235373 1.0
C      1  0.8829510846654  0.5069664980574  0.5967882332718 1.0
C      1  0.1061449713724  0.4232868110877  0.5439729392433 1.0
C      1  0.1134670500717  0.5871317271368  0.5495146965472 1.0
C      1  0.0968030955711  0.5047851680592  0.4054169939209 1.0
C      1  0.8909333040431  0.4289768496832  0.5477527826568 1.0
C      1  0.8826902808731  0.5945470105232  0.5493311217564 1.0
C      1  0.9044488018454  0.5135185320288  0.4061587901523 1.0
C      1  0.2902842214426  0.4229365456780  0.7379025512704 1.0
C      1  0.2981127008451  0.3321177029443  0.2967987251350 1.0
C      1  0.2828878326862  0.7303190449827  0.4529181069195 1.0
C      1  0.7072707085810  0.4261979261416  0.7318215122552 1.0
C      1  0.7095768544663  0.3405369829520  0.3145297685396 1.0
C      1  0.7147492644607  0.7412131031159  0.4536693520012 1.0
C      1  0.2930373069186  0.4197336960165  0.2559293064215 1.0
C      1  0.2924705877748  0.3449327841297  0.6782857970298 1.0
C      1  0.2819442297740  0.7330997633138  0.5529275659522 1.0
C      1  0.7158754859368  0.4273802644966  0.2627418357134 1.0
C      1  0.7093673276840  0.3424090423405  0.6822874658731 1.0
C      1  0.7127351653530  0.7407720014925  0.5517446040520 1.0
C      1  0.3827832030966  0.3182299363336  0.7186474968774 1.0
C      1  0.3863210817881  0.4010683343366  0.2183972104916 1.0
C      1  0.3748135554265  0.7695345571605  0.5489404521819 1.0
C      1  0.6212870572732  0.3178347078810  0.7214893547780 1.0
C      1  0.6258232891077  0.4070525030566  0.2257312318530 1.0
C      1  0.6193150742570  0.7727675107792  0.5514073211391 1.0
C      1  0.3873525046142  0.3134081630566  0.2616569347232 1.0
C      1  0.3786523305187  0.3973765726085  0.7748139181704 1.0
C      1  0.3755023117911  0.7659424561413  0.4562141698069 1.0
C      1  0.6200103834707  0.3241077676787  0.2742543699072 1.0
C      1  0.6185089914104  0.4028322955943  0.7694943937514 1.0
C      1  0.6204753523948  0.7712342907830  0.4544515073148 1.0
C      1  0.7498686719860  0.4180543962698  0.4748221968640 1.0
C      1  0.6579073354523  0.5615606389895  0.4437151146279 1.0
C      1  0.7128053851056  0.5026018674969  0.4660641011273 1.0
C      1  0.2531582876324  0.4504625584630  0.4685094752653 1.0
C      1  0.3139637684907  0.5237251591877  0.4743174314125 1.0
C      1  0.3261141393741  0.5427059996469  0.5618287976027 1.0
C      1  0.4017619483642  0.3559024718091  0.5233012249118 1.0
C      1  0.4623382175257  0.6319982903265  0.5625488378181 1.0
C      1  0.4604594699645  0.6263483262120  0.4529639830642 1.0
END
