TITL C-32361-6883-51 -6.842 3375.00 -1193.67503310 0 0 146 (C1) n - 1
REM
REM Run started: at 2020.12.23 15:36:52 in /gpfs/home/chem/mssmkc/CARBON/AIRSS/Generating-Clusters/Str-Search/Higher-Symm/C100-200
REM VASP from code version vasp.5.4.4.18Apr17-6-g9f103f2a35 (build Oct 11 2019 16:45:47) gamma-only
REM
REM
REM
REM
REM ./C.cell (533062f00bc710175b3da973d35f2034)
REM AIRSS Version 0.9.1 bugfix July 2018 build 013d7b7c2542+ Fri, 06 Jul 2018 19:26:36 +0100
REM compiler GCC version 6.3.0
REM options -cpp -iprefix /gpfs/warwick/csc/orac/software/Core/GCCcore/6.3.0/bin/../lib/gcc/x86_64-pc-linux-gnu/6.3.0/ -mtune=generic -march=x86-64 -g -O0
REM seed 1508571632 -550385514 -242179538 -2020349066 -439352555 1228199638 1443689507 1222897765 180963214 536882449 -671664682 1153194421
REM
REM C.POTCAR (d86ddea03c3ceb6dc662c8ad6801f873)
REM 
CELL 1.54180   15.00000   15.00000   15.00000   90.00000   90.00000   90.00000
LATT -1
SFAC C  
C      1  0.2629690035468  0.5418291339310  0.2890558309774 1.0
C      1  0.2168135241524  0.7434324671027  0.5045876745781 1.0
C      1  0.2882718895027  0.6210641713627  0.6988614813896 1.0
C      1  0.2270414005662  0.3362645624343  0.6850892590013 1.0
C      1  0.2838124511187  0.2866580312968  0.4197307833330 1.0
C      1  0.4121704059310  0.1906589676167  0.5944431113158 1.0
C      1  0.4518302388200  0.3063067120196  0.1933204848090 1.0
C      1  0.3923393368465  0.7396578601057  0.2236394052631 1.0
C      1  0.4271328426686  0.8151290744715  0.6087361446341 1.0
C      1  0.4068018612448  0.4709622313866  0.8340621361827 1.0
C      1  0.6213757004038  0.4726553430031  0.4031526387910 1.0
C      1  0.6000731644095  0.6439968405488  0.3373525913092 1.0
C      1  0.6758021170378  0.6392328957911  0.5835823380821 1.0
C      1  0.6522816407332  0.4830885954355  0.6210460469843 1.0
C      1  0.6415936176041  0.3615289777539  0.5193451594575 1.0
C      1  0.1679295522111  0.4280664738449  0.5623686092556 1.0
C      1  0.1774125156523  0.4227650671324  0.4609023198229 1.0
C      1  0.1762477643543  0.5213927602656  0.4347877635064 1.0
C      1  0.1743145295459  0.5760679154110  0.5181817468551 1.0
C      1  0.1839436788750  0.5211644935027  0.5973335756003 1.0
C      1  0.4745123075192  0.4609996164144  0.3817090843232 1.0
C      1  0.4469968315839  0.6200016344187  0.4655890772100 1.0
C      1  0.5319746412285  0.5858152511504  0.4909486811668 1.0
C      1  0.4176951208875  0.4235922260949  0.6373922321568 1.0
C      1  0.4832688147941  0.4142283449219  0.5005374950631 1.0
C      1  0.6568404994277  0.2864141652793  0.3779476834703 1.0
C      1  0.6642279535087  0.5231576306972  0.2364515943719 1.0
C      1  0.7231052342866  0.7607147316925  0.4922234129510 1.0
C      1  0.6127468057708  0.6014348623197  0.7373499155410 1.0
C      1  0.7411537452386  0.3044261400539  0.6911383248229 1.0
C      1  0.8053363956700  0.2876081112608  0.5379581040787 1.0
C      1  0.7944868484568  0.3634334657125  0.3683402171321 1.0
C      1  0.7989800019795  0.5478867751410  0.3165013343377 1.0
C      1  0.8311138791017  0.7159952240581  0.6100460839552 1.0
C      1  0.7654662807646  0.5491538978818  0.7593042414824 1.0
C      1  0.7354216653952  0.4832694020627  0.5832672970988 1.0
C      1  0.7313749562963  0.4160020733688  0.5077190940434 1.0
C      1  0.7193800884136  0.4853875173412  0.4342367685729 1.0
C      1  0.7783304740621  0.5661257970784  0.4641146050434 1.0
C      1  0.7663907710990  0.5791385861723  0.5641276368274 1.0
C      1  0.4532997463438  0.8023663907525  0.6998570361622 1.0
C      1  0.4081100886720  0.3764312823325  0.8346418337885 1.0
C      1  0.4289749804183  0.1327685128949  0.5262373452184 1.0
C      1  0.4646968389422  0.3952179106918  0.1421932712433 1.0
C      1  0.4065777510981  0.8008006669738  0.2958358960760 1.0
C      1  0.3005055540921  0.5982494455135  0.2166930199979 1.0
C      1  0.2952476376258  0.7957910283644  0.5136367004638 1.0
C      1  0.3419169212068  0.6055746533056  0.7814344532924 1.0
C      1  0.3072720797516  0.2881484132894  0.6547502345067 1.0
C      1  0.3692134918129  0.2691729135832  0.3392745987682 1.0
C      1  0.6717803387952  0.7272406831122  0.6344560461961 1.0
C      1  0.6434031675738  0.4362075165418  0.7776425308318 1.0
C      1  0.6518019063292  0.2565147851782  0.5467532393790 1.0
C      1  0.6843386957548  0.3476679765220  0.2323180909076 1.0
C      1  0.6953094761676  0.6684959086822  0.2983906167198 1.0
C      1  0.3673489227981  0.1525012458341  0.4541736425903 1.0
C      1  0.3901770112134  0.4505226700927  0.1594051152014 1.0
C      1  0.3313830549350  0.8073989831571  0.3540359748722 1.0
C      1  0.4020685736412  0.7323091217259  0.7310144835207 1.0
C      1  0.3279731990968  0.3342040555295  0.8037140982357 1.0
C      1  0.3496872930683  0.4059757944677  0.2402292118470 1.0
C      1  0.2933281043607  0.7160993050061  0.3375210598075 1.0
C      1  0.3305839110046  0.7074999829774  0.6616095078486 1.0
C      1  0.2504269911019  0.3809387404406  0.7678120089884 1.0
C      1  0.2928500161101  0.2024252911547  0.4803569884572 1.0
C      1  0.3589710954666  0.3178999079219  0.4840295448182 1.0
C      1  0.3397509111111  0.4777420336827  0.3093088810710 1.0
C      1  0.3358342700749  0.6636370610845  0.4058829833069 1.0
C      1  0.3693024411170  0.6151007295955  0.6279046728585 1.0
C      1  0.2535722973742  0.4778076331050  0.7582387372067 1.0
C      1  0.6982049619670  0.4369405157859  0.2013575384350 1.0
C      1  0.7330018175459  0.7396000725539  0.3370489167028 1.0
C      1  0.6481235822307  0.6992083119839  0.7316227632807 1.0
C      1  0.7062814399722  0.3631874818553  0.7557943890484 1.0
C      1  0.6696388252985  0.2233967109429  0.4532357805532 1.0
C      1  0.6585168992479  0.6846445092260  0.4955687076357 1.0
C      1  0.6168432282272  0.5751478550562  0.6354151811693 1.0
C      1  0.5969407828184  0.4097948159793  0.5967118426629 1.0
C      1  0.6056072015465  0.3664823440396  0.4187942796304 1.0
C      1  0.5963602474620  0.5326618259204  0.3131675011243 1.0
C      1  0.5203884408478  0.1486096897175  0.5051341041703 1.0
C      1  0.5591251694133  0.4072853949477  0.1491617451761 1.0
C      1  0.4865554335360  0.7798742239501  0.3459611932269 1.0
C      1  0.5480227987562  0.7992097091516  0.7034613161557 1.0
C      1  0.4895138672492  0.3453365164949  0.7935703059024 1.0
C      1  0.5225439826832  0.1698084721548  0.4127942347404 1.0
C      1  0.4686219593735  0.6089406461993  0.1661849732566 1.0
C      1  0.4555741587270  0.7922420932316  0.4502237613271 1.0
C      1  0.5024627406971  0.5915798095486  0.7569483656383 1.0
C      1  0.4593365223760  0.2820295501014  0.7199647949999 1.0
C      1  0.4644958347961  0.5954931667978  0.6549033944197 1.0
C      1  0.3915011920980  0.3435872843725  0.6713255935031 1.0
C      1  0.4308032352971  0.2927714022120  0.4168234565893 1.0
C      1  0.4228379461788  0.5265726452145  0.2657515826916 1.0
C      1  0.4148068821203  0.7006644878974  0.4488396777762 1.0
C      1  0.5631011342191  0.2084403844120  0.5767995129185 1.0
C      1  0.5973901408723  0.3248176236145  0.1949835829807 1.0
C      1  0.5284778585042  0.7063742390623  0.2987928566879 1.0
C      1  0.5778489892989  0.7839369905849  0.6113949812766 1.0
C      1  0.5482649121613  0.4254863128394  0.7887159994532 1.0
C      1  0.3583186448868  0.2666499995805  0.7412681575580 1.0
C      1  0.4248800602658  0.1935700325739  0.3839458279403 1.0
C      1  0.3876287903791  0.5538579108488  0.1752364843163 1.0
C      1  0.3533954001914  0.8284180708674  0.4426719822259 1.0
C      1  0.4227117309812  0.6556941472480  0.7848243044027 1.0
C      1  0.7822342314449  0.4606749002444  0.3566260218805 1.0
C      1  0.8361016266097  0.5898606973082  0.3965115148336 1.0
C      1  0.8302467664375  0.6279661413357  0.6312790633842 1.0
C      1  0.8264989290386  0.5872334853302  0.7170391691734 1.0
C      1  0.7953848224584  0.3457514875229  0.4699102894575 1.0
C      1  0.7476872602586  0.7840013398004  0.4080040294724 1.0
C      1  0.5972320590369  0.7605602753138  0.7748331892035 1.0
C      1  0.7913947872530  0.3254816565735  0.7699634867788 1.0
C      1  0.6088789589374  0.2007920285487  0.3898357572181 1.0
C      1  0.6283696651281  0.4742041006930  0.1534018900559 1.0
C      1  0.3133123893328  0.6864079380596  0.2433778828700 1.0
C      1  0.3389220828858  0.7818111883530  0.5944347692663 1.0
C      1  0.3282803113282  0.5175259948901  0.8073283238371 1.0
C      1  0.3335558466991  0.2463181494141  0.5671098533846 1.0
C      1  0.3797656945271  0.3164354462560  0.2540237089616 1.0
C      1  0.4724418804100  0.6860129518193  0.2187830776972 1.0
C      1  0.5020159328925  0.8050886369499  0.5486854024770 1.0
C      1  0.4914879198782  0.5018302026699  0.8018484468896 1.0
C      1  0.4925099937748  0.2253500513094  0.6399022092832 1.0
C      1  0.5311840349878  0.2580291662460  0.2086601121429 1.0
C      1  0.3598273612519  0.4678512128113  0.5698279647454 1.0
C      1  0.3792158348223  0.4163832259640  0.4895876271531 1.0
C      1  0.3765448240326  0.4763106971303  0.4051202992505 1.0
C      1  0.3624166899755  0.5708892496116  0.4495503513916 1.0
C      1  0.3473554574838  0.5554376719079  0.5504329310688 1.0
C      1  0.7347300513806  0.5888150019525  0.2612538393457 1.0
C      1  0.7576642354921  0.7616572686838  0.5850553045398 1.0
C      1  0.6758074501795  0.5263646535466  0.7762075634804 1.0
C      1  0.7405208020371  0.2686214215791  0.6016690164962 1.0
C      1  0.7254638981408  0.3207507894409  0.3157488777561 1.0
C      1  0.5299974793361  0.5866659042248  0.5939534417099 1.0
C      1  0.5059504609633  0.4094356896461  0.5944887351939 1.0
C      1  0.5027775419047  0.3627975095297  0.4174173445264 1.0
C      1  0.5022182911299  0.5054420094980  0.3014425317705 1.0
C      1  0.6010588465941  0.6446385017010  0.4394121623843 1.0
C      1  0.2240009860565  0.5410300680917  0.6853241176144 1.0
C      1  0.1699625450951  0.3656799994460  0.6235461916671 1.0
C      1  0.2156077786348  0.3549597747007  0.4151498997343 1.0
C      1  0.1998072548183  0.5520342077305  0.3519937943231 1.0
C      1  0.1830727656557  0.6688157362615  0.5169236373849 1.0
C      1  0.5341304217025  0.4929088498866  0.4559419716401 1.0
END
