TITL C-32232-9915-3 -8.9 3375.00 -1453.35844641 0 0 180 (C2) n - 1
REM
REM Run started: at 2020.12.25 09:38:06 in /gpfs/home/chem/mssmkc/CARBON/AIRSS/Generating-Clusters/Str-Search/Higher-Symm/Only-C180
REM VASP from code version vasp.5.4.4.18Apr17-6-g9f103f2a35 (build Oct 11 2019 16:45:47) gamma-only
REM
REM
REM
REM
REM ./C.cell (73b75853f6e4503fb4b57bac71549d7d)
REM AIRSS Version 0.9.1 bugfix July 2018 build 013d7b7c2542+ Fri, 06 Jul 2018 19:26:36 +0100
REM compiler GCC version 6.3.0
REM options -cpp -iprefix /gpfs/warwick/csc/orac/software/Core/GCCcore/6.3.0/bin/../lib/gcc/x86_64-pc-linux-gnu/6.3.0/ -mtune=generic -march=x86-64 -g -O0
REM seed 1195935481 1227419081 1617929486 446684617 -409674804 1441768740 844206 681657613 -1726499312 -1907074561 -1491871548 2003952422
REM
REM C.POTCAR (d86ddea03c3ceb6dc662c8ad6801f873)
REM 
CELL 1.54180   15.00000   15.00000   15.00000   90.00000   90.00000   90.00000
LATT -1
SFAC C  
C      1  0.6421547085918  0.8118556593298  0.3736680639604 1.0
C      1  0.6421533636794  0.1881432700118  0.6263299804249 1.0
C      1  0.3086737355921  0.1770350013393  0.6336495586550 1.0
C      1  0.3086757651209  0.8229673411028  0.3663512843636 1.0
C      1  0.4715299945676  0.1686805238965  0.7085691792642 1.0
C      1  0.4715319806411  0.8313199483165  0.2914305004762 1.0
C      1  0.2210092575482  0.4970613414875  0.8402843660577 1.0
C      1  0.2210083612570  0.5029410485011  0.1597147906503 1.0
C      1  0.7851435937606  0.6362187768202  0.7069566866032 1.0
C      1  0.7851427871702  0.3637803957479  0.2930426744070 1.0
C      1  0.5159311101050  0.5285016693374  0.1290622986272 1.0
C      1  0.5159326020264  0.4714976058292  0.8709379102325 1.0
C      1  0.3772999354784  0.1895183194059  0.7025612363517 1.0
C      1  0.3773017247780  0.8104818987228  0.2974407098604 1.0
C      1  0.3676674916815  0.2665662238560  0.2499588846300 1.0
C      1  0.3676699153835  0.7334340710999  0.7500420098448 1.0
C      1  0.8753742540008  0.4842079598504  0.6986651450400 1.0
C      1  0.8753731866899  0.5157910543654  0.3013345300346 1.0
C      1  0.3270550855498  0.1987362301547  0.4542617760649 1.0
C      1  0.3270560392508  0.8012650425342  0.5457390523546 1.0
C      1  0.7572495543865  0.3611673173309  0.5044843784023 1.0
C      1  0.7572498098252  0.6388312868939  0.4955148952770 1.0
C      1  0.0553899549414  0.5138654446727  0.4611086032413 1.0
C      1  0.0553934648688  0.4861399830399  0.5388882616672 1.0
C      1  0.4283680819090  0.5716170779059  0.3873674058602 1.0
C      1  0.4283679156015  0.4283827471244  0.6126327781077 1.0
C      1  0.3075576682531  0.5355781126785  0.1405607193322 1.0
C      1  0.3075589937413  0.4644222601345  0.8594400837217 1.0
C      1  0.5812524561053  0.3048729383556  0.6403821703161 1.0
C      1  0.5812521138172  0.6951266976434  0.3596167834353 1.0
C      1  0.6136743132602  0.6537473588996  0.8813569062188 1.0
C      1  0.6136718461783  0.3462506045069  0.1186437026403 1.0
C      1  0.8427192444848  0.6248889663914  0.5392829260018 1.0
C      1  0.8427192886160  0.3751100631836  0.4607166048012 1.0
C      1  0.5710989574133  0.7567365905755  0.1626655086734 1.0
C      1  0.5710998107244  0.2432628776744  0.8373329528042 1.0
C      1  0.7760832919169  0.3534176683180  0.7531842869783 1.0
C      1  0.7760829186583  0.6465815922682  0.2468141163604 1.0
C      1  0.5134637857651  0.1849332336109  0.2922059133249 1.0
C      1  0.5134657104215  0.8150659241338  0.7077946486450 1.0
C      1  0.8681177361047  0.5478937154850  0.4766882951512 1.0
C      1  0.8681176616349  0.4521057000683  0.5233110345847 1.0
C      1  0.6510392857633  0.6255186795359  0.1540900549702 1.0
C      1  0.6510404908724  0.3744805100081  0.8459094517085 1.0
C      1  0.5060935110069  0.1344118300651  0.4945521422151 1.0
C      1  0.5060949269633  0.8655884167211  0.5054482453245 1.0
C      1  0.5212577649562  0.0424191044951  0.4984303415866 1.0
C      1  0.5212588327174  0.9575803267029  0.5015690716696 1.0
C      1  0.5335511959996  0.6890116649954  0.9058139610457 1.0
C      1  0.5335483752486  0.3109875437894  0.0941862504760 1.0
C      1  0.5377938900523  0.1872612552150  0.7667562087502 1.0
C      1  0.5377943264046  0.8127377052906  0.2332422870933 1.0
C      1  0.3386934092732  0.3783732268863  0.8258750284122 1.0
C      1  0.3386929014443  0.6216280967015  0.1741249254942 1.0
C      1  0.6907984283990  0.4791278410655  0.6076325486553 1.0
C      1  0.6907980194149  0.5208709971465  0.3923668909590 1.0
C      1  0.3728727045327  0.3002266485404  0.1619064581142 1.0
C      1  0.3728750357013  0.6997726859036  0.8380937179713 1.0
C      1  0.7497182885160  0.8077337472989  0.2712758451097 1.0
C      1  0.7497170689927  0.1922656333773  0.7287218227111 1.0
C      1  0.5719550490327  0.3965182938764  0.6794358501947 1.0
C      1  0.5719544431517  0.6034811725111  0.3205635119892 1.0
C      1  0.2571343029597  0.6723103167337  0.5070438347846 1.0
C      1  0.2571297964230  0.3276896200937  0.4929595160139 1.0
C      1  0.4369427215211  0.6198283602623  0.6682665604166 1.0
C      1  0.4369406134902  0.3801726235583  0.3317332739504 1.0
C      1  0.6702267357017  0.6190103325547  0.8308257290065 1.0
C      1  0.6702246974716  0.3809874650132  0.1691738907093 1.0
C      1  0.3323468505019  0.8348497685743  0.4573624299114 1.0
C      1  0.3323421621463  0.1651514180571  0.5426401949228 1.0
C      1  0.5269770159640  0.3715373393719  0.2889270936215 1.0
C      1  0.5269784059939  0.6284616666878  0.7110737369073 1.0
C      1  0.2691624790083  0.3072586943614  0.7844471519751 1.0
C      1  0.2691608433665  0.6927419120512  0.2155515092690 1.0
C      1  0.8554921764426  0.5751775051047  0.7059362360412 1.0
C      1  0.8554917081941  0.4248213182970  0.2940631822219 1.0
C      1  0.8436523001748  0.3693591109831  0.3702512095529 1.0
C      1  0.8436533284921  0.6306396226240  0.6297485322749 1.0
C      1  0.4357706514219  0.2053972829900  0.2740018677396 1.0
C      1  0.4357726843487  0.7946024515181  0.7259986241334 1.0
C      1  0.6555041794857  0.5497155524253  0.3018223918326 1.0
C      1  0.6555042220224  0.4502843769445  0.6981773956141 1.0
C      1  0.0736089908926  0.4700215700245  0.6240779033357 1.0
C      1  0.0736039888563  0.5299851692419  0.3759228816279 1.0
C      1  0.8466887202188  0.3933524137109  0.7013981661456 1.0
C      1  0.8466878567974  0.6066461267510  0.2986010200747 1.0
C      1  0.3209868584856  0.3782975334649  0.1351342185511 1.0
C      1  0.3209893350491  0.6217033373328  0.8648675791854 1.0
C      1  0.2777090583421  0.4063306074616  0.3159565314683 1.0
C      1  0.2777118517377  0.5936705575462  0.6840447367943 1.0
C      1  0.7434923107407  0.2657372755684  0.7824242170142 1.0
C      1  0.7434925072136  0.7342612501155  0.2175736952218 1.0
C      1  0.2085574904912  0.4065227027808  0.2485803807793 1.0
C      1  0.2085596829001  0.5934803161238  0.7514209719510 1.0
C      1  0.7148728388169  0.2253230945789  0.4279415882346 1.0
C      1  0.7148719186408  0.7746735121135  0.5720575497813 1.0
C      1  0.1880509264979  0.5058264415193  0.2574531152670 1.0
C      1  0.1880539406256  0.4941757183318  0.7425471494134 1.0
C      1  0.5450345481849  0.7763423924179  0.4892746392817 1.0
C      1  0.5450327312762  0.2236576734915  0.5107250525806 1.0
C      1  0.6620212654053  0.7197723232517  0.1632094256354 1.0
C      1  0.6620219445630  0.2802269810988  0.8367888755672 1.0
C      1  0.6693059672793  0.1966716316966  0.3647915855481 1.0
C      1  0.6693067260746  0.8033273324071  0.6352085716599 1.0
C      1  0.3190889802531  0.3599926411103  0.7257119761302 1.0
C      1  0.3190884784644  0.6400094246918  0.2742890194832 1.0
C      1  0.2310053657502  0.4038320525143  0.1583437719162 1.0
C      1  0.2310069189047  0.5961699585801  0.8416571657586 1.0
C      1  0.6056035641734  0.6896562916688  0.7207037455676 1.0
C      1  0.6056017902875  0.3103432784547  0.2792971747690 1.0
C      1  0.4559003453838  0.7090907904633  0.8843468199075 1.0
C      1  0.4558976041737  0.2909085842076  0.1156537569580 1.0
C      1  0.1768902136496  0.2533038301234  0.5897199431163 1.0
C      1  0.1768910459949  0.7466987402289  0.4102834306996 1.0
C      1  0.5060664076874  0.6881798190879  0.1442468358669 1.0
C      1  0.5060678263108  0.3118202207930  0.8557530638442 1.0
C      1  0.3431393426323  0.6695434208328  0.6687899235441 1.0
C      1  0.3431363233057  0.3304578705268  0.3312116449764 1.0
C      1  0.7059643724238  0.4160627368927  0.7792264129668 1.0
C      1  0.7059637853019  0.5839360510313  0.2207726082264 1.0
C      1  0.7162886416447  0.8512438955169  0.3355909437591 1.0
C      1  0.7162877305458  0.1487547759543  0.6644064758926 1.0
C      1  0.8849076911940  0.4333211184144  0.6212329673834 1.0
C      1  0.8849063052420  0.5666776976329  0.3787662204455 1.0
C      1  0.5613820215378  0.7868378574265  0.3235273735841 1.0
C      1  0.5613812868987  0.2131618373138  0.6764712452311 1.0
C      1  0.5662596832421  0.4127712875894  0.3705152604754 1.0
C      1  0.5662609832162  0.5872280186899  0.6294844843260 1.0
C      1  0.6233766441560  0.5212537437738  0.4643015954439 1.0
C      1  0.6233770843913  0.4787461137301  0.5356978619458 1.0
C      1  0.4946386469895  0.5531632329476  0.3147388290229 1.0
C      1  0.4946388883016  0.4468357182647  0.6852606008207 1.0
C      1  0.2175593331798  0.7965307816947  0.3529308976514 1.0
C      1  0.2175552116605  0.2034719626041  0.6470756825020 1.0
C      1  0.3041066741907  0.2814130688502  0.4164765301958 1.0
C      1  0.3041074717304  0.7185862175808  0.5835229518652 1.0
C      1  0.4428998319932  0.4948595738075  0.4551053988401 1.0
C      1  0.4429005025816  0.5051400680341  0.5448951165916 1.0
C      1  0.3210970930185  0.6405116379844  0.4441568462891 1.0
C      1  0.3210966969145  0.3594901379954  0.5558444560381 1.0
C      1  0.7602472400378  0.4562068894010  0.5379647669854 1.0
C      1  0.7602468629810  0.5437921361641  0.4620346622241 1.0
C      1  0.4549146095253  0.5236019585666  0.8363302985581 1.0
C      1  0.4549133761788  0.4763975922140  0.1636703601891 1.0
C      1  0.1680856059681  0.6965270243245  0.4824914009494 1.0
C      1  0.1680850622021  0.3034730391320  0.5175114170632 1.0
C      1  0.4608716034425  0.7322697713895  0.4795587420799 1.0
C      1  0.4608694944973  0.2677285100865  0.5204411933500 1.0
C      1  0.6511565166431  0.4494972931899  0.3338049077178 1.0
C      1  0.6511572098432  0.5505017983916  0.6661944427010 1.0
C      1  0.6021634106184  0.2201642704173  0.3021852893370 1.0
C      1  0.6021654918194  0.7798348792849  0.6978161279509 1.0
C      1  0.4163627733366  0.8180730839139  0.5040930230452 1.0
C      1  0.4163589525997  0.1819265234209  0.4959092454005 1.0
C      1  0.7036291593281  0.2868290066258  0.4999903961639 1.0
C      1  0.7036296870959  0.7131695765264  0.5000073904159 1.0
C      1  0.1096968374927  0.4633335628721  0.6978554219269 1.0
C      1  0.1096977040588  0.5366688472523  0.3021354455911 1.0
C      1  0.3259848710843  0.4191364490371  0.6428451212516 1.0
C      1  0.3259842597950  0.5808646468643  0.3571545461243 1.0
C      1  0.6266838828115  0.7405032863783  0.4431466938540 1.0
C      1  0.6266833288747  0.2594960511900  0.5568517906198 1.0
C      1  0.4149968203685  0.6566134505636  0.4440340103461 1.0
C      1  0.4149959438436  0.3433869930925  0.5559647482746 1.0
C      1  0.5591024148995  0.3945249098501  0.8685929457573 1.0
C      1  0.5591012575443  0.6054745688655  0.1314069749296 1.0
C      1  0.3601400235251  0.2597115567857  0.7644239983241 1.0
C      1  0.3601397355260  0.7402886083739  0.2355783700986 1.0
C      1  0.2710318759249  0.5008076855682  0.6736116701764 1.0
C      1  0.2710302191550  0.4991939216584  0.3263895592611 1.0
C      1  0.6870930111182  0.3745536127918  0.2689797669701 1.0
C      1  0.6870942247002  0.6254449612953  0.7310205288954 1.0
C      1  0.3658689262062  0.5401532323333  0.8731341220554 1.0
C      1  0.3658677884584  0.4598471940993  0.1268679014593 1.0
C      1  0.4810879659271  0.4175677137221  0.4114179910904 1.0
C      1  0.4810899383703  0.5824318447284  0.5885825371702 1.0
C      1  0.4149023823182  0.3139466380716  0.8270728807284 1.0
C      1  0.4149008449951  0.6860539525130  0.1729276930913 1.0
C      1  0.4756862663112  0.5390227372470  0.7377747049533 1.0
C      1  0.4756852790845  0.4609761428172  0.2622254369684 1.0
END
