TITL C-32361-6883-23 -8.891 3375.00 -1566.38920852 0 0 190 (C1) n - 1
REM
REM Run started: at 2020.12.22 15:56:59 in /gpfs/home/chem/mssmkc/CARBON/AIRSS/Generating-Clusters/Str-Search/Higher-Symm/C100-200
REM VASP from code version vasp.5.4.4.18Apr17-6-g9f103f2a35 (build Oct 11 2019 16:45:47) gamma-only
REM
REM
REM
REM
REM ./C.cell (533062f00bc710175b3da973d35f2034)
REM AIRSS Version 0.9.1 bugfix July 2018 build 013d7b7c2542+ Fri, 06 Jul 2018 19:26:36 +0100
REM compiler GCC version 6.3.0
REM options -cpp -iprefix /gpfs/warwick/csc/orac/software/Core/GCCcore/6.3.0/bin/../lib/gcc/x86_64-pc-linux-gnu/6.3.0/ -mtune=generic -march=x86-64 -g -O0
REM seed 1320740666 1757616708 474709046 1320486754 -2136459926 440946989 -1382516234 1152593774 1492547260 -1282547661 1747441765 159248358
REM
REM C.POTCAR (d86ddea03c3ceb6dc662c8ad6801f873)
REM 
CELL 1.54180   15.00000   15.00000   15.00000   90.00000   90.00000   90.00000
LATT -1
SFAC C  
C      1  0.1824492240701  0.5721690299837  0.3664793777062 1.0
C      1  0.8180947510654  0.6340555078224  0.5727393973167 1.0
C      1  0.1829410423801  0.4284724005120  0.6345468554375 1.0
C      1  0.8167250270038  0.3664133193559  0.4287445867946 1.0
C      1  0.5875079240040  0.7542775651399  0.7807083847850 1.0
C      1  0.4126558682134  0.2187524341137  0.7557406708278 1.0
C      1  0.5891182608404  0.2431039064425  0.2181392178736 1.0
C      1  0.4109358126408  0.7812654998822  0.2446006701072 1.0
C      1  0.8460743512628  0.5236370628231  0.3899538217605 1.0
C      1  0.1701469862402  0.6559563579642  0.5083000899397 1.0
C      1  0.8299816066119  0.4919145031906  0.6560894416226 1.0
C      1  0.1535066366560  0.3897180108100  0.4772391022562 1.0
C      1  0.4210286373614  0.5707033822184  0.5937351954317 1.0
C      1  0.5782489815835  0.4060202349873  0.5697683525156 1.0
C      1  0.4190301092042  0.4270849838710  0.4052153860656 1.0
C      1  0.5816073169732  0.5947020297695  0.4263220407172 1.0
C      1  0.4728746808998  0.1595395570645  0.6071576135126 1.0
C      1  0.5278582902055  0.3923648626348  0.1609922503311 1.0
C      1  0.4715583937946  0.8389126037054  0.3931385966503 1.0
C      1  0.5274558587425  0.6064828891316  0.8401273948290 1.0
C      1  0.5289738833973  0.4876416150356  0.1882635704021 1.0
C      1  0.4711310188704  0.8107604607759  0.4878947086928 1.0
C      1  0.5287824028944  0.5115465728244  0.8118426583417 1.0
C      1  0.4708584752377  0.1870616907155  0.5117063044879 1.0
C      1  0.1341781176241  0.6488145788127  0.7475034378874 1.0
C      1  0.8662728543388  0.2525872043096  0.6478412198069 1.0
C      1  0.1287786730417  0.3469793595727  0.2389972334669 1.0
C      1  0.8710493331334  0.7618415671986  0.3466806669527 1.0
C      1  0.2792473159061  0.3354849747946  0.7400702223100 1.0
C      1  0.7221096339366  0.2604005312738  0.3352868947419 1.0
C      1  0.2787473655782  0.6635645787536  0.2594104426970 1.0
C      1  0.7204551199235  0.7405272612321  0.6636714729003 1.0
C      1  0.4190797020813  0.5959795390158  0.7276320923478 1.0
C      1  0.5808231212394  0.2723641333160  0.5958071257100 1.0
C      1  0.4172019828572  0.4032488495709  0.2723671232005 1.0
C      1  0.5827818296291  0.7278646106772  0.4032301238267 1.0
C      1  0.4010479553405  0.8284445715123  0.3341943377641 1.0
C      1  0.5978172625209  0.6653447011792  0.8285104545769 1.0
C      1  0.4033788374670  0.1708360775616  0.6671012184514 1.0
C      1  0.5976408105401  0.3324856777311  0.1708028439455 1.0
C      1  0.3707591143047  0.9037391221912  0.5810681118614 1.0
C      1  0.6296332090733  0.4182483739970  0.9043324600011 1.0
C      1  0.3748863473003  0.0942560932028  0.4140057661405 1.0
C      1  0.6246109036818  0.5850725150720  0.0950814772339 1.0
C      1  0.2979511438206  0.4321655615478  0.7635207282258 1.0
C      1  0.7019398691235  0.2368799933999  0.4315771456792 1.0
C      1  0.2979807456326  0.5668247132676  0.2371107644023 1.0
C      1  0.7021608082234  0.7628870605883  0.5666911757693 1.0
C      1  0.2341161662923  0.3410699355138  0.6491143915997 1.0
C      1  0.7662883710770  0.3515686069566  0.3410028853150 1.0
C      1  0.2334695649848  0.6585641472401  0.3490204496068 1.0
C      1  0.7662031427779  0.6510893020277  0.6587585830639 1.0
C      1  0.3707666971595  0.3918767166160  0.7068535990060 1.0
C      1  0.6288549391038  0.2934087187524  0.3913572702322 1.0
C      1  0.3708775010894  0.6075238409512  0.2936796215093 1.0
C      1  0.6293840359967  0.7062331379607  0.6070791205339 1.0
C      1  0.2575621798256  0.7358437773347  0.6473835897383 1.0
C      1  0.7424696344475  0.3525654066046  0.7351593116493 1.0
C      1  0.2626324779129  0.2635375181199  0.3472164275058 1.0
C      1  0.7372424159876  0.6533763059069  0.2631277380042 1.0
C      1  0.1033092088756  0.3601084781153  0.3197679680414 1.0
C      1  0.8963189417462  0.6809505725542  0.3596596467527 1.0
C      1  0.1068661379565  0.6289237694880  0.6714423709330 1.0
C      1  0.8934716578051  0.3289069908250  0.6285968969666 1.0
C      1  0.7023175460313  0.5750804163403  0.1234716888993 1.0
C      1  0.2965887128071  0.8654211106312  0.5696996494405 1.0
C      1  0.7034609886723  0.4295886164096  0.8652907024523 1.0
C      1  0.2976249416012  0.1237922819517  0.4247793595122 1.0
C      1  0.5179089545036  0.2727642728820  0.5029192887249 1.0
C      1  0.4809010026976  0.4966537593592  0.2735787993365 1.0
C      1  0.5198582295512  0.7263290857447  0.4962619280713 1.0
C      1  0.4812559626018  0.5032950115761  0.7269416655215 1.0
C      1  0.5328548938276  0.7158003855755  0.6034668875549 1.0
C      1  0.4674558406865  0.3958520873949  0.7160289136989 1.0
C      1  0.5319227355680  0.2839060993696  0.3953300486085 1.0
C      1  0.4677104789134  0.6040626246260  0.2840850370128 1.0
C      1  0.5008150849817  0.6441059929036  0.1972653984514 1.0
C      1  0.4977471927737  0.8019121620124  0.6429747338650 1.0
C      1  0.5029426741340  0.3566044496806  0.8021431736414 1.0
C      1  0.4986107522878  0.1970280911337  0.3554782593418 1.0
C      1  0.3068821874393  0.7934122352284  0.3419652163294 1.0
C      1  0.6921794337613  0.6576494045905  0.7933275150067 1.0
C      1  0.3094341029784  0.2053639259356  0.6595394987359 1.0
C      1  0.6914259281067  0.3406219999726  0.2051471730516 1.0
C      1  0.6595634472958  0.2071981424742  0.7510159209367 1.0
C      1  0.3426247602006  0.2459863070612  0.2041405886082 1.0
C      1  0.6568564922284  0.7965167486589  0.2462800919784 1.0
C      1  0.3410715708421  0.7512674600094  0.7926701923174 1.0
C      1  0.2868581886548  0.4717420180462  0.8491116766798 1.0
C      1  0.7129331195098  0.1510504228209  0.4708586994920 1.0
C      1  0.2878356937573  0.5265859142508  0.1518948473864 1.0
C      1  0.7120244477149  0.8480384371054  0.5264544277707 1.0
C      1  0.7458884708692  0.5278939117320  0.3572083052516 1.0
C      1  0.2642687092461  0.6271583845290  0.5311119255313 1.0
C      1  0.7363119259351  0.4687006426758  0.6264037334876 1.0
C      1  0.2537774319827  0.3574865826216  0.4724876966909 1.0
C      1  0.7562810144241  0.6030768677539  0.7472799793139 1.0
C      1  0.2533021733517  0.2538100324111  0.6008082007084 1.0
C      1  0.7471241089092  0.3997958863178  0.2538181282030 1.0
C      1  0.2431035956761  0.7470708146051  0.3968682940473 1.0
C      1  0.5187198206902  0.6464138024734  0.3664483848267 1.0
C      1  0.4831719476786  0.6327003796873  0.6457538923255 1.0
C      1  0.5165983261949  0.3538743243018  0.6324672979847 1.0
C      1  0.4815012635773  0.3667228529543  0.3533175253873 1.0
C      1  0.5884106000383  0.5023266124879  0.4070192182490 1.0
C      1  0.4165932558713  0.5885597843802  0.5011068972348 1.0
C      1  0.5841777938486  0.4984241586733  0.5879103989301 1.0
C      1  0.4107455570685  0.4073290965408  0.4972776177196 1.0
C      1  0.5523979913831  0.4252279583005  0.8471514635528 1.0
C      1  0.4520212479118  0.1496259628727  0.4248164560970 1.0
C      1  0.5474858733872  0.5745238738986  0.1503676454456 1.0
C      1  0.4478723926612  0.8464865250343  0.5742217617151 1.0
C      1  0.3152354054040  0.4044004360338  0.6245312043088 1.0
C      1  0.6843612953076  0.3756286653199  0.4038879862645 1.0
C      1  0.3154527634124  0.5954555862438  0.3757337467643 1.0
C      1  0.6849928029733  0.6241487769290  0.5951558861932 1.0
C      1  0.7905678510597  0.5119661484382  0.7476879510711 1.0
C      1  0.2491960291621  0.2600843828283  0.5052520009543 1.0
C      1  0.7509510401253  0.4953141150816  0.2599452068671 1.0
C      1  0.2092255221099  0.7475640921553  0.4879945436684 1.0
C      1  0.3385199961278  0.5753155233457  0.6611379379787 1.0
C      1  0.6612078930572  0.3388956859650  0.5745526247757 1.0
C      1  0.3345974926254  0.4254369910154  0.3393614936591 1.0
C      1  0.6655951176996  0.6608661303252  0.4249851999721 1.0
C      1  0.5100657905533  0.4603247914812  0.3650860657543 1.0
C      1  0.4913175443861  0.6345597047191  0.4602538758107 1.0
C      1  0.5107806317628  0.5391523999021  0.6353519588354 1.0
C      1  0.4877744811857  0.3640589746459  0.5391730303347 1.0
C      1  0.2631232136460  0.3601955721942  0.1347963040923 1.0
C      1  0.7364008797427  0.8657484061198  0.3602664712989 1.0
C      1  0.2610690714941  0.6385686976582  0.8627533986174 1.0
C      1  0.7393001877518  0.1374752119279  0.6377689158320 1.0
C      1  0.7308407055738  0.6724740534873  0.5174508705183 1.0
C      1  0.2699987361945  0.4822796495162  0.6738478529335 1.0
C      1  0.7295120427938  0.3266615113347  0.4820372748825 1.0
C      1  0.2697065819893  0.5174241279851  0.3277285665899 1.0
C      1  0.2050423258994  0.3126759491824  0.1997306905224 1.0
C      1  0.7944678858844  0.8007968039625  0.3125328811051 1.0
C      1  0.2044567363644  0.6848971096814  0.7959403587282 1.0
C      1  0.7959770258542  0.2041766312668  0.6838077846961 1.0
C      1  0.7416235134647  0.2538348954522  0.7485068960436 1.0
C      1  0.2605993948649  0.2478337644612  0.2496240206968 1.0
C      1  0.7390562554781  0.7510473513600  0.2477073745104 1.0
C      1  0.2587856077120  0.7493105628011  0.7461650950101 1.0
C      1  0.7129565042878  0.3793584357983  0.6505128996195 1.0
C      1  0.2824260808785  0.3482691373679  0.3770776983712 1.0
C      1  0.7175410296265  0.6233616738312  0.3478596982906 1.0
C      1  0.2871734872671  0.6513055463077  0.6205956748321 1.0
C      1  0.1413159967080  0.5782689141939  0.4474327862968 1.0
C      1  0.8590897639674  0.5531513049761  0.5787551320112 1.0
C      1  0.1368501720156  0.4452937573273  0.5558766173223 1.0
C      1  0.8629958970966  0.4450990637290  0.4456093111138 1.0
C      1  0.5645172439898  0.1851594312838  0.6497643091199 1.0
C      1  0.4362941375895  0.3493182985957  0.1855168233891 1.0
C      1  0.5631293218672  0.8149310729054  0.3496129872312 1.0
C      1  0.4359227724065  0.6496933997692  0.8148376093642 1.0
C      1  0.8884228535267  0.4185775679112  0.6115969553225 1.0
C      1  0.1035719316247  0.3838896723608  0.4030534755678 1.0
C      1  0.8961861856408  0.5977570502693  0.3837592132660 1.0
C      1  0.1119354800917  0.6115818931544  0.5817804394252 1.0
C      1  0.7463497263111  0.5720785675754  0.2055423326663 1.0
C      1  0.2376378016657  0.7946382007964  0.5684189406369 1.0
C      1  0.7621410621531  0.4313948910458  0.7942586169254 1.0
C      1  0.2535463010122  0.2057767033331  0.4284086409528 1.0
C      1  0.3229817671921  0.2514712476164  0.7441357702043 1.0
C      1  0.6785235085486  0.2561795074306  0.2515295715956 1.0
C      1  0.3221271778973  0.7472333537984  0.2578265459687 1.0
C      1  0.6765527141839  0.7418689019968  0.7472115709666 1.0
C      1  0.6700960991248  0.5294436192219  0.5969083410188 1.0
C      1  0.3267739772555  0.3992662153502  0.5298663558450 1.0
C      1  0.6724788873979  0.4701803302691  0.3984335492972 1.0
C      1  0.3306554109092  0.5978382495701  0.4702349880913 1.0
C      1  0.3469802722934  0.3213859689120  0.1423180148655 1.0
C      1  0.6525196255856  0.8581994418784  0.3217901410275 1.0
C      1  0.3452116511279  0.6775962030621  0.8558476606631 1.0
C      1  0.6552738822644  0.1440838950209  0.6772830192894 1.0
C      1  0.5664590047480  0.2192341558906  0.7482700556733 1.0
C      1  0.4354208706677  0.2504269740008  0.2187565459171 1.0
C      1  0.5642654685319  0.7818441485245  0.2507657592083 1.0
C      1  0.4340050798545  0.7480795279003  0.7806343659574 1.0
C      1  0.7389396991826  0.1273433439963  0.5454068662403 1.0
C      1  0.2623137752374  0.4528562435406  0.1257406274390 1.0
C      1  0.7375776279578  0.8748923336940  0.4530040942686 1.0
C      1  0.2609115236940  0.5461552568884  0.8731866663136 1.0
C      1  0.5086538456154  0.7888055202972  0.7409101722018 1.0
C      1  0.4920433854710  0.2586585324675  0.7895122644439 1.0
C      1  0.5104313083481  0.2085408080884  0.2574839977037 1.0
C      1  0.4893092419906  0.7421478341713  0.2095714655046 1.0
C      1  0.8900422804604  0.4719045101794  0.5335666660859 1.0
C      1  0.1103168087299  0.5334337173658  0.5288119893039 1.0
END
