TITL C-32449-6225-2 -1.029 3375.00 -156.62193235 0 0 20 (C5v) n - 1
REM
REM Run started: at 2020.11.28 01:42:43 in /rds/project/t2_vol4/rds-t2-cs072/BORA/CARBON/AIRSS/Generating-Clusters/Str-Search/Higher-Symm
REM VASP from code version vasp.5.4.4.18Apr17-6-g9f103f2a35 (build Oct 11 2019 16:45:47) gamma-only
REM
REM
REM
REM
REM ./C.cell (e5ae0387ce4d49c7c0135a1433873289)
REM AIRSS Version 0.9.1 bugfix July 2018 build 013d7b7c2542+ Fri, 06 Jul 2018 19:26:36 +0100
REM compiler GCC version 4.8.5 20150623 (Red Hat 4.8.5-39)
REM options -cpp -mtune=generic -march=x86-64 -g -O0
REM seed 629409298 -612460217 -381517425 814850116 1448904060 -2116264114 660275004 1067395530 -974940268 955988938 1477558507 1570632623
REM
REM C.POTCAR (d86ddea03c3ceb6dc662c8ad6801f873)
REM 
CELL 1.54180   15.00000   15.00000   15.00000   90.00000   90.00000   90.00000
LATT -1
SFAC C  
C      1  0.3523967556517  0.5233467108683  0.5259816946168 1.0
C      1  0.4297678763630  0.5233101692709  0.3676438678232 1.0
C      1  0.6043334836008  0.5232384812367  0.3921914715028 1.0
C      1  0.6345859262475  0.5232677597664  0.5657033794691 1.0
C      1  0.4790406416853  0.5233742498509  0.6483915167719 1.0
C      1  0.3462800784060  0.4429116982802  0.4761510008370 1.0
C      1  0.4752230990512  0.4428107092631  0.3464534682389 1.0
C      1  0.6384897883797  0.4427777978977  0.4289427437998 1.0
C      1  0.6100470157450  0.4428609296444  0.6096129847734 1.0
C      1  0.4296847607837  0.4429805295177  0.6388947213251 1.0
C      1  0.5663682582795  0.4427793248663  0.3595272320686 1.0
C      1  0.6542172966451  0.4427766304349  0.5197199035519 1.0
C      1  0.5288222967199  0.4428597398593  0.6530642513083 1.0
C      1  0.3633761453297  0.4429237197664  0.5749138485872 1.0
C      1  0.3868488617775  0.4428285826984  0.3933934201089 1.0
C      1  0.4612726756065  0.5909922339385  0.4266972612635 1.0
C      1  0.5577732863144  0.5910305955784  0.4402529153221 1.0
C      1  0.5745451121487  0.5910298474002  0.5362310374111 1.0
C      1  0.4884455690031  0.5909665202486  0.5819406248539 1.0
C      1  0.4184813722619  0.5909337696128  0.5142927563664 1.0
END
