TITL C-32167-1581-27 -2.935 3375.00 -491.41445331 0 0 60 (C1) n - 1
REM
REM Run started: at 2020.12.17 10:28:06 in /rds/project/t2_vol4/rds-t2-cs072/BORA/CARBON/AIRSS/Generating-Clusters/Str-Search/Higher-Symm/Only-C60
REM VASP from code version vasp.5.4.4.18Apr17-6-g9f103f2a35 (build Oct 11 2019 16:45:47) gamma-only
REM
REM
REM
REM
REM ./C.cell (5f7b7a0d59291d2373303da1f58b8d66)
REM AIRSS Version 0.9.1 bugfix July 2018 build 013d7b7c2542+ Fri, 06 Jul 2018 19:26:36 +0100
REM compiler GCC version 4.8.5 20150623 (Red Hat 4.8.5-39)
REM options -cpp -mtune=generic -march=x86-64 -g -O0
REM seed -703332750 908327819 -1906256297 -2014455914 2069039605 1111007889 -2024026414 -536494015 1030536783 -1786327755 -1338113398 1315159546
REM
REM C.POTCAR (d86ddea03c3ceb6dc662c8ad6801f873)
REM 
CELL 1.54180   15.00000   15.00000   15.00000   90.00000   90.00000   90.00000
LATT -1
SFAC C  
C      1  0.7051680060873  0.4146980275649  0.6123355869832 1.0
C      1  0.6921282052465  0.4660807965739  0.3980669043936 1.0
C      1  0.7179313319972  0.6406059873736  0.5150518240198 1.0
C      1  0.6026239412099  0.6932401711867  0.4066065206337 1.0
C      1  0.6277009251592  0.5086185336601  0.7164939695827 1.0
C      1  0.6265167665989  0.3137172382610  0.4015248681673 1.0
C      1  0.4303587956121  0.5102829329870  0.2452661759772 1.0
C      1  0.4499474460340  0.6932832064585  0.6221745919384 1.0
C      1  0.4424272906971  0.2772130180215  0.6069586943256 1.0
C      1  0.7066726604016  0.3623495560649  0.5292895704782 1.0
C      1  0.6953158402249  0.5626673774972  0.3789774545612 1.0
C      1  0.7123536834677  0.5807290441611  0.5915286323715 1.0
C      1  0.4507777152954  0.5202285640962  0.6517048641605 1.0
C      1  0.4456313949752  0.3465873447281  0.4458973507200 1.0
C      1  0.4375074176521  0.5925730552580  0.3902044155111 1.0
C      1  0.6556039963369  0.7036712583601  0.4881325122228 1.0
C      1  0.6401626081973  0.4233812856296  0.6786845482898 1.0
C      1  0.6311079659030  0.3976760222955  0.3622320536990 1.0
C      1  0.5356218189558  0.2964320917645  0.6300242168415 1.0
C      1  0.5269008118515  0.4902901602397  0.2617612733775 1.0
C      1  0.5453954779663  0.7209129813146  0.6152278872368 1.0
C      1  0.6439364504824  0.3016326263682  0.4932293145584 1.0
C      1  0.6199158764630  0.6169090773355  0.3475797816861 1.0
C      1  0.6489616270183  0.5861241830729  0.6679909146974 1.0
C      1  0.2630606724039  0.3014405387715  0.5285218878874 1.0
C      1  0.2685187973542  0.5712788745513  0.3828669952242 1.0
C      1  0.2705899224972  0.6029935306314  0.5977132474268 1.0
C      1  0.3646983544253  0.3162590167088  0.6463528019807 1.0
C      1  0.3562358175006  0.4608512673783  0.2821594143817 1.0
C      1  0.3885688968441  0.7087083339894  0.5530580829710 1.0
C      1  0.4514705304914  0.5311755393878  0.4575798975823 1.0
C      1  0.4531388475161  0.5027717843931  0.5507166448605 1.0
C      1  0.4536235987229  0.4393106862562  0.4849284598476 1.0
C      1  0.2692541590259  0.3182725192529  0.4427901374015 1.0
C      1  0.2991458425442  0.6428308428752  0.4386374632849 1.0
C      1  0.2826444339405  0.5382572709636  0.6495227372734 1.0
C      1  0.3027263103336  0.6604628166182  0.5335401941076 1.0
C      1  0.2797950845130  0.2986705594578  0.6118692236228 1.0
C      1  0.2905633811189  0.5150403259664  0.3255479292055 1.0
C      1  0.4800767182816  0.4287693760618  0.6930622166336 1.0
C      1  0.4751074717689  0.3633089378910  0.3459817483425 1.0
C      1  0.5267006029854  0.7370030117029  0.4556481866885 1.0
C      1  0.5492028872029  0.4134940235194  0.3133670908584 1.0
C      1  0.5816271174301  0.7457599934841  0.5352086692235 1.0
C      1  0.5570858404566  0.3739820863553  0.6784864482786 1.0
C      1  0.4817570925507  0.6143439750731  0.6712575686587 1.0
C      1  0.4771132214507  0.2796232004567  0.5164615701298 1.0
C      1  0.4651148171190  0.5806943696886  0.2994800088661 1.0
C      1  0.3889839488957  0.3993791736578  0.6898858388523 1.0
C      1  0.3828270799150  0.3786852096813  0.3230712285447 1.0
C      1  0.4334141553630  0.7265380139807  0.4668257426810 1.0
C      1  0.7559585923312  0.5999827922523  0.4382058273298 1.0
C      1  0.7393154603164  0.4932132543696  0.5690627546444 1.0
C      1  0.7322794892309  0.4412522919412  0.4808508531422 1.0
C      1  0.5708901286503  0.2680326450506  0.5429129364346 1.0
C      1  0.5594336187410  0.5814692672653  0.2837723888019 1.0
C      1  0.5736759710619  0.6454234867668  0.6696877872506 1.0
C      1  0.3462379678659  0.3407201360259  0.4034626888758 1.0
C      1  0.3844433742957  0.6732980367975  0.4067514152436 1.0
C      1  0.3540514410220  0.4867986705028  0.6738076870278 1.0
END
