TITL C-32361-6883-45 -8.835 3375.00 -1506.01500286 0 0 181 (C1) n - 1
REM
REM Run started: at 2020.12.23 09:51:45 in /gpfs/home/chem/mssmkc/CARBON/AIRSS/Generating-Clusters/Str-Search/Higher-Symm/C100-200
REM VASP from code version vasp.5.4.4.18Apr17-6-g9f103f2a35 (build Oct 11 2019 16:45:47) gamma-only
REM
REM
REM
REM
REM ./C.cell (533062f00bc710175b3da973d35f2034)
REM AIRSS Version 0.9.1 bugfix July 2018 build 013d7b7c2542+ Fri, 06 Jul 2018 19:26:36 +0100
REM compiler GCC version 6.3.0
REM options -cpp -iprefix /gpfs/warwick/csc/orac/software/Core/GCCcore/6.3.0/bin/../lib/gcc/x86_64-pc-linux-gnu/6.3.0/ -mtune=generic -march=x86-64 -g -O0
REM seed 689048967 -1839082683 -1478368036 -1476123526 1036689317 141125833 -43432208 1800534688 1301740308 2009117935 -1059522340 972140961
REM
REM C.POTCAR (d86ddea03c3ceb6dc662c8ad6801f873)
REM 
CELL 1.54180   15.00000   15.00000   15.00000   90.00000   90.00000   90.00000
LATT -1
SFAC C  
C      1  0.7676393889041  0.3036591781223  0.5288094342364 1.0
C      1  0.5868777519309  0.8320524645435  0.4906750280227 1.0
C      1  0.1643836471960  0.3748791110073  0.5493486581632 1.0
C      1  0.5916570247079  0.5875340735196  0.4181533540484 1.0
C      1  0.3578142634248  0.5236237504387  0.4275511232825 1.0
C      1  0.5504635027769  0.3753473915512  0.4258333325037 1.0
C      1  0.6149822453104  0.4459626139740  0.5641733467352 1.0
C      1  0.4755262643610  0.5590369721252  0.5500254984319 1.0
C      1  0.5049956775301  0.4568580967890  0.5574038571810 1.0
C      1  0.1883361206889  0.6905922296860  0.6434275721953 1.0
C      1  0.4995119499115  0.1322285224742  0.6558455793318 1.0
C      1  0.8465306479817  0.6917285873690  0.6002885036547 1.0
C      1  0.0662633911540  0.5127217454720  0.7298054335475 1.0
C      1  0.6464229990136  0.1073424785880  0.7616658424303 1.0
C      1  0.7296538202586  0.8318737565477  0.6724736416393 1.0
C      1  0.8941226329620  0.5971855207759  0.4089122382183 1.0
C      1  0.2127331515860  0.7825956451774  0.4494595113843 1.0
C      1  0.4088786668924  0.1425340937641  0.4778422682639 1.0
C      1  0.6889899616023  0.3278961821744  0.6760947727182 1.0
C      1  0.5535743526146  0.6720145092698  0.6423582040866 1.0
C      1  0.2659062013200  0.4955487795300  0.7126820562539 1.0
C      1  0.5682052220354  0.1401077695524  0.4173437194750 1.0
C      1  0.7984114228541  0.7251678987392  0.3578149612986 1.0
C      1  0.1614265960693  0.6268032116042  0.4176330396416 1.0
C      1  0.4125046190638  0.2079839317711  0.2689985886435 1.0
C      1  0.7911728531859  0.5562290198911  0.2049068053661 1.0
C      1  0.2725150253787  0.7139252781160  0.2475590354046 1.0
C      1  0.3353015483554  0.2984291690023  0.5450333066047 1.0
C      1  0.8384047266696  0.4728732486401  0.5250204267332 1.0
C      1  0.3987022629625  0.7360271624769  0.5346955071383 1.0
C      1  0.8308709649474  0.3413378673938  0.4136017620804 1.0
C      1  0.5004392497091  0.8819235448145  0.3953531680413 1.0
C      1  0.1997034217675  0.3129606692008  0.4236456327262 1.0
C      1  0.6243786793166  0.7369835708842  0.1989399118593 1.0
C      1  0.2219739729922  0.4698245446803  0.2585892341763 1.0
C      1  0.6370833432403  0.2837747450396  0.2328151394208 1.0
C      1  0.9169739688594  0.4665241689870  0.3803859058867 1.0
C      1  0.3535339421781  0.8665999719125  0.4382443985272 1.0
C      1  0.2700214239480  0.1644964512655  0.4607123198191 1.0
C      1  0.4090928804752  0.5793883223056  0.7178764968328 1.0
C      1  0.3834358475448  0.4081194379797  0.7754780690306 1.0
C      1  0.6802797572944  0.4796773188074  0.7204431174813 1.0
C      1  0.2077881124681  0.2130574976693  0.4078503441334 1.0
C      1  0.8682216704460  0.3919113629893  0.3440161066947 1.0
C      1  0.4122206333646  0.8802801616784  0.3596691814928 1.0
C      1  0.4227403237498  0.3503206444869  0.3178280309468 1.0
C      1  0.6220883335159  0.5334824045472  0.2682685757379 1.0
C      1  0.4066186558178  0.6288215756829  0.3047661822403 1.0
C      1  0.4216173026897  0.3819481528356  0.8585251548083 1.0
C      1  0.6713741363503  0.5217464305661  0.8043082981030 1.0
C      1  0.3760556062197  0.6524302245405  0.9262358122536 1.0
C      1  0.5726711777428  0.5484623315999  0.9445521876121 1.0
C      1  0.5013305072906  0.5631117599156  0.0124484484834 1.0
C      1  0.4493108345449  0.4791352956586  0.9995612191521 1.0
C      1  0.8951307089707  0.5129443490345  0.4623520319827 1.0
C      1  0.4079957527370  0.8325985430586  0.5119366467911 1.0
C      1  0.3372424946428  0.1976228331872  0.5200095553727 1.0
C      1  0.2285696036522  0.6573530366775  0.5575755064298 1.0
C      1  0.5446064908357  0.1329665193469  0.5710753300464 1.0
C      1  0.8088176099608  0.7008721637180  0.5120406979771 1.0
C      1  0.3460432631236  0.1286684616620  0.4058073131244 1.0
C      1  0.9149281508967  0.5452490332714  0.3269180337372 1.0
C      1  0.2646528090389  0.8463737158067  0.4384176425904 1.0
C      1  0.1374792916876  0.3856911840551  0.4534604426293 1.0
C      1  0.7704899136310  0.2695954337166  0.4359334197811 1.0
C      1  0.5944406765068  0.8506268464745  0.3954546715385 1.0
C      1  0.3498984503147  0.3576558038532  0.3783037315002 1.0
C      1  0.6854181253590  0.4758513658731  0.3046602980451 1.0
C      1  0.4459359408810  0.6936538390895  0.3566921138655 1.0
C      1  0.1976906298786  0.4623174155046  0.7755763244117 1.0
C      1  0.6788448784075  0.2692707428751  0.7540364966932 1.0
C      1  0.6006811894457  0.7358916268152  0.7002885496767 1.0
C      1  0.7567505797362  0.6441790112578  0.2049315508742 1.0
C      1  0.2338958959835  0.6284862006578  0.2573811980755 1.0
C      1  0.5065264579384  0.1933687502150  0.2650157362736 1.0
C      1  0.5486391026061  0.2788571406435  0.8618382791044 1.0
C      1  0.6911623636721  0.6751684498959  0.8176642140233 1.0
C      1  0.2395233554805  0.5809251085549  0.8846281185734 1.0
C      1  0.4701570427272  0.6108499530385  0.6392354718748 1.0
C      1  0.3585886222056  0.4977566975784  0.7379006856464 1.0
C      1  0.6444028877925  0.4085903788046  0.6588556042751 1.0
C      1  0.8463067411359  0.7490997019735  0.6747254530881 1.0
C      1  0.1263448166675  0.6589249734176  0.7061343454451 1.0
C      1  0.5143962203189  0.1028703268344  0.7430301035318 1.0
C      1  0.6850416871542  0.1780308047056  0.7181763443142 1.0
C      1  0.6513313242736  0.7956741412824  0.6439799141639 1.0
C      1  0.1198483694530  0.4362858005529  0.7232044955268 1.0
C      1  0.6869450337837  0.4622702559417  0.3998074050688 1.0
C      1  0.4472383414460  0.6726572147723  0.4584806075696 1.0
C      1  0.3842193416061  0.3587103574225  0.4765895727242 1.0
C      1  0.4558653375004  0.3986789826415  0.6221205698316 1.0
C      1  0.6796835884992  0.5214690864173  0.5430606502174 1.0
C      1  0.3305894945526  0.6593625867771  0.5497928786031 1.0
C      1  0.6318230893566  0.4030452659930  0.4584821452295 1.0
C      1  0.5358518562510  0.6268993918014  0.4911193829215 1.0
C      1  0.3382703832779  0.4357777799321  0.4404577084662 1.0
C      1  0.4028804494228  0.3000358566377  0.2278580974711 1.0
C      1  0.6030833557408  0.5231018969740  0.1662700453365 1.0
C      1  0.4132435492848  0.6136581397659  0.2084962752194 1.0
C      1  0.4372801870274  0.6316555508234  0.9772870402834 1.0
C      1  0.4321244326428  0.4312069280741  0.9349898245946 1.0
C      1  0.6108241915084  0.5230240499759  0.8762919328053 1.0
C      1  0.3421519295229  0.1717927563882  0.3220857432061 1.0
C      1  0.8610001130478  0.5163573259374  0.2514596863078 1.0
C      1  0.3202417699709  0.7830085679269  0.2510364157049 1.0
C      1  0.5002349598794  0.1324911129982  0.4865767155950 1.0
C      1  0.8462581989374  0.6742205127316  0.4250532823950 1.0
C      1  0.1899098893211  0.6980169458098  0.4708719192962 1.0
C      1  0.4799090157572  0.7618381056193  0.2901710978469 1.0
C      1  0.2612027844727  0.3245116704505  0.3385733919615 1.0
C      1  0.7366008045835  0.4322274373634  0.2312013683406 1.0
C      1  0.7041082587241  0.2162741400301  0.3977863295663 1.0
C      1  0.6654286264432  0.8125680018873  0.3480150230244 1.0
C      1  0.1407316500352  0.4697849348505  0.4151028190317 1.0
C      1  0.6491234309707  0.1620995850928  0.4595041508445 1.0
C      1  0.7340744648420  0.7771654312380  0.4047803627420 1.0
C      1  0.1553777623801  0.5472965921987  0.4720563286567 1.0
C      1  0.1557455621641  0.4292410136783  0.6299956130190 1.0
C      1  0.7232999901207  0.2740678447220  0.6037497580658 1.0
C      1  0.6427900598167  0.7684858360041  0.5457302358237 1.0
C      1  0.3600062480562  0.5336291589717  0.1845050768326 1.0
C      1  0.4831711421278  0.3144837661494  0.1747400967219 1.0
C      1  0.6345623974680  0.5979523696964  0.1104801572680 1.0
C      1  0.1631877136086  0.5032807880253  0.3259422644966 1.0
C      1  0.6547987138131  0.2218617827415  0.3121541138186 1.0
C      1  0.6831020636684  0.7732813503430  0.2630518361397 1.0
C      1  0.3961433896527  0.4458185367253  0.1673881898848 1.0
C      1  0.4924058893392  0.4045133180197  0.1542693301904 1.0
C      1  0.5388564634082  0.5909274874406  0.1065279210878 1.0
C      1  0.2615665937473  0.2236682797114  0.3299228698256 1.0
C      1  0.8335661546079  0.4242706740077  0.2615485163162 1.0
C      1  0.3990265027565  0.8220643134925  0.2848976988269 1.0
C      1  0.8115078645940  0.8330967711754  0.6956810709016 1.0
C      1  0.0604327327960  0.5967971687157  0.7230038937237 1.0
C      1  0.5837976747078  0.0570292443614  0.7901124463312 1.0
C      1  0.1714028307424  0.5993401233791  0.3260819401238 1.0
C      1  0.5733108388515  0.1705797663784  0.3276051212632 1.0
C      1  0.7639179673307  0.7154755391481  0.2702029792521 1.0
C      1  0.6393020240181  0.1471608421633  0.5547257453301 1.0
C      1  0.7322708075891  0.7561642143138  0.4963445666717 1.0
C      1  0.2025395176310  0.5589961945588  0.5523059784519 1.0
C      1  0.6676493811142  0.5418390355594  0.4479799680527 1.0
C      1  0.3879707766485  0.5926538416521  0.4935396972952 1.0
C      1  0.4783380003734  0.3886191415021  0.4879007878138 1.0
C      1  0.4987959500832  0.4042413632184  0.3452477041701 1.0
C      1  0.5587353841976  0.5614516241927  0.3320068053269 1.0
C      1  0.3991819354714  0.5417895164297  0.3450601367547 1.0
C      1  0.2004395664319  0.5137659432190  0.8544464100080 1.0
C      1  0.6246505790667  0.2805871721728  0.8277642058638 1.0
C      1  0.6282728413438  0.7218090535066  0.7879840602450 1.0
C      1  0.5863484486869  0.6821254159175  0.5572139971525 1.0
C      1  0.2205312599292  0.4991466373280  0.6251015074255 1.0
C      1  0.6944616919194  0.1846810100016  0.6229027407972 1.0
C      1  0.5307359983533  0.7226840153059  0.2122989739462 1.0
C      1  0.2609834357665  0.3851497232080  0.2555443647272 1.0
C      1  0.6590613575963  0.3715367149749  0.1960363505637 1.0
C      1  0.7586636852402  0.5157442562462  0.6781135786536 1.0
C      1  0.3636098223496  0.6625781649608  0.7191635613687 1.0
C      1  0.3789651774453  0.3268821893448  0.7222731391843 1.0
C      1  0.3877685395230  0.3391105490917  0.6259985805123 1.0
C      1  0.7647129287578  0.5105653400253  0.5817577394927 1.0
C      1  0.3950410444823  0.6816052261932  0.6239521900648 1.0
C      1  0.7366677934099  0.5954088868713  0.8060209277175 1.0
C      1  0.2994012293430  0.6521866406643  0.8722780025129 1.0
C      1  0.4580856698514  0.2925997303885  0.8472289566490 1.0
C      1  0.2931448481977  0.6857770929962  0.7805086200494 1.0
C      1  0.4184344600691  0.2529725104642  0.7673412087639 1.0
C      1  0.7969125197380  0.5854210719556  0.7307540536200 1.0
C      1  0.2120257483343  0.6962339185563  0.7326551135108 1.0
C      1  0.4553840051391  0.1748679827032  0.7277418654315 1.0
C      1  0.8412957827323  0.6554112795193  0.6858748310017 1.0
C      1  0.5858038928449  0.4271690262306  0.1575306947570 1.0
C      1  0.4879522399013  0.6498684438612  0.1672832021800 1.0
C      1  0.3393673009872  0.3733262720305  0.2032120379442 1.0
C      1  0.5484120698738  0.2577702038760  0.2065126416798 1.0
C      1  0.6761970120267  0.6646363425428  0.1555708348258 1.0
C      1  0.2703506940254  0.5446834186255  0.2191845866220 1.0
C      1  0.2384818481355  0.3273676457407  0.5220432450489 1.0
C      1  0.8231251411941  0.3796700949960  0.5034065861799 1.0
C      1  0.4958652666677  0.8595967632700  0.4912038680563 1.0
C      1  0.4816217070521  0.4977077906952  0.3329262676424 1.0
END
