TITL C-32399-6830-16 -7.576 3375.00 -1319.34075438 0 0 162 (C1) n - 1
REM
REM Run started: at 2020.12.22 10:12:26 in /gpfs/home/chem/mssmkc/CARBON/AIRSS/Generating-Clusters/Str-Search/Higher-Symm/C100-200
REM VASP from code version vasp.5.4.4.18Apr17-6-g9f103f2a35 (build Oct 11 2019 16:45:47) gamma-only
REM
REM
REM
REM
REM ./C.cell (533062f00bc710175b3da973d35f2034)
REM AIRSS Version 0.9.1 bugfix July 2018 build 013d7b7c2542+ Fri, 06 Jul 2018 19:26:36 +0100
REM compiler GCC version 6.3.0
REM options -cpp -iprefix /gpfs/warwick/csc/orac/software/Core/GCCcore/6.3.0/bin/../lib/gcc/x86_64-pc-linux-gnu/6.3.0/ -mtune=generic -march=x86-64 -g -O0
REM seed -2098409014 1622584173 -2011310475 -2010190487 2097231976 -343165685 1638550507 1617359105 1169615770 -730551729 -181301100 -84043036
REM
REM C.POTCAR (d86ddea03c3ceb6dc662c8ad6801f873)
REM 
CELL 1.54180   15.00000   15.00000   15.00000   90.00000   90.00000   90.00000
LATT -1
SFAC C  
C      1  0.2918617549474  0.4247715781028  0.1674612226917 1.0
C      1  0.7677139107797  0.2523066803705  0.6548685272899 1.0
C      1  0.7942120737614  0.4727579116438  0.6088786553476 1.0
C      1  0.4361402105205  0.8105426207420  0.3167948753675 1.0
C      1  0.3403692634148  0.7881776370610  0.5618243060419 1.0
C      1  0.8018047687816  0.6144941228419  0.5974917262959 1.0
C      1  0.2914285502745  0.2474408644999  0.3151405619845 1.0
C      1  0.1148709504538  0.4382367908076  0.7383858903169 1.0
C      1  0.4137644790531  0.7152164750629  0.5872387200017 1.0
C      1  0.6349907076117  0.3916708934934  0.3639495823219 1.0
C      1  0.8649954387462  0.3457384270913  0.5391234141028 1.0
C      1  0.1657861923815  0.5824030328707  0.4928721270094 1.0
C      1  0.3938106986115  0.5903077314611  0.3239597961275 1.0
C      1  0.2969177010118  0.6541116060335  0.6994630790652 1.0
C      1  0.2256481790737  0.3587394278375  0.2026518582505 1.0
C      1  0.3088101722770  0.4692877814769  0.3973598655123 1.0
C      1  0.2584225612429  0.6779699132305  0.3846727953489 1.0
C      1  0.7202658637180  0.3353331622859  0.3389637102053 1.0
C      1  0.7884019141731  0.3005975411426  0.4949622447201 1.0
C      1  0.5199064700835  0.6942037343638  0.4086033522076 1.0
C      1  0.4757092266785  0.2336158031744  0.4817811982094 1.0
C      1  0.2037779394218  0.1505141843608  0.5255825783811 1.0
C      1  0.5631037004692  0.0986286575232  0.4887051477095 1.0
C      1  0.4179490523534  0.2123768933725  0.5596565153739 1.0
C      1  0.4873993024222  0.7924303731222  0.4017486370786 1.0
C      1  0.3092597508854  0.6536671353058  0.2951752494709 1.0
C      1  0.5730877531019  0.3174057217251  0.3970546304570 1.0
C      1  0.5620986053452  0.5727660246174  0.1355520401665 1.0
C      1  0.6084865473292  0.4269707536490  0.2726843090228 1.0
C      1  0.3927919162047  0.5731120072011  0.7973079325847 1.0
C      1  0.6927484094633  0.5587374216378  0.4266097283380 1.0
C      1  0.7891493827011  0.7593070991945  0.4948569998164 1.0
C      1  0.4823208581884  0.6302647629610  0.3390057727612 1.0
C      1  0.1919925576058  0.7455202931573  0.5190334459105 1.0
C      1  0.5957544744505  0.6727295440987  0.8078936530538 1.0
C      1  0.5202947329305  0.4036041346696  0.2377012551414 1.0
C      1  0.6024418383123  0.6911575327340  0.3498579466491 1.0
C      1  0.5564581791199  0.6554834734320  0.5038691437723 1.0
C      1  0.4398852865309  0.7535690767956  0.7560119354712 1.0
C      1  0.5989490890808  0.4361942294373  0.8822500126182 1.0
C      1  0.4489252234877  0.3591683308333  0.7499860916246 1.0
C      1  0.5926217890026  0.0880252003681  0.5655890992376 1.0
C      1  0.4030759858223  0.1945633957668  0.7183498104697 1.0
C      1  0.2300744327752  0.5373605178018  0.7949815401334 1.0
C      1  0.5610524804269  0.6219816987730  0.2939049539785 1.0
C      1  0.5014319915473  0.3553575528650  0.8293208509380 1.0
C      1  0.6307399057554  0.4769185034225  0.4220033112644 1.0
C      1  0.3341324134547  0.2326485627711  0.7458602911855 1.0
C      1  0.7850756642524  0.5356412149861  0.7731132292158 1.0
C      1  0.3718512710265  0.6947789188468  0.2225412729842 1.0
C      1  0.6774651920722  0.5774867866538  0.6800757909491 1.0
C      1  0.6489609641681  0.3334272636590  0.7599751220248 1.0
C      1  0.4144821300887  0.6182201332347  0.1761124214386 1.0
C      1  0.2613168933353  0.4529129381942  0.4819705869308 1.0
C      1  0.2959310111699  0.5072249661084  0.2228877552302 1.0
C      1  0.6673551356482  0.6407191630715  0.4932330826175 1.0
C      1  0.8012052253252  0.3349124969444  0.6945179924987 1.0
C      1  0.2759770527955  0.4059044204294  0.6344682486034 1.0
C      1  0.2083556692939  0.2740934690908  0.6588652789607 1.0
C      1  0.3175512720209  0.4335626136950  0.5552059789845 1.0
C      1  0.5321818992726  0.1714205721617  0.4382676708511 1.0
C      1  0.5149652730359  0.7275709263732  0.5670125212198 1.0
C      1  0.6721157527689  0.2853734149364  0.2590204708879 1.0
C      1  0.2512789260993  0.2613490950462  0.3980796184365 1.0
C      1  0.7386455699508  0.3724840854237  0.7607136248493 1.0
C      1  0.6800860424750  0.6735375803168  0.2102369439114 1.0
C      1  0.5857154794112  0.2218540731384  0.3748012127798 1.0
C      1  0.5226279147713  0.7324971370938  0.1838135957361 1.0
C      1  0.5447828386214  0.8477014030998  0.4575600103680 1.0
C      1  0.4173412930936  0.4851012664933  0.8296874990190 1.0
C      1  0.2980859089570  0.2992437949742  0.2366745067431 1.0
C      1  0.4665099817270  0.4161732794649  0.4563637991217 1.0
C      1  0.2347779660440  0.7618758759910  0.4371485039041 1.0
C      1  0.6592019118668  0.3528271663283  0.5948032770809 1.0
C      1  0.5960678989588  0.3528631933772  0.8319053863629 1.0
C      1  0.6145649022567  0.7504249470258  0.2072937173279 1.0
C      1  0.6770463097364  0.6543260370003  0.3975675818189 1.0
C      1  0.3562857053516  0.3725533674837  0.2189087217383 1.0
C      1  0.4465190716527  0.6347704429163  0.7439440019967 1.0
C      1  0.3900690985993  0.6921503861767  0.6867854201962 1.0
C      1  0.6884910549056  0.4418764644562  0.5998141726889 1.0
C      1  0.8412470761160  0.3862494995810  0.6276813981541 1.0
C      1  0.4807975264457  0.4454038225919  0.6140765111960 1.0
C      1  0.2550597339792  0.7656806004372  0.5915197031088 1.0
C      1  0.3933227722434  0.5333460420546  0.2365518353225 1.0
C      1  0.7289853745210  0.7831075937392  0.5613040714546 1.0
C      1  0.4270493141657  0.4292109039009  0.2679145373237 1.0
C      1  0.6059631803324  0.3474132565609  0.2099140258126 1.0
C      1  0.6823050644023  0.5820526087324  0.8867313994486 1.0
C      1  0.9148184782164  0.4683547120906  0.4413801547595 1.0
C      1  0.2032423240668  0.4568244397675  0.7718624095639 1.0
C      1  0.5606281645789  0.4084009327369  0.1442812979672 1.0
C      1  0.5014313719209  0.3236972868611  0.4528098101206 1.0
C      1  0.6656737664545  0.5009168275249  0.2422433015306 1.0
C      1  0.6209756449101  0.1562461391316  0.6263768789625 1.0
C      1  0.6698644005235  0.6385785783034  0.7530291495910 1.0
C      1  0.2570573214691  0.4867117374451  0.3163585734509 1.0
C      1  0.7094257508654  0.1966802048979  0.6215645202837 1.0
C      1  0.0940717017627  0.4377060312830  0.6567686756355 1.0
C      1  0.3923848807924  0.8165797771973  0.3948016394209 1.0
C      1  0.1733509782989  0.5567337790036  0.3222001542626 1.0
C      1  0.1757375852635  0.6559444321240  0.5576570662443 1.0
C      1  0.1708239372434  0.4831136510012  0.5074117926578 1.0
C      1  0.5621633612441  0.4881738618149  0.1067622410568 1.0
C      1  0.7476970845247  0.4545188019790  0.8106887190501 1.0
C      1  0.7412210506220  0.6097828736782  0.8145082805875 1.0
C      1  0.7682758279774  0.6786876958310  0.3615424801589 1.0
C      1  0.4968047789737  0.6446880066768  0.1419750653523 1.0
C      1  0.2456247234469  0.5845663203123  0.2584021125204 1.0
C      1  0.6555513629178  0.8322951010262  0.5381441793873 1.0
C      1  0.3748681945222  0.4172742229032  0.7734204286329 1.0
C      1  0.7193459057571  0.2805281539348  0.5644926380685 1.0
C      1  0.7624116354883  0.6561360048626  0.2635795805481 1.0
C      1  0.2857576022748  0.3960872881638  0.7339536368357 1.0
C      1  0.6339421276924  0.2153564494139  0.2994750083737 1.0
C      1  0.1843693841693  0.6089693462936  0.4029640958228 1.0
C      1  0.3239114793326  0.2130034648545  0.5458862925182 1.0
C      1  0.5595972187660  0.2205259588903  0.6523956879033 1.0
C      1  0.6050344984606  0.6353714501915  0.8927751918991 1.0
C      1  0.8308857054854  0.5450421073434  0.5452408147332 1.0
C      1  0.5574508437063  0.8127618303419  0.5447921290850 1.0
C      1  0.5008625755084  0.3695510821470  0.6729641778670 1.0
C      1  0.7909123871062  0.5684171870352  0.2833027491152 1.0
C      1  0.2753916968550  0.1915056424050  0.4628899616417 1.0
C      1  0.7472983556361  0.6845297493324  0.5510378588494 1.0
C      1  0.5393598346662  0.5138446004355  0.6020639330953 1.0
C      1  0.6433178691167  0.8573083018055  0.4441989549537 1.0
C      1  0.3020748610969  0.5873041159336  0.7679894977194 1.0
C      1  0.2373209352251  0.2086540699385  0.5915024565192 1.0
C      1  0.5921802465089  0.3173603207179  0.6697883648552 1.0
C      1  0.7956564436396  0.5783601996168  0.3857998567703 1.0
C      1  0.6202080041911  0.5879947322657  0.2185744342406 1.0
C      1  0.7544698765225  0.4887173867376  0.2490975141662 1.0
C      1  0.5136957687224  0.6995713788327  0.7666622106161 1.0
C      1  0.3864644782059  0.5335414323321  0.4032291460024 1.0
C      1  0.1332185306783  0.4249458935783  0.5714773880735 1.0
C      1  0.3276748251426  0.7907616718522  0.4613700227659 1.0
C      1  0.4386117664926  0.7613103343466  0.2337867671968 1.0
C      1  0.3111386082328  0.1754414648856  0.3699896987872 1.0
C      1  0.7760403176232  0.5513123411174  0.6743977025404 1.0
C      1  0.3304842678829  0.6874969089508  0.4546268870297 1.0
C      1  0.7708090329393  0.3090454902308  0.4067396596809 1.0
C      1  0.6776919909017  0.4861398620553  0.8762720351379 1.0
C      1  0.4122741605727  0.4550377505483  0.5408140239981 1.0
C      1  0.5471966350952  0.4857146043211  0.4562974663893 1.0
C      1  0.1945015527307  0.3605076091732  0.6139741559764 1.0
C      1  0.2643494005962  0.2919065896312  0.7335037499176 1.0
C      1  0.8574917404979  0.5388431676133  0.4515275954447 1.0
C      1  0.5178365928967  0.5623841468274  0.5147489514202 1.0
C      1  0.2333625870225  0.6813268925117  0.6364643060347 1.0
C      1  0.9186354887011  0.3963215296299  0.4859935957408 1.0
C      1  0.6359873042685  0.7717858619251  0.3017166474390 1.0
C      1  0.3754979132326  0.6437948427910  0.5217241250377 1.0
C      1  0.4967319932959  0.4416771748085  0.8706061924428 1.0
C      1  0.4073877519348  0.4398314410940  0.3749898045405 1.0
C      1  0.6933800144853  0.8205871066681  0.3727233022013 1.0
C      1  0.1610154836684  0.4615319503085  0.3020544336883 1.0
C      1  0.4162224442674  0.5552809843598  0.4996081249127 1.0
C      1  0.7707902549720  0.7669580535048  0.4041344439868 1.0
C      1  0.4601369695243  0.2042353503621  0.6434623451649 1.0
C      1  0.6314431309716  0.5137866340067  0.6314019774070 1.0
C      1  0.1530231079006  0.3974069365020  0.2406868833232 1.0
END
