TITL C-32399-6830-23 -6.949 3375.00 -1251.78763047 0 0 150 (C1) n - 1
REM
REM Run started: at 2020.12.22 14:53:32 in /gpfs/home/chem/mssmkc/CARBON/AIRSS/Generating-Clusters/Str-Search/Higher-Symm/C100-200
REM VASP from code version vasp.5.4.4.18Apr17-6-g9f103f2a35 (build Oct 11 2019 16:45:47) gamma-only
REM
REM
REM
REM
REM ./C.cell (533062f00bc710175b3da973d35f2034)
REM AIRSS Version 0.9.1 bugfix July 2018 build 013d7b7c2542+ Fri, 06 Jul 2018 19:26:36 +0100
REM compiler GCC version 6.3.0
REM options -cpp -iprefix /gpfs/warwick/csc/orac/software/Core/GCCcore/6.3.0/bin/../lib/gcc/x86_64-pc-linux-gnu/6.3.0/ -mtune=generic -march=x86-64 -g -O0
REM seed 1538511897 797034953 1626085340 1831927344 -40340588 -1591086128 336698666 1114962000 1352302387 125754692 -231884015 76374223
REM
REM C.POTCAR (d86ddea03c3ceb6dc662c8ad6801f873)
REM 
CELL 1.54180   15.00000   15.00000   15.00000   90.00000   90.00000   90.00000
LATT -1
SFAC C  
C      1  0.7653044610491  0.7628710995799  0.4864040810209 1.0
C      1  0.7766077148262  0.7603479030266  0.5903616879986 1.0
C      1  0.6572172847241  0.7602252481136  0.7644385547471 1.0
C      1  0.4722320875949  0.7470083707667  0.7359544399825 1.0
C      1  0.3800512468923  0.7498945913282  0.7288750232752 1.0
C      1  0.2472363782614  0.7563860269712  0.5973987335866 1.0
C      1  0.2399235773734  0.7388882238876  0.4372572003186 1.0
C      1  0.2762168667156  0.7435410745128  0.3485779771086 1.0
C      1  0.4495956868200  0.7481335918015  0.2257273285520 1.0
C      1  0.5454864320051  0.7453946829842  0.2192404971340 1.0
C      1  0.6828491904050  0.7706039132862  0.3178351134775 1.0
C      1  0.6609642400977  0.3293332470259  0.2425760614237 1.0
C      1  0.7498597315913  0.3423451735501  0.3799231110029 1.0
C      1  0.7784741814235  0.3440484143463  0.5345030954989 1.0
C      1  0.7129672610366  0.3435134621502  0.6828777960969 1.0
C      1  0.5786196211137  0.3434886790846  0.7636206543932 1.0
C      1  0.4167073876434  0.3286589922617  0.7872622578488 1.0
C      1  0.2924867967412  0.3379760800783  0.6806815708912 1.0
C      1  0.2225872640009  0.3330288324965  0.5406648392891 1.0
C      1  0.2432986952756  0.3298626683939  0.3797332448269 1.0
C      1  0.3456969485658  0.3305828907377  0.2613813620340 1.0
C      1  0.5026055301584  0.3352129412650  0.2191502674525 1.0
C      1  0.5783960427945  0.3925765166086  0.3697535280825 1.0
C      1  0.6608230292169  0.3860055930079  0.4241020068251 1.0
C      1  0.6781783778290  0.3883390842829  0.5234088835036 1.0
C      1  0.6380003636517  0.3893330600135  0.6158499503592 1.0
C      1  0.5522347384984  0.3873958962548  0.6688213907197 1.0
C      1  0.4577082182955  0.3955132350166  0.6399732023847 1.0
C      1  0.3628957431866  0.3839147376777  0.6136007367942 1.0
C      1  0.3195779663688  0.3819691821377  0.5220795280192 1.0
C      1  0.3340223823514  0.3800971688181  0.4215001970057 1.0
C      1  0.3983015395800  0.3808690452306  0.3439187947051 1.0
C      1  0.4961956861203  0.3814061431418  0.3163801357501 1.0
C      1  0.7199818326450  0.5230597619767  0.6859045561766 1.0
C      1  0.5770095733886  0.5198987824358  0.7719451376353 1.0
C      1  0.4096970136693  0.5186303397949  0.7998018097614 1.0
C      1  0.2828821321718  0.5167775224487  0.6860869275868 1.0
C      1  0.2076610445157  0.5097478885267  0.5369405593092 1.0
C      1  0.2269092417452  0.5040787048531  0.3729148108891 1.0
C      1  0.3372856738206  0.5103084114924  0.2490234917948 1.0
C      1  0.4972418847279  0.5085017289593  0.2049053741702 1.0
C      1  0.6641992203392  0.5202380693166  0.2316819795136 1.0
C      1  0.7528911481190  0.5221839443988  0.3732433708304 1.0
C      1  0.7853736887947  0.5180704701708  0.5370855976820 1.0
C      1  0.3298722355686  0.4703223403360  0.7677643410363 1.0
C      1  0.2073336717665  0.4695534918922  0.6314443426558 1.0
C      1  0.1764887949917  0.4593563346749  0.4508655443033 1.0
C      1  0.2510774622961  0.4627839352212  0.2828862532993 1.0
C      1  0.4063901249101  0.4616024382222  0.1874845920239 1.0
C      1  0.5914071849678  0.4700573206075  0.1891141872537 1.0
C      1  0.7323546486154  0.4736974785619  0.2834424781911 1.0
C      1  0.8126329413870  0.4787654923782  0.4465778201969 1.0
C      1  0.7926672367259  0.4740016869082  0.6295213380203 1.0
C      1  0.6718182699549  0.4789740810540  0.7663439579518 1.0
C      1  0.4953496318590  0.4724266860078  0.8157935612636 1.0
C      1  0.4149549899640  0.8143755704793  0.2799353886239 1.0
C      1  0.5971374103256  0.8007108654466  0.2722729008105 1.0
C      1  0.7730401464495  0.8117198380039  0.3346829487138 1.0
C      1  0.8125826887020  0.8080043723398  0.4081400345793 1.0
C      1  0.7221877826353  0.8259401317630  0.6310502055338 1.0
C      1  0.6923928845002  0.8322257900400  0.7197964822427 1.0
C      1  0.6030653063763  0.8404101643669  0.7557095753924 1.0
C      1  0.3479846456366  0.8326608014989  0.6913092284814 1.0
C      1  0.2607717169625  0.8209825221382  0.6637006929223 1.0
C      1  0.2716366428913  0.7901344382323  0.5094198185789 1.0
C      1  0.3352210521351  0.8115294884375  0.3341138663533 1.0
C      1  0.5729862432694  0.6551166379697  0.2024498410692 1.0
C      1  0.6973826998732  0.6686160471493  0.3102972481474 1.0
C      1  0.7693835445412  0.6643426722947  0.4612594603710 1.0
C      1  0.7763846281034  0.6683305929213  0.6196266018966 1.0
C      1  0.6605400650018  0.6668641176428  0.7488206175695 1.0
C      1  0.4967778114575  0.6617748061310  0.7738765995694 1.0
C      1  0.3417095001492  0.6612196452343  0.7395914329921 1.0
C      1  0.2318273847812  0.6614139148222  0.6108041757992 1.0
C      1  0.2054808199814  0.6508536644262  0.4503127340757 1.0
C      1  0.2725723999503  0.6538199102726  0.3077118136789 1.0
C      1  0.4146966151944  0.6567528862772  0.2125293574283 1.0
C      1  0.6627768440227  0.4912849012943  0.4216418345582 1.0
C      1  0.6819101689014  0.4901964713041  0.5237308328279 1.0
C      1  0.6416552127512  0.4925345714664  0.6188694241245 1.0
C      1  0.5525202985674  0.4926254711046  0.6717716862891 1.0
C      1  0.4556478192170  0.4859454859042  0.6408986104759 1.0
C      1  0.3569608049623  0.4894696812374  0.6146065463740 1.0
C      1  0.3106156004345  0.4840761387555  0.5206054734077 1.0
C      1  0.3252647681183  0.4818530857714  0.4170472488777 1.0
C      1  0.3922208044244  0.4836933460182  0.3371765280800 1.0
C      1  0.4930193497335  0.4861258228346  0.3100392810313 1.0
C      1  0.5782235513536  0.4840785494044  0.3653515687044 1.0
C      1  0.6749353994080  0.2515034478423  0.6823797728559 1.0
C      1  0.5964528483306  0.2489582850751  0.7341488920111 1.0
C      1  0.4304214615394  0.2489843268330  0.7461730440119 1.0
C      1  0.2970668527305  0.2429641345477  0.6477132263137 1.0
C      1  0.2581381419307  0.2424376704791  0.5621596543012 1.0
C      1  0.2839127803345  0.2389020998842  0.3724011248047 1.0
C      1  0.3447038081388  0.2391981892978  0.3013843473598 1.0
C      1  0.5282072848426  0.2441539132216  0.2486603681630 1.0
C      1  0.6194173323391  0.2452576258740  0.2705849445515 1.0
C      1  0.7402033377302  0.2495009586757  0.4155045945702 1.0
C      1  0.7545215080598  0.2510539247010  0.5077900552783 1.0
C      1  0.4935281909438  0.6048911748562  0.1940369483429 1.0
C      1  0.6512724664234  0.6168422243753  0.2433027654025 1.0
C      1  0.7466219955286  0.6233838998196  0.3772811129161 1.0
C      1  0.7863632580065  0.6155737393343  0.5386931714548 1.0
C      1  0.7268911787117  0.6249872137958  0.6908499061175 1.0
C      1  0.5796217617909  0.6192917485897  0.7733364041690 1.0
C      1  0.4140444851010  0.6100227328836  0.7804303151219 1.0
C      1  0.2769241486764  0.6184759394566  0.6868524197665 1.0
C      1  0.2049752785989  0.6097926385220  0.5350407044772 1.0
C      1  0.2235384215933  0.6015988426936  0.3703838122483 1.0
C      1  0.3367688692335  0.6134634462954  0.2482346498400 1.0
C      1  0.2134539927591  0.3791258337334  0.6309733580721 1.0
C      1  0.1850489250754  0.3676276473747  0.4534479382123 1.0
C      1  0.2575459741276  0.3723379881945  0.2880697482816 1.0
C      1  0.4097858223395  0.3700197620672  0.1939231680375 1.0
C      1  0.5917884142598  0.3780084067576  0.1948973563649 1.0
C      1  0.7313639401759  0.3785692902345  0.2874679321882 1.0
C      1  0.8100843639834  0.3882207740518  0.4480897474385 1.0
C      1  0.7885186644279  0.3821441403048  0.6279098385478 1.0
C      1  0.6707150638593  0.3884695987334  0.7633016349992 1.0
C      1  0.4981306778954  0.3798516763837  0.8120985879064 1.0
C      1  0.3330398129825  0.3774533858025  0.7640470422847 1.0
C      1  0.3478180810488  0.8503871194852  0.4952190622084 1.0
C      1  0.3779043752935  0.8584901975578  0.4069813236352 1.0
C      1  0.4641546457725  0.8597411932291  0.3503154532882 1.0
C      1  0.5573212058677  0.8431134257074  0.3496621782136 1.0
C      1  0.6322096101197  0.8125826636718  0.4025305272137 1.0
C      1  0.6709140534199  0.8058934527516  0.4828729073569 1.0
C      1  0.6452016833486  0.8318315127806  0.5718718275452 1.0
C      1  0.5610746995931  0.8178325665418  0.6033681563381 1.0
C      1  0.5181837001789  0.8280581149863  0.6952691752376 1.0
C      1  0.4259991576248  0.8774059869169  0.6585437048485 1.0
C      1  0.4193112572119  0.8586915971788  0.5627844747888 1.0
C      1  0.5496373337580  0.1943804849049  0.6645554976391 1.0
C      1  0.4541441606761  0.1968421994478  0.6692913851009 1.0
C      1  0.3759881866017  0.1906712683127  0.6145844683504 1.0
C      1  0.3365206203134  0.1918885365332  0.5231067189267 1.0
C      1  0.3478507193336  0.1893573039945  0.4318291750376 1.0
C      1  0.4139180555756  0.1906770258748  0.3556799381994 1.0
C      1  0.5021060043869  0.1920130797203  0.3288351721129 1.0
C      1  0.5995441267459  0.1927128603374  0.3548759745618 1.0
C      1  0.6579736469408  0.1941776876122  0.4250708679203 1.0
C      1  0.6719750305600  0.1964586268902  0.5249650616570 1.0
C      1  0.6322816611271  0.1983005325384  0.6079804527991 1.0
C      1  0.4842560752159  0.7219868755613  0.4956110822330 1.0
C      1  0.4883626416447  0.6397142862935  0.4859716883801 1.0
C      1  0.4975540882945  0.3793564611040  0.4953905134881 1.0
C      1  0.4936249316201  0.4686567169042  0.4931664411930 1.0
C      1  0.4909613912627  0.5517616675211  0.4876969342072 1.0
C      1  0.4999523637548  0.2943900396079  0.4991011159511 1.0
C      1  0.4903291002751  0.8020106522832  0.5409506919228 1.0
END
