TITL C-32167-1581-10 -2.942 3375.00 -486.08472554 0 0 60 (C1) n - 1
REM
REM Run started: at 2020.12.17 05:40:28 in /rds/project/t2_vol4/rds-t2-cs072/BORA/CARBON/AIRSS/Generating-Clusters/Str-Search/Higher-Symm/Only-C60
REM VASP from code version vasp.5.4.4.18Apr17-6-g9f103f2a35 (build Oct 11 2019 16:45:47) gamma-only
REM
REM
REM
REM
REM ./C.cell (5f7b7a0d59291d2373303da1f58b8d66)
REM AIRSS Version 0.9.1 bugfix July 2018 build 013d7b7c2542+ Fri, 06 Jul 2018 19:26:36 +0100
REM compiler GCC version 4.8.5 20150623 (Red Hat 4.8.5-39)
REM options -cpp -mtune=generic -march=x86-64 -g -O0
REM seed -2004097787 -1222779521 -1676195499 970631166 -353426224 -588077429 -1290985009 -203974474 -1792629006 381788318 802619368 -577692974
REM
REM C.POTCAR (d86ddea03c3ceb6dc662c8ad6801f873)
REM 
CELL 1.54180   15.00000   15.00000   15.00000   90.00000   90.00000   90.00000
LATT -1
SFAC C  
C      1  0.5507488351748  0.3599708180511  0.3363343609773 1.0
C      1  0.3436894771886  0.4554664521786  0.3409099058672 1.0
C      1  0.3149817281059  0.6498514826137  0.2993684363246 1.0
C      1  0.5743147877575  0.6187700246317  0.3141056961946 1.0
C      1  0.6720772243710  0.4642774362583  0.3437587725702 1.0
C      1  0.4956270447259  0.3579980352238  0.6564476284106 1.0
C      1  0.3813721233203  0.4624338775596  0.6563277408479 1.0
C      1  0.3489237056890  0.6609820951763  0.7020039611798 1.0
C      1  0.5838878927252  0.5965220948134  0.6522823264948 1.0
C      1  0.6497947882802  0.4536265089232  0.6491741366268 1.0
C      1  0.7155231860127  0.6410161219989  0.5344310099163 1.0
C      1  0.6994620743709  0.3164424825869  0.5464949542968 1.0
C      1  0.4652609465257  0.2642637150347  0.5317779971658 1.0
C      1  0.2407314789323  0.4744924435283  0.5821534617660 1.0
C      1  0.4323922127859  0.6760488749517  0.5607773292554 1.0
C      1  0.7054104587231  0.6560889705780  0.4399165271330 1.0
C      1  0.7241596175237  0.3283066853466  0.4530446124301 1.0
C      1  0.4309202991605  0.2777970149810  0.4426265845281 1.0
C      1  0.3278542629144  0.5732147422301  0.4670086009092 1.0
C      1  0.4327469547395  0.6894437062049  0.4015285724463 1.0
C      1  0.7018207397195  0.3792489038587  0.3737252855716 1.0
C      1  0.4657241364608  0.3307309937928  0.3645648061444 1.0
C      1  0.3121876042383  0.5269605274075  0.3799160936206 1.0
C      1  0.4057346788146  0.6575862921946  0.3117548859046 1.0
C      1  0.6532503611085  0.6268920566968  0.3604187705704 1.0
C      1  0.6550025182633  0.3633563439273  0.6196648856313 1.0
C      1  0.4256341718518  0.3199556944500  0.6027008166732 1.0
C      1  0.3023497907141  0.5173178703539  0.6451810948727 1.0
C      1  0.4272089777696  0.6614003719079  0.6593840392379 1.0
C      1  0.6695344729544  0.6014467689211  0.6079388577751 1.0
C      1  0.4862390169955  0.6149738051881  0.2818492491352 1.0
C      1  0.7107471596487  0.5481321063951  0.3578609543837 1.0
C      1  0.6318963633043  0.3140651459294  0.3586964597430 1.0
C      1  0.3785293932067  0.3751359474983  0.3588455143242 1.0
C      1  0.2626962470057  0.6147623489556  0.3666596780599 1.0
C      1  0.5251339009922  0.6687334049661  0.6514261728201 1.0
C      1  0.7157385534200  0.5167539508287  0.6214345600682 1.0
C      1  0.5738850681715  0.3153957725623  0.6315330525240 1.0
C      1  0.3570041008156  0.3818434521120  0.6080605727130 1.0
C      1  0.2880178077202  0.6163904427517  0.6452934913898 1.0
C      1  0.2750587794822  0.3890633695490  0.5577869524180 1.0
C      1  0.2357244731723  0.6353439125614  0.5680318301292 1.0
C      1  0.5149343828433  0.7235616358043  0.5681329412461 1.0
C      1  0.7964794544480  0.5005191194708  0.5724973458870 1.0
C      1  0.5560558082629  0.2520200365936  0.5593738164827 1.0
C      1  0.3417676262810  0.3147722551815  0.4296378464316 1.0
C      1  0.2266061578420  0.6238264732362  0.4614304041595 1.0
C      1  0.4989607102823  0.7514011682279  0.4186257920725 1.0
C      1  0.7729065150640  0.5862298856730  0.4234487233208 1.0
C      1  0.6664934490700  0.2516482752408  0.4246935028813 1.0
C      1  0.7923107696824  0.5718021208326  0.5150423818972 1.0
C      1  0.2379248599297  0.5490008475362  0.5200251245476 1.0
C      1  0.5427973643249  0.7616300493314  0.4903417572908 1.0
C      1  0.2725606586477  0.3412825634173  0.4803306149027 1.0
C      1  0.6374254812188  0.2445508484392  0.5146202131537 1.0
C      1  0.5382733756617  0.5341444353154  0.2869449663255 1.0
C      1  0.5646567457398  0.5009657778282  0.6720196441122 1.0
C      1  0.5787642382659  0.4530914395035  0.3121116837131 1.0
C      1  0.4814961938428  0.4518847943072  0.6760966246758 1.0
C      1  0.3967129937359  0.6451695083818  0.4806605778490 1.0
END
