TITL C-32167-1581-16 -2.855 3375.00 -497.31541807 0 0 60 (D6d) n - 1
REM
REM Run started: at 2020.12.17 06:54:40 in /rds/project/t2_vol4/rds-t2-cs072/BORA/CARBON/AIRSS/Generating-Clusters/Str-Search/Higher-Symm/Only-C60
REM VASP from code version vasp.5.4.4.18Apr17-6-g9f103f2a35 (build Oct 11 2019 16:45:47) gamma-only
REM
REM
REM
REM
REM ./C.cell (5f7b7a0d59291d2373303da1f58b8d66)
REM AIRSS Version 0.9.1 bugfix July 2018 build 013d7b7c2542+ Fri, 06 Jul 2018 19:26:36 +0100
REM compiler GCC version 4.8.5 20150623 (Red Hat 4.8.5-39)
REM options -cpp -mtune=generic -march=x86-64 -g -O0
REM seed -1538839674 -1258144373 -25315187 -423129652 -1315530201 894140837 1802637344 -546638306 1103237889 -746997204 -589477559 -627616213
REM
REM C.POTCAR (d86ddea03c3ceb6dc662c8ad6801f873)
REM 
CELL 1.54180   15.00000   15.00000   15.00000   90.00000   90.00000   90.00000
LATT -1
SFAC C  
C      1  0.3047021313672  0.5404202049180  0.4006812949887 1.0
C      1  0.3107208974679  0.4373990805234  0.5993163741850 1.0
C      1  0.3673791775948  0.3509705027809  0.4007103747569 1.0
C      1  0.4595797929269  0.3047020981498  0.5993187056687 1.0
C      1  0.5626009342886  0.3107208645277  0.4006834841279 1.0
C      1  0.6490295355668  0.3673791655610  0.5992894941666 1.0
C      1  0.6952979515239  0.4595798622591  0.4006812050261 1.0
C      1  0.6892791724060  0.5626009069808  0.5993164994529 1.0
C      1  0.6326208415807  0.6490295464085  0.4007105394465 1.0
C      1  0.5404201357499  0.6952979193536  0.5993187935546 1.0
C      1  0.4373991076311  0.6892791385284  0.4006836414209 1.0
C      1  0.3509704902430  0.6326208300352  0.5992895906611 1.0
C      1  0.3885565898654  0.5230337603205  0.3469428443747 1.0
C      1  0.3919237979487  0.4643007685441  0.6530565059313 1.0
C      1  0.4242290486554  0.4149970271274  0.3469318107558 1.0
C      1  0.4769662275094  0.3885565762531  0.6530571680735 1.0
C      1  0.5356992544922  0.3919238068263  0.3469434466915 1.0
C      1  0.5850029084803  0.4242290206169  0.6530681367832 1.0
C      1  0.6114434574885  0.4769663101785  0.3469427929584 1.0
C      1  0.6080761970623  0.5356992081561  0.6530565144511 1.0
C      1  0.5757709552665  0.5850029277691  0.3469318559388 1.0
C      1  0.5230336768344  0.6114434435423  0.6530571939705 1.0
C      1  0.4643008125659  0.6080762051959  0.3469435342308 1.0
C      1  0.4149970061858  0.5757709252178  0.6530681988999 1.0
C      1  0.3582307582268  0.6882025478941  0.4531429229941 1.0
C      1  0.2828898383300  0.5921994450049  0.5468135359062 1.0
C      1  0.2660850558275  0.4712844753734  0.4531543475864 1.0
C      1  0.3117974211655  0.3582307905539  0.5468570371740 1.0
C      1  0.4078005228950  0.2828898425458  0.4531864107511 1.0
C      1  0.5287155790489  0.2660851201316  0.5468455354046 1.0
C      1  0.6417692222143  0.3117974998658  0.4531428262459 1.0
C      1  0.7171101713108  0.4078004476438  0.5468135385799 1.0
C      1  0.7339149478559  0.5287155859287  0.4531543588311 1.0
C      1  0.6882024692537  0.6417692528218  0.5468572146100 1.0
C      1  0.5921995191761  0.7171101757832  0.4531865133303 1.0
C      1  0.4712844670571  0.7339150130469  0.5468457589075 1.0
C      1  0.2952894308680  0.3833689721820  0.4532020672057 1.0
C      1  0.3808949233646  0.2965104216655  0.5468863166236 1.0
C      1  0.4986014590871  0.2643639596297  0.4532153424329 1.0
C      1  0.6166308883545  0.2952894319988  0.5467978124750 1.0
C      1  0.7034896031867  0.3808949702895  0.4531135473853 1.0
C      1  0.7356359039571  0.4986013526924  0.5467845355817 1.0
C      1  0.7047105679419  0.6166309281424  0.4532021527586 1.0
C      1  0.6191051482427  0.7034895131463  0.5468865023293 1.0
C      1  0.5013986564248  0.7356359164936  0.4532155484674 1.0
C      1  0.3833689318721  0.7047105679304  0.5467979678118 1.0
C      1  0.2965105109947  0.6191051936245  0.4531136340324 1.0
C      1  0.2643639461775  0.5013985517734  0.5467845721386 1.0
C      1  0.4068943713135  0.5191503799849  0.2453203934552 1.0
C      1  0.4097148801397  0.4700060107978  0.7546888117950 1.0
C      1  0.4368971191123  0.4289549006757  0.2453101684531 1.0
C      1  0.4808496234985  0.4068942801033  0.7546796425142 1.0
C      1  0.5299939540131  0.4097149582191  0.2453111897334 1.0
C      1  0.5710451160694  0.4368970713264  0.7546897205195 1.0
C      1  0.5931056954134  0.4808496899395  0.2453203073318 1.0
C      1  0.5902850515296  0.5299938689142  0.7546887156945 1.0
C      1  0.5631028999205  0.5710451794103  0.2453102434237 1.0
C      1  0.5191503126966  0.5931056039590  0.7546796558166 1.0
C      1  0.4700060953051  0.5902851292516  0.2453112828081 1.0
C      1  0.4289548374537  0.5631028514813  0.7546898683760 1.0
END
