TITL C-32399-6830-62 -7.679 3375.00 -1333.70720013 0 0 165 (C1) n - 1
REM
REM Run started: at 2020.12.23 20:00:23 in /gpfs/home/chem/mssmkc/CARBON/AIRSS/Generating-Clusters/Str-Search/Higher-Symm/C100-200
REM VASP from code version vasp.5.4.4.18Apr17-6-g9f103f2a35 (build Oct 11 2019 16:45:47) gamma-only
REM
REM
REM
REM
REM ./C.cell (533062f00bc710175b3da973d35f2034)
REM AIRSS Version 0.9.1 bugfix July 2018 build 013d7b7c2542+ Fri, 06 Jul 2018 19:26:36 +0100
REM compiler GCC version 6.3.0
REM options -cpp -iprefix /gpfs/warwick/csc/orac/software/Core/GCCcore/6.3.0/bin/../lib/gcc/x86_64-pc-linux-gnu/6.3.0/ -mtune=generic -march=x86-64 -g -O0
REM seed -188058063 2087860753 -1195961496 1309904712 2144173463 435387574 1029894164 -942913431 958306426 -1453305062 391491400 -1781452276
REM
REM C.POTCAR (d86ddea03c3ceb6dc662c8ad6801f873)
REM 
CELL 1.54180   15.00000   15.00000   15.00000   90.00000   90.00000   90.00000
LATT -1
SFAC C  
C      1  0.6200605518398  0.8455175232101  0.5008194739590 1.0
C      1  0.5859190054426  0.7173156854607  0.7881527969479 1.0
C      1  0.6094870567392  0.4183617683377  0.8287547102861 1.0
C      1  0.6292505059792  0.1806138590138  0.6331336027915 1.0
C      1  0.6273855106332  0.1618416156217  0.3125083275714 1.0
C      1  0.6226568192848  0.4327996142314  0.1569477733553 1.0
C      1  0.6067718490421  0.7317803310704  0.2202136887178 1.0
C      1  0.8500024518290  0.3379906625177  0.5495542133716 1.0
C      1  0.7557435515942  0.3847323937857  0.4108716450222 1.0
C      1  0.7276309193442  0.4615674510567  0.3582228440065 1.0
C      1  0.7558355679364  0.5794621447817  0.4526259506664 1.0
C      1  0.7438159236808  0.6172915990556  0.5415982982909 1.0
C      1  0.7402828896401  0.5530909088727  0.6259693164572 1.0
C      1  0.7462177611631  0.4523850491987  0.6270073875310 1.0
C      1  0.1506570037917  0.5794994072666  0.3770650286059 1.0
C      1  0.1786156801743  0.6261047707426  0.4545521859010 1.0
C      1  0.2042470318507  0.5504274497142  0.5800617471944 1.0
C      1  0.1952605777194  0.4529866781237  0.5818202760514 1.0
C      1  0.1956388976719  0.3724585886619  0.5166161223929 1.0
C      1  0.1813182409979  0.3929554120726  0.4008798379081 1.0
C      1  0.1514742163171  0.4838002523514  0.3615965725096 1.0
C      1  0.0987752382469  0.4531594358049  0.5857110323660 1.0
C      1  0.0936075930009  0.3838029492368  0.5211475021743 1.0
C      1  0.0770570950174  0.3874670621023  0.4281845438268 1.0
C      1  0.0588894538403  0.4711176045319  0.3849280625644 1.0
C      1  0.0560430686827  0.5644370556347  0.4109125247950 1.0
C      1  0.0870107334182  0.6025635282288  0.4935477650914 1.0
C      1  0.1069188120859  0.5522854318111  0.5703080577226 1.0
C      1  0.6565588418517  0.2876017110880  0.2009197300572 1.0
C      1  0.6276312444818  0.5987842078150  0.1430292304322 1.0
C      1  0.6474761525894  0.8299156046286  0.3512831678024 1.0
C      1  0.5864894081109  0.8047493197466  0.6591951438616 1.0
C      1  0.6309004678758  0.5682018143109  0.8524170436062 1.0
C      1  0.6502960253419  0.2740626980354  0.7496697497456 1.0
C      1  0.6223194715467  0.1325740434306  0.4695794672359 1.0
C      1  0.5893866224770  0.2344161636768  0.2513332240864 1.0
C      1  0.5709448935957  0.5197855891616  0.1628686740388 1.0
C      1  0.5710783972755  0.7849865650970  0.2997492977493 1.0
C      1  0.5595652262207  0.8172874918180  0.5697990643360 1.0
C      1  0.5580281575900  0.6288388945494  0.8265981319501 1.0
C      1  0.5777470588593  0.3324163965814  0.7816805650704 1.0
C      1  0.5794889823231  0.1519435884558  0.5556637518402 1.0
C      1  0.4407356416426  0.2269549968848  0.4893366290302 1.0
C      1  0.4562118978017  0.3083380297193  0.3124755491788 1.0
C      1  0.4527176576928  0.5883042945700  0.2681461670149 1.0
C      1  0.4636146991116  0.7364914522513  0.4343933388004 1.0
C      1  0.4364563402709  0.7133179483555  0.5936178923313 1.0
C      1  0.4260324990181  0.5639082514708  0.7527319398576 1.0
C      1  0.4391128674710  0.3623224138428  0.7038340259946 1.0
C      1  0.2406248419413  0.3431287998121  0.3374040888613 1.0
C      1  0.3194605843453  0.5608297563585  0.2012646968316 1.0
C      1  0.3219262343570  0.7826291879339  0.3603317035338 1.0
C      1  0.2992413791196  0.7851826105175  0.6306963696557 1.0
C      1  0.3018691258702  0.5843320644435  0.8383082150651 1.0
C      1  0.3168117579810  0.3125216556968  0.7960662972685 1.0
C      1  0.2449594625901  0.2871277520623  0.5383111250762 1.0
C      1  0.5862563581705  0.8682371284361  0.4121100978523 1.0
C      1  0.5306251051523  0.7715616764608  0.7338393697885 1.0
C      1  0.5707971866097  0.4954261080582  0.8732919284645 1.0
C      1  0.5906313010507  0.2059883199726  0.7188476692509 1.0
C      1  0.5721926897869  0.1252752772115  0.3859670007300 1.0
C      1  0.5926582824960  0.3415019899490  0.1536997325942 1.0
C      1  0.5649914245647  0.6709800215411  0.1530676706418 1.0
C      1  0.7336582861687  0.6388819929249  0.7552261306646 1.0
C      1  0.7320643909052  0.4014008972541  0.7124651915654 1.0
C      1  0.7580376574087  0.2166075980953  0.5172401860822 1.0
C      1  0.7622545591378  0.2719155829557  0.3199318788852 1.0
C      1  0.7458137578005  0.5243685599804  0.2189672769722 1.0
C      1  0.7420257239882  0.7073260183024  0.3290173186583 1.0
C      1  0.7357088787462  0.7696314807389  0.5911244222362 1.0
C      1  0.3695780699202  0.4592572357925  0.8617799090516 1.0
C      1  0.3455375067254  0.2350464684184  0.6803361247824 1.0
C      1  0.3152093010436  0.1840108207906  0.4050495038326 1.0
C      1  0.3594870163939  0.3826755155256  0.2123824541892 1.0
C      1  0.3516450946546  0.7017739935107  0.2084045616141 1.0
C      1  0.3566019716232  0.8543889643411  0.4790606766031 1.0
C      1  0.3546874213896  0.7440692133024  0.7755347422808 1.0
C      1  0.5365296859051  0.3638829478256  0.6883301714127 1.0
C      1  0.5080613295051  0.2165966578408  0.5526237674095 1.0
C      1  0.5502098433009  0.2867188957548  0.3280388759192 1.0
C      1  0.5257334729198  0.5305855285231  0.2524848491962 1.0
C      1  0.5417796956439  0.7160551117202  0.3700650278533 1.0
C      1  0.5066294624273  0.7392886702718  0.5313445535418 1.0
C      1  0.5159962097240  0.5829249279566  0.7412612813167 1.0
C      1  0.4026649108179  0.5509408592632  0.8496663457901 1.0
C      1  0.4123012931850  0.2780552317202  0.7500047471308 1.0
C      1  0.4100760151587  0.1623707782647  0.4208235885846 1.0
C      1  0.4369254038857  0.3233476104149  0.2231678926647 1.0
C      1  0.4065192233445  0.6190794435783  0.1856290050015 1.0
C      1  0.4156658266287  0.8187466196444  0.3986054550601 1.0
C      1  0.3953745455931  0.7826285504858  0.6439626776733 1.0
C      1  0.7067525134816  0.6089446785456  0.1890073085868 1.0
C      1  0.7182632187681  0.7809531092553  0.3907373621554 1.0
C      1  0.6789664944475  0.7786311319220  0.6707158750248 1.0
C      1  0.7031321929401  0.5529443767330  0.7999141173030 1.0
C      1  0.7184478240172  0.3052897109248  0.6964173756101 1.0
C      1  0.7072091680004  0.1707123783851  0.4493112637816 1.0
C      1  0.7268580049826  0.3309080696275  0.2398058712148 1.0
C      1  0.8133428657911  0.3083814426297  0.3918206804191 1.0
C      1  0.7751948879191  0.5302360075960  0.3049931571992 1.0
C      1  0.7637259984645  0.6138535084927  0.3590456241407 1.0
C      1  0.7852196205568  0.6870244711416  0.6002102209928 1.0
C      1  0.7848858449132  0.6292851002522  0.6748954970729 1.0
C      1  0.8203102587602  0.4086975524906  0.5800352894980 1.0
C      1  0.8257585755785  0.2724994268297  0.4843639224001 1.0
C      1  0.5553837764676  0.5496379231383  0.6595303004830 1.0
C      1  0.5625243646273  0.4481605932345  0.6416999432467 1.0
C      1  0.5418577016615  0.3083250644762  0.5861399539384 1.0
C      1  0.5861420015155  0.3242465762013  0.4027084582228 1.0
C      1  0.5477118535280  0.4908028111868  0.3395409400628 1.0
C      1  0.6017598856594  0.6637763651739  0.4130208758633 1.0
C      1  0.5689363319434  0.6565798787371  0.5044501919869 1.0
C      1  0.4820252605661  0.3733636540802  0.5356423737051 1.0
C      1  0.5154715680892  0.3748946499376  0.4449762854162 1.0
C      1  0.4768919129962  0.4421007528006  0.3898654802909 1.0
C      1  0.4848140843271  0.5354950724930  0.4074096041504 1.0
C      1  0.4943640787977  0.5881725725392  0.4914921228688 1.0
C      1  0.4736129427768  0.5537583370790  0.5811412053765 1.0
C      1  0.4667459226526  0.4541743995813  0.5927642981271 1.0
C      1  0.4273934414080  0.5941303496201  0.3592358374244 1.0
C      1  0.4126608861835  0.6461921888049  0.4457737114628 1.0
C      1  0.3963328926107  0.6174835726027  0.6022638435768 1.0
C      1  0.3617391619446  0.5991743289065  0.6936160167174 1.0
C      1  0.3954489504571  0.4226538801938  0.6531886666809 1.0
C      1  0.4212161053453  0.3205256624396  0.4766234346224 1.0
C      1  0.4213012985287  0.3602761117380  0.3873116223562 1.0
C      1  0.6470258757813  0.4277397223702  0.5826018066378 1.0
C      1  0.6425091912654  0.3273359364286  0.5586170888941 1.0
C      1  0.6642134024560  0.3542098301504  0.4559303511554 1.0
C      1  0.6358360318490  0.4983963578209  0.3861923137770 1.0
C      1  0.6677726572864  0.5940339132606  0.3952392976672 1.0
C      1  0.6437089518736  0.6307810250848  0.5585859442180 1.0
C      1  0.6408805205524  0.5816659581288  0.6304910266018 1.0
C      1  0.7088814636657  0.4331259368464  0.1974921038717 1.0
C      1  0.6944554800345  0.6951697465103  0.2415365626802 1.0
C      1  0.7050021322959  0.8013405957379  0.4992175063387 1.0
C      1  0.6771127232256  0.7165155522220  0.7500870716359 1.0
C      1  0.6930343508782  0.4517735715322  0.7839098519880 1.0
C      1  0.7029068235207  0.2492971325893  0.6055657358959 1.0
C      1  0.7109110689128  0.1913809495016  0.3499970770581 1.0
C      1  0.2703367605212  0.2820698323352  0.7201493089330 1.0
C      1  0.2619647731294  0.2354969900282  0.4635666315531 1.0
C      1  0.2839640097627  0.3891254247070  0.2662197566739 1.0
C      1  0.2805789696523  0.6465628560133  0.2365023389831 1.0
C      1  0.2807443580763  0.8100654247627  0.4447628507873 1.0
C      1  0.2767416393282  0.7438556661286  0.7194476061320 1.0
C      1  0.2775408370376  0.4921003290166  0.8257692969540 1.0
C      1  0.2781083167067  0.2669111873304  0.6259507736776 1.0
C      1  0.2655441274308  0.2581534785373  0.3720824945238 1.0
C      1  0.3141538139430  0.4680084848981  0.2174237258279 1.0
C      1  0.3089496170428  0.7238338602432  0.2907004078605 1.0
C      1  0.2919717203225  0.8101002966915  0.5400681711496 1.0
C      1  0.3062100309678  0.6533951535399  0.7566865256823 1.0
C      1  0.3091157380114  0.4018547797906  0.8283949619629 1.0
C      1  0.5055647406224  0.8568075349619  0.3587412752405 1.0
C      1  0.4352194752204  0.7780839734765  0.7311379213457 1.0
C      1  0.4977044441142  0.5627050347072  0.8826811898641 1.0
C      1  0.5126600677797  0.2469963400639  0.7715983318641 1.0
C      1  0.4806030750802  0.1217081229326  0.3838847646698 1.0
C      1  0.5184945915558  0.2910241246339  0.1793446019288 1.0
C      1  0.4877448437956  0.6226599378494  0.1277718745641 1.0
C      1  0.2513722201913  0.6069501746260  0.5152475784482 1.0
C      1  0.7514153591771  0.4783981405796  0.4569605222210 1.0
C      1  0.6549887987308  0.4537688998046  0.4809775099121 1.0
C      1  0.3420659594015  0.6247915827287  0.5160904551565 1.0
END
