TITL C-32232-9915-40 -8.44 3375.00 -1488.38856185 0 0 180 (C1) n - 1
REM
REM Run started: at 2020.12.26 23:47:50 in /gpfs/home/chem/mssmkc/CARBON/AIRSS/Generating-Clusters/Str-Search/Higher-Symm/Only-C180
REM VASP from code version vasp.5.4.4.18Apr17-6-g9f103f2a35 (build Oct 11 2019 16:45:47) gamma-only
REM
REM
REM
REM
REM ./C.cell (73b75853f6e4503fb4b57bac71549d7d)
REM AIRSS Version 0.9.1 bugfix July 2018 build 013d7b7c2542+ Fri, 06 Jul 2018 19:26:36 +0100
REM compiler GCC version 6.3.0
REM options -cpp -iprefix /gpfs/warwick/csc/orac/software/Core/GCCcore/6.3.0/bin/../lib/gcc/x86_64-pc-linux-gnu/6.3.0/ -mtune=generic -march=x86-64 -g -O0
REM seed -2071878914 -1466548809 1048351822 -1847670396 340266897 422634853 1765928772 1556633790 -933520460 -1651263985 1886265321 -23033201
REM
REM C.POTCAR (d86ddea03c3ceb6dc662c8ad6801f873)
REM 
CELL 1.54180   15.00000   15.00000   15.00000   90.00000   90.00000   90.00000
LATT -1
SFAC C  
C      1  0.8515629081419  0.5059306305798  0.6389544835582 1.0
C      1  0.8716292366055  0.3702165543240  0.4482946811187 1.0
C      1  0.8419820220277  0.6138206592455  0.4190349640378 1.0
C      1  0.2609389951397  0.3712037390774  0.7572575927807 1.0
C      1  0.2786535563758  0.3739406363083  0.2981790977081 1.0
C      1  0.2799605854757  0.7642966343719  0.4816021819671 1.0
C      1  0.5937377370825  0.3718137262979  0.6106519711711 1.0
C      1  0.5850328124914  0.4125074097845  0.3621896587691 1.0
C      1  0.5846316679603  0.6627202855085  0.5393134343917 1.0
C      1  0.2750314866788  0.6047943391267  0.3028218028226 1.0
C      1  0.2649521361632  0.6346174873381  0.6846182960192 1.0
C      1  0.2342983244777  0.3131486572668  0.5207299235742 1.0
C      1  0.1657253730735  0.5076792153595  0.7604888672135 1.0
C      1  0.2327081285706  0.2508367721824  0.4407697990793 1.0
C      1  0.1809010780621  0.6958896389831  0.3520508705154 1.0
C      1  0.7007212690714  0.6099469389576  0.7428206530127 1.0
C      1  0.7195618893283  0.1351014985404  0.4598856582941 1.0
C      1  0.7403393106260  0.7031105375038  0.3002281884869 1.0
C      1  0.5346460054198  0.4972056355528  0.1059737054474 1.0
C      1  0.5532853774445  0.8621496265976  0.5463784090814 1.0
C      1  0.5604944600248  0.1659793969988  0.7811076172968 1.0
C      1  0.6574161353520  0.6167242877614  0.5762828606032 1.0
C      1  0.6634041582693  0.3580109867099  0.5551536028746 1.0
C      1  0.6477894728340  0.4844644003117  0.3923677477697 1.0
C      1  0.3945289282338  0.8301125656821  0.6051366486377 1.0
C      1  0.3799289223716  0.2539030581976  0.7331537236223 1.0
C      1  0.3817770629837  0.4487707752082  0.1677269324826 1.0
C      1  0.7496429852053  0.6209581384756  0.2470038731750 1.0
C      1  0.7470283587180  0.6907208679035  0.7195449373405 1.0
C      1  0.7389864289725  0.2075683133819  0.5314613587512 1.0
C      1  0.6241592038116  0.2568419587066  0.4257950289460 1.0
C      1  0.5697587677224  0.6397030305227  0.3696041641865 1.0
C      1  0.5848521014366  0.5290643602881  0.7034725981996 1.0
C      1  0.3712309609489  0.8011102948521  0.5093585933806 1.0
C      1  0.3473343289853  0.3302650033049  0.7775368431960 1.0
C      1  0.3694252403694  0.3840489626760  0.2508504745343 1.0
C      1  0.3367838632549  0.6730626528505  0.2708831015433 1.0
C      1  0.3284524419165  0.5852232339953  0.7401657103119 1.0
C      1  0.3263530444408  0.2720624449828  0.4847155619925 1.0
C      1  0.7247016297066  0.4377526496441  0.5493664377773 1.0
C      1  0.7257422781995  0.4488705830107  0.4468680448517 1.0
C      1  0.7272140310178  0.6027976792861  0.5138855585894 1.0
C      1  0.4062860551958  0.3869512762965  0.8322631615544 1.0
C      1  0.4181101080631  0.2924747156004  0.2462146285170 1.0
C      1  0.4205989623069  0.8457014385411  0.4352793322706 1.0
C      1  0.6076706209401  0.4481736859368  0.1456400705386 1.0
C      1  0.6472454985505  0.8411896424566  0.5474182534221 1.0
C      1  0.6408509763417  0.1776216056204  0.7581254168038 1.0
C      1  0.2427209277962  0.2821308172163  0.6198888135135 1.0
C      1  0.2732686637099  0.5281758300891  0.2513087917568 1.0
C      1  0.2835934936673  0.7179229073991  0.6397359146758 1.0
C      1  0.2587465642374  0.7510357406144  0.3889074421124 1.0
C      1  0.2425632210883  0.4561385497718  0.7913860848155 1.0
C      1  0.2807009129016  0.3058067128857  0.3605783319813 1.0
C      1  0.7254136666326  0.3513337172754  0.4169610366937 1.0
C      1  0.6954193469408  0.6337858420145  0.4297646069410 1.0
C      1  0.7027458672351  0.4789321461765  0.6398369048436 1.0
C      1  0.3954352570344  0.4833062724411  0.8505106404096 1.0
C      1  0.4153302117819  0.2234401132570  0.3184675251447 1.0
C      1  0.4087222302414  0.8132001711725  0.3452573434802 1.0
C      1  0.1944574343249  0.5914530376751  0.6320017634818 1.0
C      1  0.1931070382666  0.4067589975021  0.5244984772532 1.0
C      1  0.2017654228166  0.5962144494556  0.3729807629164 1.0
C      1  0.8111944379249  0.3632729930353  0.3647608885896 1.0
C      1  0.7774808603831  0.6912874787770  0.3972773287612 1.0
C      1  0.7861556432227  0.4391455456150  0.6807096745491 1.0
C      1  0.5359538728045  0.7098853182834  0.8018086331354 1.0
C      1  0.5184657759931  0.1587961313951  0.5055766123086 1.0
C      1  0.5549785100969  0.7046832278671  0.1835809977792 1.0
C      1  0.5542596834511  0.2179787970939  0.2477315999231 1.0
C      1  0.5609190529415  0.8391667921640  0.3832478223932 1.0
C      1  0.5442355362771  0.4497749262771  0.8587008903463 1.0
C      1  0.2315484575277  0.1548065141834  0.4593282212726 1.0
C      1  0.1544408381108  0.7064788065220  0.2633530011182 1.0
C      1  0.1502459330060  0.5844985211608  0.8098041013410 1.0
C      1  0.5331129503441  0.5895709046176  0.1123944985320 1.0
C      1  0.5192650033874  0.8089048762816  0.7044048052390 1.0
C      1  0.5070356306910  0.2159004859122  0.6374470611640 1.0
C      1  0.6216659313131  0.4370690221193  0.6777645052083 1.0
C      1  0.6463636427097  0.3304446564705  0.3587298789829 1.0
C      1  0.6093687834503  0.6733833054396  0.4477731194292 1.0
C      1  0.4688413265820  0.3088422328072  0.4292939702348 1.0
C      1  0.4329531389013  0.6669713781963  0.4262462609559 1.0
C      1  0.4155559249408  0.5608730727341  0.6956522077393 1.0
C      1  0.4972617187665  0.1732515599526  0.3187643922950 1.0
C      1  0.5061385610298  0.7868041208485  0.3196418949198 1.0
C      1  0.4831737106470  0.5256240736583  0.8635239528433 1.0
C      1  0.8065967927662  0.6828115382909  0.6424853817748 1.0
C      1  0.8076538926125  0.2661482337242  0.5830997192745 1.0
C      1  0.7976622156317  0.5427206492205  0.2775250255871 1.0
C      1  0.4410623692599  0.1739116486673  0.5706936475233 1.0
C      1  0.4713083292371  0.6509730649170  0.1586060508580 1.0
C      1  0.4629295299293  0.7671266009332  0.7713794580716 1.0
C      1  0.5345161677771  0.6073801152859  0.8177023754295 1.0
C      1  0.5436048753805  0.1425735124807  0.4038251715129 1.0
C      1  0.5773861366705  0.7629714299464  0.2490576301081 1.0
C      1  0.2275083216975  0.4554314051344  0.2925782412544 1.0
C      1  0.2428472760841  0.7139295484146  0.5525596467740 1.0
C      1  0.2159911389420  0.3508162354168  0.6732796836365 1.0
C      1  0.5000617781893  0.6908882802842  0.5659993637599 1.0
C      1  0.5143966422536  0.3270938132937  0.6444642022916 1.0
C      1  0.5239424020779  0.4277430278908  0.2822365342519 1.0
C      1  0.4450946205429  0.3942780195731  0.6226492244177 1.0
C      1  0.4355390248589  0.4412283430828  0.3081590343944 1.0
C      1  0.3161373358541  0.5482325775093  0.4683957855458 1.0
C      1  0.3340462794792  0.7559035039155  0.3249207112359 1.0
C      1  0.3174688727402  0.5180497680453  0.8096325777850 1.0
C      1  0.3752007176552  0.2772597340374  0.3986508724874 1.0
C      1  0.4891900533273  0.6865247896682  0.3519294002841 1.0
C      1  0.5008694453931  0.5703812750945  0.7281081023996 1.0
C      1  0.5316122395980  0.2415536490546  0.4495597777921 1.0
C      1  0.2168071164839  0.5684640746111  0.4718766474001 1.0
C      1  0.1642874119611  0.5062579230926  0.6634651394066 1.0
C      1  0.1783995433336  0.4747250464434  0.4578687012740 1.0
C      1  0.6463747456268  0.1587106890735  0.4116366840233 1.0
C      1  0.6671158874976  0.7660073167024  0.2975953630831 1.0
C      1  0.6291393710099  0.5598303855734  0.7960743603740 1.0
C      1  0.8217271954543  0.4251751244192  0.5856263393885 1.0
C      1  0.8257870909165  0.4529536457176  0.4117694750833 1.0
C      1  0.8187473463090  0.5952052462189  0.5150334582358 1.0
C      1  0.3688460062739  0.2348445417348  0.5591285929742 1.0
C      1  0.3890718007771  0.6296059173952  0.1977309400635 1.0
C      1  0.3698332290094  0.7755206386162  0.7664015365703 1.0
C      1  0.4972526756857  0.3721125829126  0.8258916303737 1.0
C      1  0.5024536032460  0.2904547770475  0.2079382081257 1.0
C      1  0.5123856186097  0.8659258741133  0.4581247107162 1.0
C      1  0.6520592771529  0.8207296656641  0.3774402064622 1.0
C      1  0.6303371083383  0.4614624536614  0.8287248976607 1.0
C      1  0.6432583300674  0.2388316899252  0.2439803575645 1.0
C      1  0.6915936518840  0.2913341599235  0.4902349094555 1.0
C      1  0.6391489850170  0.5723241722621  0.3735175862524 1.0
C      1  0.6674074187707  0.5698029688846  0.6578838110239 1.0
C      1  0.4276758141566  0.4493848680055  0.4039932833726 1.0
C      1  0.3682038078791  0.4662395380634  0.4732078193569 1.0
C      1  0.3931038291073  0.4405077759181  0.5607750797160 1.0
C      1  0.6862315767401  0.5893944721992  0.1783274067933 1.0
C      1  0.6845358108443  0.7650915322463  0.7051709770909 1.0
C      1  0.6716235796623  0.1787437320464  0.6017803427097 1.0
C      1  0.5971919269796  0.7635028140020  0.7411717628147 1.0
C      1  0.5808481774566  0.1691826031870  0.5858843866828 1.0
C      1  0.6109708129615  0.6345538937276  0.1448674459346 1.0
C      1  0.7590154466507  0.4600149729704  0.2369983302001 1.0
C      1  0.7766456690662  0.7511438172571  0.5759900592389 1.0
C      1  0.7644600210659  0.2756175179571  0.6772995139915 1.0
C      1  0.3438655157639  0.7852961537308  0.6705041351920 1.0
C      1  0.3244102946420  0.2290881276725  0.6469931166462 1.0
C      1  0.3328480956920  0.5394900110348  0.1719751886723 1.0
C      1  0.6917959869547  0.3085643763606  0.2693892188459 1.0
C      1  0.6963391451580  0.8206567433359  0.4625649720249 1.0
C      1  0.6514320039253  0.3844744705600  0.7597312148819 1.0
C      1  0.4899804566266  0.2260101646199  0.7382756461948 1.0
C      1  0.4658749406494  0.4379907068800  0.1356973578811 1.0
C      1  0.4909052958106  0.8464579294320  0.6223073544011 1.0
C      1  0.4357284122593  0.7167954768983  0.5113262750811 1.0
C      1  0.5358549211024  0.3202836400960  0.7541032853615 1.0
C      1  0.5344961917651  0.3850255445635  0.1892280858831 1.0
C      1  0.1951638240859  0.6308848435774  0.5465323362310 1.0
C      1  0.1819813100626  0.4252758191658  0.6180952461731 1.0
C      1  0.1766887954873  0.4944346733781  0.3646967578545 1.0
C      1  0.4103679620451  0.4816251706746  0.6412497388830 1.0
C      1  0.5029577032576  0.3915852769294  0.4213879713057 1.0
C      1  0.3732597410519  0.6048883576642  0.4349928936282 1.0
C      1  0.3042733661024  0.7521947876946  0.8275716361957 1.0
C      1  0.3429331733697  0.1404461506513  0.5933794768895 1.0
C      1  0.2600646098167  0.5760389051835  0.1106408527953 1.0
C      1  0.2793241042350  0.1098940924908  0.5249666131270 1.0
C      1  0.2024105533555  0.6347519359289  0.1291499820458 1.0
C      1  0.2328666101587  0.7179166212699  0.8537427638026 1.0
C      1  0.1726507414199  0.6519400329114  0.8544908329284 1.0
C      1  0.2561736569300  0.0623766950235  0.4455678930547 1.0
C      1  0.1491604499062  0.6854883158417  0.1815737084624 1.0
C      1  0.7698762468937  0.7630548073081  0.4770597013120 1.0
C      1  0.7495881744218  0.3563870427918  0.7257146347336 1.0
C      1  0.7715863391492  0.3714180178136  0.2706565896347 1.0
C      1  0.6868867342417  0.4911167116580  0.1769633013040 1.0
C      1  0.7026924927845  0.8014580774299  0.6170834438651 1.0
C      1  0.7003973328062  0.2020221383699  0.6900758598662 1.0
C      1  0.8441868141749  0.5953903690191  0.6103052592534 1.0
C      1  0.8513590925383  0.3423129568347  0.5391674063351 1.0
C      1  0.8417810578359  0.5392682812855  0.3637040860908 1.0
END
