TITL C-32232-9915-42 -8.333 3375.00 -1496.07396056 0 0 180 (C4) n - 1
REM
REM Run started: at 2020.12.27 02:17:06 in /gpfs/home/chem/mssmkc/CARBON/AIRSS/Generating-Clusters/Str-Search/Higher-Symm/Only-C180
REM VASP from code version vasp.5.4.4.18Apr17-6-g9f103f2a35 (build Oct 11 2019 16:45:47) gamma-only
REM
REM
REM
REM
REM ./C.cell (73b75853f6e4503fb4b57bac71549d7d)
REM AIRSS Version 0.9.1 bugfix July 2018 build 013d7b7c2542+ Fri, 06 Jul 2018 19:26:36 +0100
REM compiler GCC version 6.3.0
REM options -cpp -iprefix /gpfs/warwick/csc/orac/software/Core/GCCcore/6.3.0/bin/../lib/gcc/x86_64-pc-linux-gnu/6.3.0/ -mtune=generic -march=x86-64 -g -O0
REM seed 2060844391 96108558 -1447454649 1625519421 2044755980 1295324458 1340908373 1250902669 -555651120 447919125 -72483965 -316725119
REM
REM C.POTCAR (d86ddea03c3ceb6dc662c8ad6801f873)
REM 
CELL 1.54180   15.00000   15.00000   15.00000   90.00000   90.00000   90.00000
LATT -1
SFAC C  
C      1  0.5716042777076  0.1736257560404  0.5156792869803 1.0
C      1  0.4843244969054  0.1736295575470  0.5716118138138 1.0
C      1  0.4283901567383  0.1736279186005  0.4843327820549 1.0
C      1  0.5156703202197  0.1736248771610  0.4284010672448 1.0
C      1  0.5736664694399  0.8589493580713  0.4977228143731 1.0
C      1  0.5022713366564  0.8589510288194  0.5736545023919 1.0
C      1  0.4263402230167  0.8589516841041  0.5022607670117 1.0
C      1  0.4977344287223  0.8589497643310  0.4263316741324 1.0
C      1  0.3446026453886  0.6966776270006  0.5207268153484 1.0
C      1  0.4792699776198  0.6966748934027  0.3445993542225 1.0
C      1  0.6554010296442  0.6966748707956  0.4792640071943 1.0
C      1  0.5207322249123  0.6966792821050  0.6553943679851 1.0
C      1  0.3245021273692  0.3159763349562  0.5017696474277 1.0
C      1  0.4982303472331  0.3159721516618  0.3245069336195 1.0
C      1  0.6754978952340  0.3159745669801  0.4982394924809 1.0
C      1  0.5017661618107  0.3159783025722  0.6755013361403 1.0
C      1  0.1633667862041  0.5620170615538  0.3989958622826 1.0
C      1  0.6010054517087  0.5620096079715  0.1633748295318 1.0
C      1  0.8366274276196  0.5620208699743  0.6009993675738 1.0
C      1  0.3989972696440  0.5620234370280  0.8366228972975 1.0
C      1  0.1822101732402  0.3642235515260  0.3676763666462 1.0
C      1  0.6323271337419  0.3642178139343  0.1822146988402 1.0
C      1  0.8177876937639  0.3642300836408  0.6323242045119 1.0
C      1  0.3676755820345  0.3642358101639  0.8177897294666 1.0
C      1  0.4189271689864  0.3781745001527  0.3022431287004 1.0
C      1  0.6977569909319  0.3781770641552  0.4189250477086 1.0
C      1  0.5810731780245  0.3781831333383  0.6977595627465 1.0
C      1  0.3022354877983  0.3781786565771  0.5810747977478 1.0
C      1  0.4751667024009  0.5989825921253  0.3556076849252 1.0
C      1  0.6443973465044  0.5989871242010  0.4751660569588 1.0
C      1  0.5248288515537  0.5989926054955  0.6443915505741 1.0
C      1  0.3556086491790  0.5989909042263  0.5248260598834 1.0
C      1  0.7825125596201  0.2738863617516  0.6173422791217 1.0
C      1  0.3826611682584  0.2738916186132  0.7825169471390 1.0
C      1  0.2174839590703  0.2738819110052  0.3826736562942 1.0
C      1  0.6173295464632  0.2738774512647  0.2174908078942 1.0
C      1  0.7482028048658  0.7031090667448  0.5284444337223 1.0
C      1  0.4715521151169  0.7031119065559  0.7481929940927 1.0
C      1  0.2518012787664  0.7031079431343  0.4715432391838 1.0
C      1  0.5284546199930  0.7030994697953  0.2517967136386 1.0
C      1  0.4258724967470  0.7352234891342  0.2641348828148 1.0
C      1  0.7358626017019  0.7352264882133  0.4258656847848 1.0
C      1  0.5741344359168  0.7352324104982  0.7358551310350 1.0
C      1  0.2641385522356  0.7352336504197  0.5741219408685 1.0
C      1  0.5238414348970  0.2536115952070  0.2491645486753 1.0
C      1  0.7508378008880  0.2536160354241  0.5238531970809 1.0
C      1  0.4761477996590  0.2536254112917  0.7508417944758 1.0
C      1  0.2491599347111  0.2536193199089  0.4761602599811 1.0
C      1  0.4327719517329  0.6126673409719  0.7613810462262 1.0
C      1  0.2386150943517  0.6126622315664  0.4327643635083 1.0
C      1  0.5672369057726  0.6126527731618  0.2386153673172 1.0
C      1  0.7613860501003  0.6126632486808  0.5672267401700 1.0
C      1  0.4876349189022  0.4021959743074  0.7242070888972 1.0
C      1  0.2757903892918  0.4021908679630  0.4876382827992 1.0
C      1  0.5123620137733  0.4021882515944  0.2757917013978 1.0
C      1  0.7242060926389  0.4021955735956  0.5123650054278 1.0
C      1  0.3564765695783  0.3341105454282  0.2355234828826 1.0
C      1  0.7644814514529  0.3341095387966  0.3564812590134 1.0
C      1  0.6435172590246  0.3341234049584  0.7644821026943 1.0
C      1  0.2355132402328  0.3341162287495  0.6435222201893 1.0
C      1  0.3286144240633  0.6954731889080  0.2585713121920 1.0
C      1  0.7414258833375  0.6954730661489  0.3286110820949 1.0
C      1  0.6713888160132  0.6954796461701  0.7414207387705 1.0
C      1  0.2585743853262  0.6954814119549  0.6713833554772 1.0
C      1  0.2479200538631  0.7721543241270  0.4014168708108 1.0
C      1  0.5985788214605  0.7721488437942  0.2479155546984 1.0
C      1  0.7520810949246  0.7721573420547  0.5985727140628 1.0
C      1  0.4014243520394  0.7721620211277  0.7520743716863 1.0
C      1  0.2628150349630  0.2168716377172  0.3238317380341 1.0
C      1  0.6761704984423  0.2168706316690  0.2628248065082 1.0
C      1  0.7371786384095  0.2168796017870  0.6761812531964 1.0
C      1  0.3238211732972  0.2168786210539  0.7371887920272 1.0
C      1  0.4341797374521  0.4622390652047  0.6740944791553 1.0
C      1  0.3259029102732  0.4622354083659  0.4341802984494 1.0
C      1  0.5658173592530  0.4622326690475  0.3259033714330 1.0
C      1  0.6741012819725  0.4622324931593  0.5658141877771 1.0
C      1  0.4380813705250  0.5615789357355  0.6748306517253 1.0
C      1  0.3251664247801  0.5615779054140  0.4380828209509 1.0
C      1  0.5619180109538  0.5615709179835  0.3251668142921 1.0
C      1  0.6748361244053  0.5615772867043  0.5619121630630 1.0
C      1  0.7801744638472  0.6099144604897  0.3013970429275 1.0
C      1  0.6986030515900  0.6099220338930  0.7801712199677 1.0
C      1  0.2198281801260  0.6099237133098  0.6985994772422 1.0
C      1  0.3013983496044  0.6099152109217  0.2198288427374 1.0
C      1  0.8132602463557  0.4048262459022  0.3076917579644 1.0
C      1  0.6923062951438  0.4048415301643  0.8132583633265 1.0
C      1  0.1867391066042  0.4048405614762  0.6923073815770 1.0
C      1  0.3076890253724  0.4048291639397  0.1867449924164 1.0
C      1  0.2731257869490  0.1684265535053  0.5168302520810 1.0
C      1  0.4831755839369  0.1684167395448  0.2731373946120 1.0
C      1  0.7268683677522  0.1684177396019  0.4831853167269 1.0
C      1  0.5168202915935  0.1684265787313  0.7268815119711 1.0
C      1  0.2911919365173  0.8337137085209  0.5802643607770 1.0
C      1  0.4197299668800  0.8337040055592  0.2911819554371 1.0
C      1  0.7088131004009  0.8337069804529  0.4197215712578 1.0
C      1  0.5802760194018  0.8337138069194  0.7088037248323 1.0
C      1  0.7671764621538  0.4481472235221  0.7771859686393 1.0
C      1  0.2228097160912  0.4481460106758  0.7671755395706 1.0
C      1  0.2328224738377  0.4481384561216  0.2228158626236 1.0
C      1  0.7771915895606  0.4481341860717  0.2328217778154 1.0
C      1  0.7691571794783  0.5463068924268  0.7584460498605 1.0
C      1  0.2415470395544  0.5463097668252  0.7691538125712 1.0
C      1  0.2308451095941  0.5463014992952  0.2415522253074 1.0
C      1  0.7584559075726  0.5462978880887  0.2308418100015 1.0
C      1  0.2824689729963  0.7597661339856  0.3109690919444 1.0
C      1  0.6890291292925  0.7597632633222  0.2824615969637 1.0
C      1  0.7175343123952  0.7597720628802  0.6890200386557 1.0
C      1  0.3109794021601  0.7597731300572  0.7175267892903 1.0
C      1  0.3311576732322  0.2450198862704  0.2587479366849 1.0
C      1  0.7412539564249  0.2450190927111  0.3311651069054 1.0
C      1  0.6688367672470  0.2450317004362  0.7412618212156 1.0
C      1  0.2587382619799  0.2450296561074  0.6688473845652 1.0
C      1  0.7035311875218  0.4268650735799  0.1734019404085 1.0
C      1  0.8266011554727  0.4268783722234  0.7035295331044 1.0
C      1  0.2964701437835  0.4268827062515  0.8266022876942 1.0
C      1  0.1734000792282  0.4268712192167  0.2964751296391 1.0
C      1  0.6850330792414  0.5256147057201  0.1704703152579 1.0
C      1  0.8295336638707  0.5256265377344  0.6850254220881 1.0
C      1  0.3149761450426  0.5256334006189  0.8295297648440 1.0
C      1  0.1704656984424  0.5256241059163  0.3149741270705 1.0
C      1  0.3915554275679  0.1740348067480  0.2895446809995 1.0
C      1  0.7104606970501  0.1740355033686  0.3915663677608 1.0
C      1  0.6084386875965  0.1740419108014  0.7104712930501 1.0
C      1  0.2895342689081  0.1740423438862  0.6084511004877 1.0
C      1  0.3349183988621  0.8418855670780  0.3262485757310 1.0
C      1  0.6737454916902  0.8418828893149  0.3349084292584 1.0
C      1  0.6650871031831  0.8418914849204  0.6737374476609 1.0
C      1  0.3262618604178  0.8418907555977  0.6650778230974 1.0
C      1  0.4025366326310  0.5480376789918  0.3681588935212 1.0
C      1  0.6318401054013  0.5480346809339  0.4025292711375 1.0
C      1  0.5974716555671  0.5480399429755  0.6318353561394 1.0
C      1  0.3681588360450  0.5480395006377  0.5974688472702 1.0
C      1  0.3854282713167  0.4514004386592  0.3650445350914 1.0
C      1  0.6349612914402  0.4513981423441  0.3854333149228 1.0
C      1  0.6145605762691  0.4514002005368  0.6349659996534 1.0
C      1  0.3650343927186  0.4514005729107  0.6145668964648 1.0
C      1  0.1462002189697  0.4977377594177  0.4705310659661 1.0
C      1  0.5294730084242  0.4977311907627  0.1462072582311 1.0
C      1  0.8537966499761  0.4977389998084  0.5294658533992 1.0
C      1  0.4705337593016  0.4977440532233  0.8537962295149 1.0
C      1  0.1813891622731  0.4084813612069  0.4534850959763 1.0
C      1  0.5465179819826  0.4084733127238  0.1813907259376 1.0
C      1  0.8186104098321  0.4084787667162  0.5465165732867 1.0
C      1  0.4534839644190  0.4084870808322  0.8186078124931 1.0
C      1  0.3295434743325  0.8747393549935  0.4998290180251 1.0
C      1  0.5001658183384  0.8747325045695  0.3295364600502 1.0
C      1  0.6704589440333  0.8747363632288  0.5001557106352 1.0
C      1  0.4998404907580  0.8747404049697  0.6704497934381 1.0
C      1  0.3414103305519  0.1393966332159  0.4525690484931 1.0
C      1  0.5474355289662  0.1393954495060  0.3414257885978 1.0
C      1  0.6585837550205  0.1393989130031  0.5474480605664 1.0
C      1  0.4525588363073  0.1394000363247  0.6585952517494 1.0
C      1  0.6721875928685  0.1501562739040  0.6400423696734 1.0
C      1  0.3599629767796  0.1501577281708  0.6721972796643 1.0
C      1  0.3278067748713  0.1501484883875  0.3599722490948 1.0
C      1  0.6400316165640  0.1501484994782  0.3278167226546 1.0
C      1  0.7072221427139  0.8564207868824  0.5846287237458 1.0
C      1  0.4153657859537  0.8564233831634  0.7072121076141 1.0
C      1  0.2927813961784  0.8564201598463  0.4153565337832 1.0
C      1  0.5846394926000  0.8564159618914  0.2927734993664 1.0
C      1  0.6416788287636  0.4709211839026  0.8558362627769 1.0
C      1  0.1441615356142  0.4709207604763  0.6416794827901 1.0
C      1  0.3583235831642  0.4709090959037  0.1441708765777 1.0
C      1  0.8558404748948  0.4709128031806  0.3583196629602 1.0
C      1  0.6412682405039  0.5632762762591  0.8410558926511 1.0
C      1  0.1589418156786  0.5632761113594  0.6412659190690 1.0
C      1  0.3587360658925  0.5632639247735  0.1589474605174 1.0
C      1  0.8410575578933  0.5632664113047  0.3587327249187 1.0
C      1  0.4941492160832  0.7495483064546  0.4267694416314 1.0
C      1  0.5732276828659  0.7495466488101  0.4941429476086 1.0
C      1  0.5058545812778  0.7495508053968  0.5732210662125 1.0
C      1  0.4267761023388  0.7495519375258  0.5058461094328 1.0
C      1  0.5078608723172  0.2822711803492  0.4232937123162 1.0
C      1  0.5767113473891  0.2822706566331  0.5078672322379 1.0
C      1  0.4921390144570  0.2822720941040  0.5767162532864 1.0
C      1  0.4232855266421  0.2822709033483  0.4921452345291 1.0
C      1  0.8620164703111  0.5183487589014  0.4388923149571 1.0
C      1  0.1379852665394  0.5183541111227  0.5611060171247 1.0
C      1  0.4388937386462  0.5183470310833  0.1379933418567 1.0
C      1  0.5611059383256  0.5183587931121  0.8620104282191 1.0
END
