TITL C-32539-8123-7 -3.508 3375.00 -590.89734115 0 0 73 (C1) n - 1
REM
REM Run started: at 2020.11.27 07:55:58 in /rds/project/t2_vol4/rds-t2-cs072/BORA/CARBON/AIRSS/Generating-Clusters/Str-Search/Higher-Symm/C10-100
REM VASP from code version vasp.5.4.4.18Apr17-6-g9f103f2a35 (build Oct 11 2019 16:45:47) gamma-only
REM
REM
REM
REM
REM ./C.cell (f39ce9773e2efe3fa5bbdf770a4156b8)
REM AIRSS Version 0.9.1 bugfix July 2018 build 013d7b7c2542+ Fri, 06 Jul 2018 19:26:36 +0100
REM compiler GCC version 4.8.5 20150623 (Red Hat 4.8.5-39)
REM options -cpp -mtune=generic -march=x86-64 -g -O0
REM seed -1045198550 -173680370 -303054675 -1192622868 997309781 524579145 -742638588 -900516512 -490850477 982359780 -1255037597 963459658
REM
REM C.POTCAR (d86ddea03c3ceb6dc662c8ad6801f873)
REM 
CELL 1.54180   15.00000   15.00000   15.00000   90.00000   90.00000   90.00000
LATT -1
SFAC C  
C      1  0.4871687296011  0.6409759069078  0.5570446634180 1.0
C      1  0.4943794638231  0.3607600517892  0.4422879230618 1.0
C      1  0.4224686151858  0.3361693212594  0.4951693139190 1.0
C      1  0.4178124539487  0.6675586901542  0.5018182315045 1.0
C      1  0.6347440622829  0.7433561731626  0.5622106355741 1.0
C      1  0.6378470979733  0.2601664685811  0.4226457227537 1.0
C      1  0.6934920576347  0.6662305943883  0.5464842550472 1.0
C      1  0.7046218489728  0.3294252532762  0.4452389817230 1.0
C      1  0.5633312955757  0.6299467224810  0.3021572306194 1.0
C      1  0.5779880597333  0.3754082978342  0.6843797336962 1.0
C      1  0.6994130000074  0.5900511675586  0.3855994425849 1.0
C      1  0.7329952723753  0.3769527812012  0.6075657558609 1.0
C      1  0.2867243490549  0.4309802580426  0.3413666561241 1.0
C      1  0.2906736178790  0.5734663101135  0.6577580278455 1.0
C      1  0.7159567522966  0.6569670971983  0.4570886006918 1.0
C      1  0.7316677106557  0.3157019088194  0.5330486180549 1.0
C      1  0.6096255823020  0.7768503012308  0.4732139742578 1.0
C      1  0.6048373939396  0.2209993897054  0.5075148393248 1.0
C      1  0.2591913013747  0.5497173257521  0.4941796612933 1.0
C      1  0.2608188661646  0.4527694296106  0.5060611034824 1.0
C      1  0.6621364837184  0.7249699511155  0.4118407742752 1.0
C      1  0.6600338386119  0.2622508884161  0.5736695949579 1.0
C      1  0.6944451396020  0.5268170817043  0.6472452747462 1.0
C      1  0.6829359057065  0.5006239597670  0.3662816920728 1.0
C      1  0.5194415917884  0.1982175433462  0.5376912916362 1.0
C      1  0.5241709256641  0.8014760953762  0.4430770861640 1.0
C      1  0.2814429296062  0.3953206615821  0.4331936091833 1.0
C      1  0.2804909380832  0.6077333573953  0.5659994527246 1.0
C      1  0.3406118756796  0.3646929176987  0.2949385775776 1.0
C      1  0.3392963325269  0.6450683028338  0.7024136052204 1.0
C      1  0.5635685854875  0.4266488938707  0.4659326910637 1.0
C      1  0.5562984365482  0.5725432674182  0.5411503402636 1.0
C      1  0.5259950502670  0.5189774682915  0.4579151971706 1.0
C      1  0.5278634397709  0.4800696432653  0.5428131621763 1.0
C      1  0.3497144799616  0.7172229262508  0.6409446579962 1.0
C      1  0.3565165847131  0.2922305078967  0.3545025872471 1.0
C      1  0.5909252459920  0.7304467424221  0.6474761387102 1.0
C      1  0.5955352901023  0.2849570030681  0.3406355565568 1.0
C      1  0.4148100902769  0.6886530447395  0.3938112093535 1.0
C      1  0.4222731708567  0.3156236736590  0.5996817357377 1.0
C      1  0.4526303944567  0.2201394716134  0.5831165407341 1.0
C      1  0.4507297985811  0.7819459424696  0.4088644507780 1.0
C      1  0.5982888000262  0.6336657660151  0.6771127476061 1.0
C      1  0.6067826578303  0.3832381432056  0.3250068721674 1.0
C      1  0.2781388079066  0.5224448960516  0.3310846168868 1.0
C      1  0.2872597786563  0.4815580627918  0.6683432989412 1.0
C      1  0.4725051564509  0.6482830625003  0.3173154902830 1.0
C      1  0.4857590141059  0.3589561955193  0.6716621579517 1.0
C      1  0.6444879286397  0.5944348369740  0.5919742857005 1.0
C      1  0.6571215828258  0.4129087164026  0.4127578024120 1.0
C      1  0.6324408605924  0.5443481158026  0.7195205449703 1.0
C      1  0.6243675378317  0.4774217841809  0.2917592656622 1.0
C      1  0.2683893064002  0.5815527650043  0.4070832884607 1.0
C      1  0.2750139373445  0.4221328054143  0.5927746447820 1.0
C      1  0.6408739030256  0.6587256881121  0.3449802089665 1.0
C      1  0.6488543089373  0.3317975654316  0.6405392200740 1.0
C      1  0.3389893930631  0.3172525709738  0.4440575215165 1.0
C      1  0.3336405468858  0.6886787200080  0.5522709470060 1.0
C      1  0.3345697905214  0.5909536540946  0.2892678551748 1.0
C      1  0.3460745671975  0.4128901116944  0.7077545665033 1.0
C      1  0.4259971914486  0.3273446067963  0.3006558981982 1.0
C      1  0.4216416003391  0.6885412655896  0.6954769974857 1.0
C      1  0.3328232752430  0.3537176245994  0.6332449631705 1.0
C      1  0.3236962423407  0.6507195817948  0.3645276799869 1.0
C      1  0.5127894743691  0.3381884768285  0.3452518169037 1.0
C      1  0.5080995056716  0.6744936971483  0.6521188192794 1.0
C      1  0.4902750870990  0.4819463363654  0.7738105011299 1.0
C      1  0.4778053972587  0.5205088531606  0.2202557605664 1.0
C      1  0.4227629216979  0.5866045351198  0.2598942199993 1.0
C      1  0.4363919000898  0.4180062387197  0.7315637740245 1.0
C      1  0.5769163469746  0.4688499342064  0.7385892076842 1.0
C      1  0.5633226597118  0.5398140135632  0.2563745885046 1.0
C      1  0.7489881607329  0.4629658826644  0.6217330408180 1.0
END
