TITL C-32264-8073-4 -7.988 3375.00 -1414.33708518 0 0 174 (C1) n - 1
REM
REM Run started: at 2020.11.26 12:31:31 in /rds/project/t2_vol4/rds-t2-cs072/BORA/CARBON/AIRSS/Generating-Clusters/Str-Search/Higher-Symm
REM VASP from code version vasp.5.4.4.18Apr17-6-g9f103f2a35 (build Oct 11 2019 16:45:47) gamma-only
REM
REM
REM
REM
REM ./C.cell (e5ae0387ce4d49c7c0135a1433873289)
REM AIRSS Version 0.9.1 bugfix July 2018 build 013d7b7c2542+ Fri, 06 Jul 2018 19:26:36 +0100
REM compiler GCC version 4.8.5 20150623 (Red Hat 4.8.5-39)
REM options -cpp -mtune=generic -march=x86-64 -g -O0
REM seed -1244741469 -644892954 1062485912 -1525020265 1457284741 102283724 -1167867360 -1583659558 -1633903153 -1666571588 759614104 -1379249736
REM
REM C.POTCAR (d86ddea03c3ceb6dc662c8ad6801f873)
REM 
CELL 1.54180   15.00000   15.00000   15.00000   90.00000   90.00000   90.00000
LATT -1
SFAC C  
C      1  0.4862394399220  0.1548133376509  0.5262790128375 1.0
C      1  0.7892550954495  0.6580386768492  0.5160143679031 1.0
C      1  0.2056406535933  0.6786882455365  0.5298884625249 1.0
C      1  0.8011193486204  0.6782693583744  0.3068502374563 1.0
C      1  0.2103023392276  0.6703911067189  0.3130071051276 1.0
C      1  0.5073776921575  0.1709295977257  0.3140362015280 1.0
C      1  0.5955693238719  0.7198104226418  0.5736325572026 1.0
C      1  0.2889835393144  0.4738808588142  0.5346514743263 1.0
C      1  0.5974520191904  0.3073712601429  0.6305677150135 1.0
C      1  0.4021287235132  0.5932430777358  0.5771979551337 1.0
C      1  0.4570407722968  0.3898532423072  0.5925834990850 1.0
C      1  0.5910186689500  0.5568131413946  0.5723415566799 1.0
C      1  0.3787194752562  0.2689434615367  0.7826190677285 1.0
C      1  0.7724993623239  0.4776924762083  0.7506925009596 1.0
C      1  0.3589687495870  0.7735716764271  0.7633683086562 1.0
C      1  0.6061497625102  0.7507809439336  0.2174651634216 1.0
C      1  0.2355618999061  0.4607017126418  0.1993849148336 1.0
C      1  0.6689173230960  0.2878214320416  0.2001245119871 1.0
C      1  0.6227145024080  0.5910870686664  0.4952845273643 1.0
C      1  0.3731123354436  0.5448310489430  0.4228095837879 1.0
C      1  0.5470164571934  0.3669242120108  0.4582812311434 1.0
C      1  0.7439741685207  0.2792159960474  0.3342944920287 1.0
C      1  0.5692386709579  0.7896511190130  0.3673989322075 1.0
C      1  0.1926766339841  0.3946427575390  0.3384472874031 1.0
C      1  0.8307985222741  0.5242399704014  0.2969037949711 1.0
C      1  0.3233304784116  0.7719068763243  0.3232892543789 1.0
C      1  0.3586031693726  0.2056139292348  0.3033581296874 1.0
C      1  0.8232322584570  0.6004266914834  0.3522447454286 1.0
C      1  0.2524087157492  0.7335495721589  0.3709078018865 1.0
C      1  0.4271234134816  0.1723081090047  0.3608683616432 1.0
C      1  0.7373902844312  0.6571503892349  0.2341599693924 1.0
C      1  0.2551333325728  0.6365133577587  0.2366844182871 1.0
C      1  0.5212901787749  0.2398810164438  0.2455975079295 1.0
C      1  0.2076217763040  0.3322051756134  0.4803638659070 1.0
C      1  0.7855114365361  0.3303393696108  0.4704718648554 1.0
C      1  0.5031136532831  0.8433144203518  0.4977794669608 1.0
C      1  0.7013410390922  0.8168509433548  0.5456652206273 1.0
C      1  0.1359541094215  0.5143088219856  0.5339030900878 1.0
C      1  0.6607608578643  0.1880231879587  0.5358611921356 1.0
C      1  0.7542896797732  0.3147848906785  0.2409482317888 1.0
C      1  0.5406315709308  0.7971723013688  0.2727123729402 1.0
C      1  0.2144291084038  0.3733125407432  0.2426048603813 1.0
C      1  0.7466921928853  0.7972625405476  0.4132920471968 1.0
C      1  0.1292722618230  0.5622718187535  0.4087878122016 1.0
C      1  0.6329691699148  0.1424511990917  0.4115674272277 1.0
C      1  0.3015624841628  0.2030704123197  0.5654130300482 1.0
C      1  0.8867045765996  0.4690638883036  0.5332382905644 1.0
C      1  0.3158002386382  0.8369275607776  0.5879637511979 1.0
C      1  0.5515160853903  0.2465964500987  0.7704527891016 1.0
C      1  0.7075605221015  0.6435704036147  0.7366647347576 1.0
C      1  0.2139564857576  0.5601975098479  0.7328558562694 1.0
C      1  0.5545778162755  0.5292898456579  0.1200090990773 1.0
C      1  0.4596202486263  0.5400368525036  0.1250177780264 1.0
C      1  0.4978377637485  0.4516949807022  0.1197565236507 1.0
C      1  0.2957087944572  0.4915092124388  0.2801790086088 1.0
C      1  0.5945184851756  0.3131843111131  0.2785581752049 1.0
C      1  0.6454215128998  0.6721353344682  0.2824381352351 1.0
C      1  0.4571850917706  0.1709508470176  0.6221569892920 1.0
C      1  0.8071045927124  0.6133702653493  0.5968557704844 1.0
C      1  0.2359494226298  0.6887182839534  0.6252374950389 1.0
C      1  0.4041624738737  0.6115234782176  0.4838394386378 1.0
C      1  0.4648246790501  0.3563533373110  0.5078638728040 1.0
C      1  0.6795276193885  0.5605870988964  0.4267603251305 1.0
C      1  0.2701893288018  0.2982444089099  0.2445299537212 1.0
C      1  0.7880289224916  0.4025150511295  0.2404529018175 1.0
C      1  0.4495814866097  0.7907433799967  0.2754352223647 1.0
C      1  0.3806479632262  0.5704911661819  0.1634007028744 1.0
C      1  0.5080815785564  0.3658923567222  0.1550918520360 1.0
C      1  0.6243487401035  0.5785935320118  0.1567718892318 1.0
C      1  0.6048731230274  0.4745178988246  0.6306501788095 1.0
C      1  0.4634291346429  0.6557752872507  0.6288825890901 1.0
C      1  0.3814045180384  0.4299307979146  0.6493293051437 1.0
C      1  0.6832416821807  0.4194416274129  0.3834575075027 1.0
C      1  0.5341170224035  0.7027028417410  0.4129245234492 1.0
C      1  0.3355342634728  0.3558710128182  0.3933226053523 1.0
C      1  0.4149196349092  0.4644877435218  0.7367872033176 1.0
C      1  0.5814259774695  0.5223825426933  0.7240981475124 1.0
C      1  0.4809854763069  0.5300432708282  0.7519053383780 1.0
C      1  0.6641540232936  0.2684267889830  0.5792156545861 1.0
C      1  0.6339744171434  0.7991827360343  0.6099880173766 1.0
C      1  0.1935074003559  0.4621443408936  0.5919648575443 1.0
C      1  0.3714461848568  0.7370319527786  0.2450313273712 1.0
C      1  0.3664545882264  0.2655584806376  0.2231462032463 1.0
C      1  0.7799258704377  0.5021570944498  0.2133506501828 1.0
C      1  0.7933805400208  0.6359608135427  0.6890478812792 1.0
C      1  0.2532452154917  0.6419160384665  0.7119622472793 1.0
C      1  0.4985895825914  0.1758069110091  0.7117599545544 1.0
C      1  0.2465817701444  0.3801007764252  0.5645695603462 1.0
C      1  0.7049572915185  0.3481394867636  0.5336766638869 1.0
C      1  0.5284496031984  0.8012217292931  0.5853659919498 1.0
C      1  0.5801383467225  0.1453090446529  0.4981809179999 1.0
C      1  0.7656464808355  0.7525041972284  0.4992262017239 1.0
C      1  0.1508133526627  0.6047548222029  0.4985257381818 1.0
C      1  0.1997237350278  0.4150193368654  0.8422088117409 1.0
C      1  0.7294608768936  0.2352693869278  0.8451315740371 1.0
C      1  0.5848153975189  0.7424122998147  0.8276928597031 1.0
C      1  0.4996447293419  0.4109140475430  0.3897675421400 1.0
C      1  0.5313655150161  0.4955839277857  0.3620817559044 1.0
C      1  0.4592787140511  0.5584943985549  0.3721657062564 1.0
C      1  0.4566910460440  0.5856111850000  0.8300976824278 1.0
C      1  0.3888509105139  0.4291162348315  0.8171800084573 1.0
C      1  0.6252401765519  0.4734229780696  0.7932645587605 1.0
C      1  0.7733141004496  0.2470121614682  0.4213133649698 1.0
C      1  0.5827688941474  0.8543868833407  0.4402415736120 1.0
C      1  0.1490705197237  0.3863462003424  0.4254158789991 1.0
C      1  0.6403332922091  0.2547101519804  0.8151684311329 1.0
C      1  0.6378274286820  0.6871879667103  0.7832111206553 1.0
C      1  0.1893464351018  0.4781811286067  0.7751612895087 1.0
C      1  0.8273404292180  0.5144815298413  0.5933171322340 1.0
C      1  0.2791565488380  0.7683658082979  0.6330247478644 1.0
C      1  0.3665754416511  0.2034445900131  0.6329517444892 1.0
C      1  0.4130150380842  0.8302370910847  0.4513632743733 1.0
C      1  0.2770985047870  0.2781789788258  0.4251638357849 1.0
C      1  0.7857584137074  0.4162069791801  0.4137530073848 1.0
C      1  0.7085205937053  0.4222521321427  0.8093676029253 1.0
C      1  0.4247078624086  0.7561343119615  0.8305309096689 1.0
C      1  0.3558938076438  0.3396578223861  0.8497415743742 1.0
C      1  0.2774900325940  0.2472074745510  0.3282549243759 1.0
C      1  0.8271821267107  0.4341765962040  0.3234493546120 1.0
C      1  0.4005015252764  0.8163689466513  0.3582753796056 1.0
C      1  0.6593646685388  0.3281686880023  0.3550543120844 1.0
C      1  0.6219147045715  0.7048439261723  0.3743002663642 1.0
C      1  0.2817311156204  0.4339000343410  0.3603800964093 1.0
C      1  0.4167551640284  0.1726788123289  0.4572745738403 1.0
C      1  0.7815722329913  0.5833309333416  0.4429390646523 1.0
C      1  0.2557451719495  0.7433105183930  0.4672123844997 1.0
C      1  0.1161535552228  0.4736846080901  0.4508139050032 1.0
C      1  0.7133929159593  0.1794297418133  0.4534347213455 1.0
C      1  0.6757577208296  0.8536267112038  0.4604459085929 1.0
C      1  0.6048478518059  0.6851093483168  0.4800795291336 1.0
C      1  0.3005139027573  0.4932969927017  0.4389739632480 1.0
C      1  0.6397542030984  0.3601033669218  0.4550494743527 1.0
C      1  0.3087480914036  0.3562707995343  0.6469049425882 1.0
C      1  0.6992193544381  0.4279459337201  0.6065011132174 1.0
C      1  0.4524033233648  0.7492390794309  0.6320682270612 1.0
C      1  0.6008775955137  0.3612611499005  0.1903727684772 1.0
C      1  0.5846629754017  0.6549180846035  0.2037499694653 1.0
C      1  0.3351813341646  0.4866731395767  0.1921425979268 1.0
C      1  0.3181221857309  0.6826491288060  0.7701895884120 1.0
C      1  0.4574572753505  0.2139878339643  0.7839339779554 1.0
C      1  0.7800466822570  0.5740424429822  0.7558060343217 1.0
C      1  0.2140856345219  0.5456068546285  0.2523695042065 1.0
C      1  0.6177483929047  0.2120006523931  0.2389527190848 1.0
C      1  0.7040322475677  0.7532691166363  0.2385549313646 1.0
C      1  0.7649037991238  0.7654586410605  0.3255722161550 1.0
C      1  0.1596190782895  0.5894318376757  0.3273911727161 1.0
C      1  0.5985554655663  0.1508815152457  0.3239855768954 1.0
C      1  0.5111744487872  0.7821566875713  0.8406709826649 1.0
C      1  0.2635956044398  0.3652449395130  0.8593135486858 1.0
C      1  0.7007750334131  0.3233543904207  0.8192847322162 1.0
C      1  0.6127208780021  0.6187787628385  0.7131348501888 1.0
C      1  0.1884887916357  0.4867910861886  0.6836831463978 1.0
C      1  0.5578509553844  0.3222168044887  0.7068553131928 1.0
C      1  0.3278184780129  0.8084836156830  0.4985025784201 1.0
C      1  0.3310390835756  0.2122445129294  0.4807132679138 1.0
C      1  0.8182161842955  0.4925169366837  0.4730955501776 1.0
C      1  0.5699910792972  0.4958334992539  0.9365279551850 1.0
C      1  0.4978139969142  0.5521270351860  0.9114915843471 1.0
C      1  0.4816387613344  0.4609850600182  0.9420375494862 1.0
C      1  0.3433829763054  0.6545800022659  0.2042121904905 1.0
C      1  0.4526544908368  0.2929533579678  0.1952786393684 1.0
C      1  0.7196759091975  0.5686933357367  0.1855419936265 1.0
C      1  0.6325339109449  0.5020005742394  0.3709792549934 1.0
C      1  0.4636092218197  0.6431320795044  0.4140694392358 1.0
C      1  0.4177158158127  0.3707325600263  0.4236677670222 1.0
C      1  0.5627089841026  0.6383131476389  0.6255493238659 1.0
C      1  0.3579256914310  0.5095253306640  0.5927835689938 1.0
C      1  0.5447292227943  0.3912247060791  0.6350255632703 1.0
C      1  0.3411686246030  0.2737127531438  0.6959278067285 1.0
C      1  0.7741229039621  0.4581996837630  0.6571755546439 1.0
C      1  0.3708342272089  0.7961000793171  0.6662199836892 1.0
C      1  0.3921827189007  0.6560136380738  0.8240983816945 1.0
C      1  0.4195408782814  0.4064294271331  0.8989965238338 1.0
C      1  0.6427663097883  0.4696740959922  0.8789082108004 1.0
END
