TITL C-32361-6883-13 -7.894 3375.00 -1373.13128288 0 0 165 (C1) n - 1
REM
REM Run started: at 2020.12.22 07:43:20 in /gpfs/home/chem/mssmkc/CARBON/AIRSS/Generating-Clusters/Str-Search/Higher-Symm/C100-200
REM VASP from code version vasp.5.4.4.18Apr17-6-g9f103f2a35 (build Oct 11 2019 16:45:47) gamma-only
REM
REM
REM
REM
REM ./C.cell (533062f00bc710175b3da973d35f2034)
REM AIRSS Version 0.9.1 bugfix July 2018 build 013d7b7c2542+ Fri, 06 Jul 2018 19:26:36 +0100
REM compiler GCC version 6.3.0
REM options -cpp -iprefix /gpfs/warwick/csc/orac/software/Core/GCCcore/6.3.0/bin/../lib/gcc/x86_64-pc-linux-gnu/6.3.0/ -mtune=generic -march=x86-64 -g -O0
REM seed -1649083853 1749377634 1068620083 1902216402 1309904712 -1659362205 2125320197 -2023301242 197489799 -298284259 -1925459805 1198551634
REM
REM C.POTCAR (d86ddea03c3ceb6dc662c8ad6801f873)
REM 
CELL 1.54180   15.00000   15.00000   15.00000   90.00000   90.00000   90.00000
LATT -1
SFAC C  
C      1  0.6784616710246  0.1842789331479  0.3334086626847 1.0
C      1  0.6527414353342  0.7958277200881  0.6711054632179 1.0
C      1  0.3250340004720  0.1815510413554  0.6590020801244 1.0
C      1  0.3333313961684  0.8103102434127  0.3261334981065 1.0
C      1  0.6049772933490  0.6467974093793  0.4596938442036 1.0
C      1  0.5033734562499  0.3733614093340  0.6078618723240 1.0
C      1  0.4222450119452  0.6366655250483  0.5250128948254 1.0
C      1  0.4799784414575  0.3610521973956  0.4180603903285 1.0
C      1  0.8130668080254  0.5688297701665  0.6490231352802 1.0
C      1  0.3493273124729  0.4237414007860  0.8269778127735 1.0
C      1  0.1781629749284  0.5658669315560  0.3531628785639 1.0
C      1  0.6533847886053  0.4240765924178  0.1693793894970 1.0
C      1  0.4192165917323  0.7498969442099  0.7447935222620 1.0
C      1  0.2666672934043  0.2530730435551  0.4191515701225 1.0
C      1  0.5761769803984  0.7458645076472  0.2590926474680 1.0
C      1  0.7334295719143  0.2593044383053  0.5735542728270 1.0
C      1  0.1616325711002  0.3056382580935  0.5259848674163 1.0
C      1  0.4666279297229  0.6988003500212  0.1531040119625 1.0
C      1  0.8420535817503  0.3080355846803  0.4671414993101 1.0
C      1  0.5276129658418  0.7017793966629  0.8524411717968 1.0
C      1  0.5631101137141  0.3881909839245  0.1795651395516 1.0
C      1  0.8068973893556  0.5987039733213  0.5564243214390 1.0
C      1  0.4380097016802  0.3861401525905  0.8181050391641 1.0
C      1  0.1842356130923  0.6027855254962  0.4423242315640 1.0
C      1  0.6406926342602  0.3345204672102  0.7908908128616 1.0
C      1  0.2052886799433  0.6631849728353  0.6560789613563 1.0
C      1  0.3600817387842  0.3431341834078  0.2076823042238 1.0
C      1  0.7923779864862  0.6585756893819  0.3491468470362 1.0
C      1  0.5680975824283  0.5929796639640  0.5967513086984 1.0
C      1  0.3499405557153  0.4552247669811  0.5814294639785 1.0
C      1  0.3911245519890  0.5732764144435  0.3636222754002 1.0
C      1  0.6250537437804  0.4327709473053  0.4414450063436 1.0
C      1  0.7072089933285  0.5837596791713  0.7845210565023 1.0
C      1  0.2307539068172  0.4142491774625  0.7103205702941 1.0
C      1  0.2931405546559  0.5825742738859  0.2293728244010 1.0
C      1  0.7833937236399  0.4154250844957  0.2827623863401 1.0
C      1  0.6794791364314  0.7610530342692  0.3860334846946 1.0
C      1  0.6079106068746  0.2351292527710  0.6776339723045 1.0
C      1  0.3201800642253  0.7610893288454  0.6126435137731 1.0
C      1  0.3938243608055  0.2352547117509  0.3147537839119 1.0
C      1  0.5444865337396  0.7061338952410  0.1812009448565 1.0
C      1  0.8117842107130  0.3006822537797  0.5440716738441 1.0
C      1  0.4497545424365  0.7123051549421  0.8251443804386 1.0
C      1  0.1882733658082  0.2947196084847  0.4481228231405 1.0
C      1  0.5283794035707  0.4631303821759  0.3091246297246 1.0
C      1  0.6753512692728  0.4981909419617  0.5060813759934 1.0
C      1  0.4812596009465  0.4860011866146  0.7051715337510 1.0
C      1  0.3127467829015  0.5177421260634  0.5020506015475 1.0
C      1  0.7883467690442  0.4068661493458  0.7036673858969 1.0
C      1  0.2993344472571  0.5891220647334  0.7991622484100 1.0
C      1  0.2119895281679  0.4058626274795  0.2969358671533 1.0
C      1  0.7005790317548  0.5880436752618  0.2019685671401 1.0
C      1  0.6507800461569  0.7756583495711  0.5736965235892 1.0
C      1  0.4201386921516  0.1687985823904  0.6740065647694 1.0
C      1  0.3178733632046  0.8229516448905  0.4210007378640 1.0
C      1  0.5830372586380  0.1715561968598  0.3188879359784 1.0
C      1  0.3718577836173  0.5310182615165  0.2679222868118 1.0
C      1  0.7650484023556  0.4810728212863  0.3448855379117 1.0
C      1  0.6459663646904  0.5175382038320  0.7692354169601 1.0
C      1  0.2611819769312  0.4781053357796  0.6410801124893 1.0
C      1  0.5753530579548  0.1715001853073  0.6154720267441 1.0
C      1  0.3780245005786  0.8265198677902  0.5772057175485 1.0
C      1  0.4281110668676  0.1719541102934  0.3763062869584 1.0
C      1  0.6178074412014  0.8263371006448  0.4212704989000 1.0
C      1  0.2887490631518  0.6424244100911  0.7158501057852 1.0
C      1  0.2989734858959  0.3607448172533  0.2896731962633 1.0
C      1  0.7096610732940  0.6365253651270  0.2879324291683 1.0
C      1  0.7006166524404  0.3622311819372  0.7101296816730 1.0
C      1  0.9167645224640  0.5368934271768  0.3912282278092 1.0
C      1  0.6158054565639  0.4503919207947  0.9231270975902 1.0
C      1  0.0992948978150  0.5339878790279  0.6265381038127 1.0
C      1  0.3770066444617  0.4863125095183  0.1042565981021 1.0
C      1  0.2112684325526  0.5266961434017  0.5018778099166 1.0
C      1  0.5116001850964  0.4674556950591  0.2129779464863 1.0
C      1  0.7792572608670  0.5219778151910  0.5005957311624 1.0
C      1  0.4956611314244  0.4636791129779  0.7972937381018 1.0
C      1  0.1352501192333  0.6082675608480  0.6515008875301 1.0
C      1  0.3704762398009  0.4099371021036  0.1436938462254 1.0
C      1  0.8627753159803  0.6001046610067  0.3657081428324 1.0
C      1  0.6298782577137  0.3859896127846  0.8673133564304 1.0
C      1  0.3604378601739  0.4433922324339  0.3309684812843 1.0
C      1  0.6829939212893  0.5436840774156  0.3490368822292 1.0
C      1  0.6442946325732  0.4570669579179  0.6875184037695 1.0
C      1  0.3240175110423  0.5694283854447  0.6510114901205 1.0
C      1  0.4623747284909  0.1242687172601  0.5205049713475 1.0
C      1  0.4709809301097  0.8687666100080  0.4578370320873 1.0
C      1  0.5427968380577  0.1248779069374  0.4713947703301 1.0
C      1  0.5231112644057  0.8624163439215  0.5382451439953 1.0
C      1  0.6845367742586  0.2282072523852  0.2476415897199 1.0
C      1  0.7416905543330  0.7629261324662  0.6760751024286 1.0
C      1  0.3172915959961  0.2250314686939  0.7456105168036 1.0
C      1  0.2473071043264  0.7658970166959  0.3188798023087 1.0
C      1  0.6067731336575  0.7273986519401  0.8100821186217 1.0
C      1  0.2030251204380  0.2744839203765  0.6032077110991 1.0
C      1  0.3897385575717  0.7247303444451  0.1983199475998 1.0
C      1  0.8027594135334  0.2755018994112  0.3890291122648 1.0
C      1  0.5795377511676  0.4839049083064  0.8335466895356 1.0
C      1  0.1812202921715  0.5000578869919  0.5828211624498 1.0
C      1  0.4306333485436  0.5023398232257  0.1897482870130 1.0
C      1  0.8228710948587  0.5044613099466  0.4197942068140 1.0
C      1  0.6966223203949  0.2008481334673  0.5023184018334 1.0
C      1  0.4911331463225  0.7989913983981  0.7001079804929 1.0
C      1  0.3069368257518  0.1979579035780  0.4902488969057 1.0
C      1  0.5036763949153  0.8009084530353  0.3008959669777 1.0
C      1  0.7291805895648  0.2098866993945  0.4099003368752 1.0
C      1  0.5831207489691  0.7855394420456  0.7319326746191 1.0
C      1  0.2746622029527  0.2069034942150  0.5828028796574 1.0
C      1  0.4097852020441  0.7894433013408  0.2721432037570 1.0
C      1  0.4830905978445  0.1446157207698  0.6121957836799 1.0
C      1  0.3809914071798  0.8496242502346  0.4828797449732 1.0
C      1  0.5209237064667  0.1470753606766  0.3801851914144 1.0
C      1  0.6117748242039  0.8414992373355  0.5150183700598 1.0
C      1  0.2343571014929  0.7007079063631  0.2574882373962 1.0
C      1  0.7468408571027  0.2939169798964  0.2333902164476 1.0
C      1  0.7592722460075  0.7033584619237  0.7462347625487 1.0
C      1  0.2571133813007  0.2913270842045  0.7596193613635 1.0
C      1  0.4990833449507  0.7086986902882  0.5194267296412 1.0
C      1  0.4411135405963  0.3299343228168  0.4992026309097 1.0
C      1  0.5176960847131  0.6767208558421  0.4315145793706 1.0
C      1  0.5331967358284  0.3185660215546  0.5381391500897 1.0
C      1  0.5914476440539  0.6823737409887  0.5535548698156 1.0
C      1  0.4079830938051  0.3771032704287  0.5733384012721 1.0
C      1  0.4375257284224  0.6286582467843  0.4209306990735 1.0
C      1  0.5690326551169  0.3611065254890  0.4598314929097 1.0
C      1  0.7580308486778  0.7073955141784  0.4234678110555 1.0
C      1  0.5689008316557  0.2824611518739  0.7561226035254 1.0
C      1  0.2568246883442  0.6910987162978  0.5679230620008 1.0
C      1  0.4314526548716  0.2874364319539  0.2372010865456 1.0
C      1  0.4136854724752  0.5212891277442  0.6415254832934 1.0
C      1  0.3440557033382  0.5071873737145  0.4086290391274 1.0
C      1  0.6065422522712  0.4771675406482  0.3569548305895 1.0
C      1  0.6255749643846  0.5090147912680  0.5990773544111 1.0
C      1  0.5285994444778  0.8426032969373  0.3830095408533 1.0
C      1  0.6147684969660  0.1576046941029  0.5274159219853 1.0
C      1  0.4669388770647  0.8372983066480  0.6152480074949 1.0
C      1  0.3898757195801  0.1571797716903  0.4645135943278 1.0
C      1  0.2384488366981  0.7645214736241  0.4173376488224 1.0
C      1  0.5875581925859  0.2305352674875  0.2394048319865 1.0
C      1  0.7476675884274  0.7482847578912  0.5816207662161 1.0
C      1  0.4147619635691  0.2264352276153  0.7543826850553 1.0
C      1  0.8037315813119  0.3195050744938  0.3055735800576 1.0
C      1  0.6902061846068  0.6815053610627  0.8087479600301 1.0
C      1  0.2050409416206  0.3203065473119  0.6855531553869 1.0
C      1  0.3090989661229  0.6758604851638  0.2023939134098 1.0
C      1  0.6557231996715  0.7211234621936  0.3036070018844 1.0
C      1  0.6860343312074  0.2812717516088  0.6515632793261 1.0
C      1  0.3416100795129  0.7262894459034  0.6981482383140 1.0
C      1  0.3132916581620  0.2762677375704  0.3411554605768 1.0
C      1  0.2737974284515  0.3831489399781  0.7881605332580 1.0
C      1  0.2128764525804  0.6080724055151  0.2761418773095 1.0
C      1  0.7302647558059  0.3838981872961  0.2063283284173 1.0
C      1  0.7809009975327  0.6124584662594  0.7264581807432 1.0
C      1  0.3271760008563  0.6113721122552  0.5570820394561 1.0
C      1  0.4555520801514  0.4163604795077  0.3499924958779 1.0
C      1  0.6602772542765  0.5744847619376  0.4415793861892 1.0
C      1  0.5525411747799  0.4452906379036  0.6505565100380 1.0
C      1  0.3332761824745  0.5191655846068  0.8280837574726 1.0
C      1  0.1805199399564  0.4715721633251  0.3367155297049 1.0
C      1  0.6668046076171  0.5195974727928  0.1697428973470 1.0
C      1  0.8169595607301  0.4752013373047  0.6667599610743 1.0
C      1  0.7847656232643  0.6882416636067  0.5191044341359 1.0
C      1  0.4728462242892  0.2950755443740  0.7832333372358 1.0
C      1  0.2147626216811  0.6921703444295  0.4732159796497 1.0
C      1  0.5279591863738  0.2983403895543  0.2094103452580 1.0
C      1  0.4754218319548  0.5777853317530  0.5850035004061 1.0
END
