TITL C-32167-1581-34 -2.897 3375.00 -496.91454220 0 0 60 (C1) n - 1
REM
REM Run started: at 2020.12.17 12:32:47 in /rds/project/t2_vol4/rds-t2-cs072/BORA/CARBON/AIRSS/Generating-Clusters/Str-Search/Higher-Symm/Only-C60
REM VASP from code version vasp.5.4.4.18Apr17-6-g9f103f2a35 (build Oct 11 2019 16:45:47) gamma-only
REM
REM
REM
REM
REM ./C.cell (5f7b7a0d59291d2373303da1f58b8d66)
REM AIRSS Version 0.9.1 bugfix July 2018 build 013d7b7c2542+ Fri, 06 Jul 2018 19:26:36 +0100
REM compiler GCC version 4.8.5 20150623 (Red Hat 4.8.5-39)
REM options -cpp -mtune=generic -march=x86-64 -g -O0
REM seed -1381337214 -1673035314 -1821516399 -361031225 -2063568785 99177943 1092656792 -1749266699 2075707884 754148473 1663784452 -1679212493
REM
REM C.POTCAR (d86ddea03c3ceb6dc662c8ad6801f873)
REM 
CELL 1.54180   15.00000   15.00000   15.00000   90.00000   90.00000   90.00000
LATT -1
SFAC C  
C      1  0.6884031018658  0.5097291487932  0.3652001468786 1.0
C      1  0.5690404832832  0.6802039112722  0.3659964152037 1.0
C      1  0.3429273624520  0.6208498259692  0.3595212931675 1.0
C      1  0.3537034678491  0.3822302077496  0.3673518280053 1.0
C      1  0.5477613996685  0.3134099886655  0.3623956509336 1.0
C      1  0.4460940969268  0.3152136661359  0.6742261907279 1.0
C      1  0.6544082289422  0.3917212507686  0.6645090915260 1.0
C      1  0.6550724581964  0.6138764964928  0.6746669246707 1.0
C      1  0.4376425764773  0.6771729039290  0.6680659357397 1.0
C      1  0.3094537849130  0.4988896694713  0.6666435567513 1.0
C      1  0.7067131488556  0.4519683803921  0.5147404167431 1.0
C      1  0.6090627962814  0.6811613267989  0.5250975284713 1.0
C      1  0.3617858619055  0.6596481878399  0.5164461997530 1.0
C      1  0.3066515025355  0.4187356600267  0.5175851540800 1.0
C      1  0.5202376210855  0.2882797647659  0.5226822265286 1.0
C      1  0.2978253503479  0.4415927617803  0.4211002333828 1.0
C      1  0.4887406141204  0.2842827514266  0.4318066561583 1.0
C      1  0.6986768321368  0.4280139758053  0.4184977183004 1.0
C      1  0.6359762647064  0.6683674577948  0.4325138891055 1.0
C      1  0.3817498256827  0.6838066942028  0.4244753904116 1.0
C      1  0.5017187995844  0.3501779127838  0.2868262649310 1.0
C      1  0.6399858631122  0.5383156366303  0.2881338054902 1.0
C      1  0.5798066375093  0.6195606254057  0.2906967618349 1.0
C      1  0.3661408282195  0.6096868842334  0.2736699970810 1.0
C      1  0.4061038242868  0.3840272411671  0.2869792843331 1.0
C      1  0.3262828339458  0.5384822350829  0.4244412034881 1.0
C      1  0.4080578848181  0.3396547341919  0.4369216634314 1.0
C      1  0.6183955829736  0.3641044468011  0.4209249239617 1.0
C      1  0.6696317327128  0.5761416166605  0.4359057475904 1.0
C      1  0.4844729968557  0.6813438564496  0.4259414495806 1.0
C      1  0.4242945384020  0.5188538817397  0.4324491267851 1.0
C      1  0.4605924763473  0.4321698128078  0.4379914415099 1.0
C      1  0.5524790846385  0.4407254132751  0.4354900984079 1.0
C      1  0.5730772722850  0.5311630535941  0.4373820605442 1.0
C      1  0.4927079654019  0.5793071045114  0.4327844588661 1.0
C      1  0.5197072721779  0.5748077527400  0.2299799366864 1.0
C      1  0.4254758796058  0.5494652384997  0.2339270727445 1.0
C      1  0.4299780458738  0.4538257321974  0.2250040925917 1.0
C      1  0.5244704504755  0.4213477486545  0.2247699054843 1.0
C      1  0.5787995078689  0.4953588443715  0.2258377442771 1.0
C      1  0.6649997897640  0.3835688802065  0.5725776494813 1.0
C      1  0.6619307681073  0.6178393950932  0.5828955650491 1.0
C      1  0.4358036493212  0.6873927764193  0.5764796249019 1.0
C      1  0.2987734404517  0.4997156687255  0.5743928173475 1.0
C      1  0.4422543864030  0.3092037001922  0.5826589242351 1.0
C      1  0.4494195886042  0.6488475777631  0.7448372384374 1.0
C      1  0.3424991595294  0.4965163482333  0.7422303975475 1.0
C      1  0.4530156606109  0.3459639494054  0.7503657203795 1.0
C      1  0.6273810057145  0.4101970845531  0.7403935988913 1.0
C      1  0.6273299633911  0.5961524087580  0.7501390980073 1.0
C      1  0.3129098504755  0.5756745591935  0.5176027929847 1.0
C      1  0.3711764211796  0.3463406775650  0.5277948960405 1.0
C      1  0.6079778958127  0.3298479029040  0.5170709800655 1.0
C      1  0.6982984645406  0.5486115327867  0.5260023232114 1.0
C      1  0.5143665893658  0.6989779480642  0.5219032105540 1.0
C      1  0.5656002643660  0.5490757062833  0.8004869869242 1.0
C      1  0.4729774440743  0.5772239267231  0.7982495311877 1.0
C      1  0.4170315224614  0.4977484910128  0.7975950529842 1.0
C      1  0.4751333710190  0.4208724952422  0.7997474196670 1.0
C      1  0.5670144094808  0.4525555689976  0.7969971859444 1.0
END
