TITL C-32361-6883-33 -5.589 3375.00 -977.75427871 0 0 119 (C1) n - 1
REM
REM Run started: at 2020.12.22 23:37:23 in /gpfs/home/chem/mssmkc/CARBON/AIRSS/Generating-Clusters/Str-Search/Higher-Symm/C100-200
REM VASP from code version vasp.5.4.4.18Apr17-6-g9f103f2a35 (build Oct 11 2019 16:45:47) gamma-only
REM
REM
REM
REM
REM ./C.cell (533062f00bc710175b3da973d35f2034)
REM AIRSS Version 0.9.1 bugfix July 2018 build 013d7b7c2542+ Fri, 06 Jul 2018 19:26:36 +0100
REM compiler GCC version 6.3.0
REM options -cpp -iprefix /gpfs/warwick/csc/orac/software/Core/GCCcore/6.3.0/bin/../lib/gcc/x86_64-pc-linux-gnu/6.3.0/ -mtune=generic -march=x86-64 -g -O0
REM seed -857328988 -29099946 -1892823219 312928027 1200442709 1914947985 67406883 -990188030 -144728805 501356630 2077766211 -431958433
REM
REM C.POTCAR (d86ddea03c3ceb6dc662c8ad6801f873)
REM 
CELL 1.54180   15.00000   15.00000   15.00000   90.00000   90.00000   90.00000
LATT -1
SFAC C  
C      1  0.2327493712129  0.7255940326669  0.5589966628858 1.0
C      1  0.7791319110108  0.2746695567790  0.4226884308565 1.0
C      1  0.7452833585094  0.4579573470144  0.3093104787154 1.0
C      1  0.1934968377815  0.5385623783594  0.7014829173939 1.0
C      1  0.5729662854858  0.8190343474137  0.4923016437604 1.0
C      1  0.4291790630573  0.1827532667193  0.5309242298564 1.0
C      1  0.5151092777379  0.3754651535117  0.2334987269481 1.0
C      1  0.5169004044967  0.6122221779744  0.8009287835524 1.0
C      1  0.5846763827582  0.6473658791863  0.2411293868026 1.0
C      1  0.4296256354332  0.3524577137775  0.7922729531081 1.0
C      1  0.7303910720576  0.3574553594950  0.6569549041050 1.0
C      1  0.2827382058439  0.6603156748889  0.3296190096510 1.0
C      1  0.5266608968259  0.6096633626380  0.5501124550781 1.0
C      1  0.3747182290807  0.3274818399549  0.4423992454573 1.0
C      1  0.6366497572482  0.2955697459475  0.2502513225317 1.0
C      1  0.3815395961453  0.6774492844720  0.7287077989863 1.0
C      1  0.4756270399266  0.6589640321375  0.4769224681610 1.0
C      1  0.5556849184757  0.3859904764043  0.5981466224330 1.0
C      1  0.3972488184742  0.2037904119026  0.6239321539375 1.0
C      1  0.6192447290191  0.7872136424695  0.4090989678787 1.0
C      1  0.5940664778294  0.6860564035949  0.5999499631187 1.0
C      1  0.3866710895983  0.3400537225991  0.3465379548703 1.0
C      1  0.5058356302508  0.5388795630471  0.6282653176167 1.0
C      1  0.5109633815739  0.4445757812465  0.3663796140327 1.0
C      1  0.7540920241919  0.2653421826685  0.5152764718518 1.0
C      1  0.2544948306593  0.7392612817783  0.4689456593068 1.0
C      1  0.3179775989098  0.3858177382304  0.3005342291549 1.0
C      1  0.6690524355280  0.6259206917482  0.6282464378409 1.0
C      1  0.6752278882922  0.2167150764066  0.5424907809792 1.0
C      1  0.3314884649545  0.7963916922607  0.4541402589603 1.0
C      1  0.8209602296891  0.4389003852524  0.4462261273355 1.0
C      1  0.1869663049012  0.5634708470491  0.5352311717845 1.0
C      1  0.4203986325309  0.6035924483531  0.7752181929582 1.0
C      1  0.6169517711955  0.3871818624294  0.2341520719329 1.0
C      1  0.5270303079707  0.6505968796393  0.3905962016876 1.0
C      1  0.4728830299440  0.3739518898595  0.6450529794886 1.0
C      1  0.2212879578255  0.6248080347789  0.6782514139061 1.0
C      1  0.7774976248595  0.3691758000459  0.3136191389423 1.0
C      1  0.3625097489258  0.5251098920052  0.2442370420162 1.0
C      1  0.6441453789124  0.4892906894228  0.7133780887315 1.0
C      1  0.5233153034427  0.7031393314382  0.2971447457179 1.0
C      1  0.4889141021045  0.3018914508743  0.7287169332280 1.0
C      1  0.6807452393670  0.7231310449586  0.4664167724277 1.0
C      1  0.3310600626567  0.2623120291241  0.5887218267648 1.0
C      1  0.3084823057660  0.3536303359702  0.6177910136181 1.0
C      1  0.7298802179243  0.6406570067736  0.4724969127079 1.0
C      1  0.6546146123569  0.3035359076101  0.6842406916621 1.0
C      1  0.3559068532690  0.7192502505941  0.3106717198265 1.0
C      1  0.4685619268101  0.8238591587584  0.3846951963326 1.0
C      1  0.5476847822330  0.1869143710583  0.6300634698322 1.0
C      1  0.7735734158054  0.4977974120107  0.5991684320823 1.0
C      1  0.2290982245103  0.5084839337142  0.3675148370704 1.0
C      1  0.5863420536174  0.3333243338931  0.7462349717652 1.0
C      1  0.4303361647205  0.6778658784625  0.2672019842031 1.0
C      1  0.5619560033291  0.5367521482821  0.4841061673833 1.0
C      1  0.4029391214701  0.4130319386228  0.4933363299034 1.0
C      1  0.7855066345520  0.5069817213121  0.3846113700788 1.0
C      1  0.1916795834368  0.4908566448837  0.6186694655402 1.0
C      1  0.4264304270524  0.5015071657929  0.7539986310869 1.0
C      1  0.6546625572988  0.4615688981249  0.2792118830612 1.0
C      1  0.2429856141716  0.4186130368407  0.3530237848728 1.0
C      1  0.7149348075530  0.5735422004906  0.5560604398685 1.0
C      1  0.1970383998724  0.5748347940360  0.4379993130758 1.0
C      1  0.8077017152789  0.4292778338883  0.5402801224690 1.0
C      1  0.6355256883062  0.2241709582987  0.6308635111316 1.0
C      1  0.3786434730468  0.7912376340800  0.3706426423035 1.0
C      1  0.8229696962499  0.3559672709603  0.3955674100840 1.0
C      1  0.1929071358239  0.6439941431740  0.5869508746223 1.0
C      1  0.6544088685358  0.3414255367714  0.4076019535408 1.0
C      1  0.2961870532021  0.7494900911534  0.6266377254612 1.0
C      1  0.4742143639742  0.2969390688186  0.1767896939592 1.0
C      1  0.5407795366987  0.7158886210089  0.6804455922219 1.0
C      1  0.4816016734061  0.4338660593808  0.8045494049014 1.0
C      1  0.5323578761953  0.5664504123407  0.2395484241544 1.0
C      1  0.7397895555432  0.6433732622347  0.3121961297852 1.0
C      1  0.2784478231290  0.3713131015610  0.7159816381468 1.0
C      1  0.5915702871225  0.4750004998718  0.6172626907013 1.0
C      1  0.3671894375699  0.5555949953267  0.3992314258882 1.0
C      1  0.4725471786384  0.2155607072720  0.6814978310700 1.0
C      1  0.5487092199060  0.7863468996387  0.3445221340255 1.0
C      1  0.5953970752585  0.2036303510473  0.4840971547989 1.0
C      1  0.3971195987271  0.8201836218724  0.5241899051356 1.0
C      1  0.3381744545385  0.3587694695283  0.7796585904165 1.0
C      1  0.6736861834945  0.6487159444810  0.2624182561376 1.0
C      1  0.5616481823313  0.3728682156381  0.5030851117196 1.0
C      1  0.3943767430403  0.6208404954371  0.4666863793666 1.0
C      1  0.5742207638130  0.5743934433488  0.3937687012236 1.0
C      1  0.3927140630145  0.4001674949111  0.5923486534932 1.0
C      1  0.3460467054166  0.5656658923006  0.5301220922274 1.0
C      1  0.6502058961351  0.4101626547661  0.4751791356439 1.0
C      1  0.7766010655163  0.3408194689782  0.5735078876420 1.0
C      1  0.2296639452369  0.6665553591382  0.4079993243439 1.0
C      1  0.7082256140393  0.2997040872120  0.3334672606160 1.0
C      1  0.2916651864462  0.6867921425657  0.6986969389510 1.0
C      1  0.2285848843863  0.4060429239016  0.6405638098150 1.0
C      1  0.7631295486217  0.5996314455908  0.3924061524078 1.0
C      1  0.3595252715223  0.4334167867787  0.2216117492405 1.0
C      1  0.6493653440172  0.5959781264142  0.7123489790997 1.0
C      1  0.3596481378902  0.4948340204844  0.4713329115911 1.0
C      1  0.6423737790753  0.4995469603385  0.5293062751299 1.0
C      1  0.5434216043926  0.2656186945962  0.2272057416986 1.0
C      1  0.4440094857339  0.7350672712141  0.6770919941131 1.0
C      1  0.6213161092519  0.7517906147633  0.5355686106174 1.0
C      1  0.3643142229908  0.2513818717971  0.4973540805619 1.0
C      1  0.4982541042032  0.5592618978609  0.7256771773280 1.0
C      1  0.4757991041051  0.3753187506327  0.3220147774783 1.0
C      1  0.4305276747421  0.4696051740073  0.6533768234438 1.0
C      1  0.5740489389093  0.5103969364110  0.3167069383002 1.0
C      1  0.3035264094422  0.5621420916678  0.3199971226236 1.0
C      1  0.7298378723899  0.4521883158961  0.6732660085405 1.0
C      1  0.4809093922665  0.8394272353559  0.4787583959269 1.0
C      1  0.5214633656850  0.1718632279801  0.5360198498622 1.0
C      1  0.5784053386590  0.4230152944273  0.7730048042584 1.0
C      1  0.4371104257913  0.5883005704636  0.2364321499921 1.0
C      1  0.3850460533346  0.7808688264838  0.6103074148918 1.0
C      1  0.5861072671256  0.2908392972616  0.4482870180865 1.0
C      1  0.5793464033710  0.6600724168496  0.7472722435392 1.0
C      1  0.4327324148757  0.3823595381621  0.1745621225330 1.0
C      1  0.5011464751386  0.4452908339013  0.4633188820141 1.0
END
