TITL C-32167-1581-18 -2.926 3375.00 -489.42793709 0 0 60 (Ci) n - 1
REM
REM Run started: at 2020.12.17 07:28:52 in /rds/project/t2_vol4/rds-t2-cs072/BORA/CARBON/AIRSS/Generating-Clusters/Str-Search/Higher-Symm/Only-C60
REM VASP from code version vasp.5.4.4.18Apr17-6-g9f103f2a35 (build Oct 11 2019 16:45:47) gamma-only
REM
REM
REM
REM
REM ./C.cell (5f7b7a0d59291d2373303da1f58b8d66)
REM AIRSS Version 0.9.1 bugfix July 2018 build 013d7b7c2542+ Fri, 06 Jul 2018 19:26:36 +0100
REM compiler GCC version 4.8.5 20150623 (Red Hat 4.8.5-39)
REM options -cpp -mtune=generic -march=x86-64 -g -O0
REM seed -2095665732 1685546380 1502056921 -1234852404 1045852324 -1329825970 84750072 293950003 -1351290745 805187298 724848467 783164853
REM
REM C.POTCAR (d86ddea03c3ceb6dc662c8ad6801f873)
REM 
CELL 1.54180   15.00000   15.00000   15.00000   90.00000   90.00000   90.00000
LATT -1
SFAC C  
C      1  0.6408791940808  0.7114860010516  0.6144890922949 1.0
C      1  0.3591208741768  0.2885138607967  0.3855105710217 1.0
C      1  0.4973487321949  0.5413678808809  0.3115993615416 1.0
C      1  0.5026513501810  0.4586325148545  0.6884024060741 1.0
C      1  0.4223895705209  0.7636452920712  0.4823526396543 1.0
C      1  0.5776104828610  0.2363549291545  0.5176446781392 1.0
C      1  0.2656522742102  0.5585219549468  0.4916876117453 1.0
C      1  0.7343477800678  0.4414782770998  0.5083122525392 1.0
C      1  0.5299749636071  0.2460942035212  0.4366285444477 1.0
C      1  0.4700263145501  0.7539054740503  0.5633724348571 1.0
C      1  0.4593108244112  0.6255321870313  0.3216082594576 1.0
C      1  0.5406886990267  0.3744673029747  0.6783920785131 1.0
C      1  0.4270604351487  0.5974863305520  0.6937447365438 1.0
C      1  0.5729399801353  0.4025138223574  0.3062555262074 1.0
C      1  0.3315723942661  0.4805054480778  0.6566241833883 1.0
C      1  0.6684277116955  0.5194947854295  0.3433757094235 1.0
C      1  0.7451350034113  0.5441505563809  0.4974765029028 1.0
C      1  0.2548649962469  0.4558496836052  0.5025233502976 1.0
C      1  0.5812727514927  0.2644163987167  0.6059229889837 1.0
C      1  0.4187271793721  0.7355841296857  0.3940774682855 1.0
C      1  0.7379163907165  0.3913428587501  0.4300255077686 1.0
C      1  0.2620837507728  0.6086570762833  0.5699740758322 1.0
C      1  0.6864150374512  0.3115006419952  0.3982688811056 1.0
C      1  0.3135856852512  0.6885004007449  0.6017303906015 1.0
C      1  0.6062680165484  0.5559244805922  0.5042153284893 1.0
C      1  0.3937319418835  0.4440753045899  0.4957848943206 1.0
C      1  0.4441759370664  0.4697945087727  0.3494945706922 1.0
C      1  0.5558236787338  0.5302045427482  0.6505061793157 1.0
C      1  0.4101205477480  0.2892874826386  0.6462094584452 1.0
C      1  0.5898795761323  0.7107125771830  0.3537904559309 1.0
C      1  0.3786714640950  0.6463601419138  0.3745606554587 1.0
C      1  0.6213272716303  0.3536401176782  0.6254381795702 1.0
C      1  0.4999471644412  0.7112186424656  0.3428076357226 1.0
C      1  0.5000530133493  0.2887809483325  0.6571922890504 1.0
C      1  0.3413977340375  0.6345867268018  0.6759732988525 1.0
C      1  0.6586027338305  0.3654136804509  0.3240263690693 1.0
C      1  0.7183269936229  0.4382313763262  0.3457842503784 1.0
C      1  0.2816735584624  0.5617684987197  0.6542153046075 1.0
C      1  0.5447605895790  0.6887542483072  0.5884588120667 1.0
C      1  0.4552394443657  0.3112456774830  0.4115411951542 1.0
C      1  0.3846904203403  0.4962540620809  0.4168117606558 1.0
C      1  0.6153090235468  0.5037458196245  0.5831884805820 1.0
C      1  0.3764128279173  0.7427787557891  0.5625864863699 1.0
C      1  0.6235851066716  0.2572199073162  0.4374147683694 1.0
C      1  0.3725805004127  0.3336355473666  0.5767966050140 1.0
C      1  0.6274195169170  0.6663645363915  0.4232032711176 1.0
C      1  0.6768153683386  0.5773925478512  0.4240089921542 1.0
C      1  0.3231848534616  0.4226075436267  0.5759908624222 1.0
C      1  0.6673936979490  0.4232453379338  0.5794882788251 1.0
C      1  0.3326061734692  0.5767550402368  0.4205111648943 1.0
C      1  0.4156611243983  0.4982268203075  0.6996557912142 1.0
C      1  0.5843387871207  0.5017733068061  0.3003450154129 1.0
C      1  0.2357015834450  0.3951255618089  0.4363334039361 1.0
C      1  0.7642987356608  0.6048742861870  0.5636665642719 1.0
C      1  0.2863462427302  0.3288677799484  0.4065686819708 1.0
C      1  0.7136535645559  0.6711323297004  0.5934315541471 1.0
C      1  0.5105753190409  0.6139430450832  0.6520135927156 1.0
C      1  0.4894252191769  0.3860567827055  0.3479866672371 1.0
C      1  0.5743266006819  0.6410380836288  0.5036363982934 1.0
C      1  0.4256732927905  0.3589619395913  0.4963635316457 1.0
END
