TITL C-32167-1581-41 -2.826 3375.00 -467.72341616 0 0 60 (C3) n - 1
REM
REM Run started: at 2020.12.17 13:53:20 in /rds/project/t2_vol4/rds-t2-cs072/BORA/CARBON/AIRSS/Generating-Clusters/Str-Search/Higher-Symm/Only-C60
REM VASP from code version vasp.5.4.4.18Apr17-6-g9f103f2a35 (build Oct 11 2019 16:45:47) gamma-only
REM
REM
REM
REM
REM ./C.cell (5f7b7a0d59291d2373303da1f58b8d66)
REM AIRSS Version 0.9.1 bugfix July 2018 build 013d7b7c2542+ Fri, 06 Jul 2018 19:26:36 +0100
REM compiler GCC version 4.8.5 20150623 (Red Hat 4.8.5-39)
REM options -cpp -mtune=generic -march=x86-64 -g -O0
REM seed 1861151221 608461242 1076167379 -2013544311 2126159473 -1773416889 1501897017 -1466040231 2034126836 -2101354644 1461615432 -1590239045
REM
REM C.POTCAR (d86ddea03c3ceb6dc662c8ad6801f873)
REM 
CELL 1.54180   15.00000   15.00000   15.00000   90.00000   90.00000   90.00000
LATT -1
SFAC C  
C      1  0.3437587696930  0.4324416244761  0.6316743744271 1.0
C      1  0.3431239207514  0.4206485802813  0.3759551132684 1.0
C      1  0.3437243896693  0.6477473218593  0.4936516419701 1.0
C      1  0.2706583960760  0.4741911519226  0.5902933654575 1.0
C      1  0.2703459198617  0.4360897706829  0.4332540896868 1.0
C      1  0.2704768194030  0.5910519425100  0.4787541291917 1.0
C      1  0.5593321428364  0.3553654791969  0.3330884131674 1.0
C      1  0.5601253472822  0.7172475683109  0.4578970549826 1.0
C      1  0.5603688809784  0.4276126184800  0.7086556362674 1.0
C      1  0.6706709370465  0.3675211628708  0.4660304895130 1.0
C      1  0.6706981711444  0.5950437894305  0.4020892601835 1.0
C      1  0.6711984272813  0.5360541539770  0.6301322854790 1.0
C      1  0.4876091999805  0.4769460202394  0.2618283926189 1.0
C      1  0.4886971213149  0.7181866773707  0.5990447610490 1.0
C      1  0.4880492475082  0.3051392907329  0.6396094402854 1.0
C      1  0.5167763271879  0.5238304591263  0.3892656244768 1.0
C      1  0.5173356826398  0.5839928470455  0.5752296515484 1.0
C      1  0.5170843926952  0.3918083319209  0.5349733925390 1.0
C      1  0.2678107676726  0.4025404961570  0.5209858102220 1.0
C      1  0.2676524291519  0.5318636765407  0.4057181222023 1.0
C      1  0.2680390689077  0.5669634506487  0.5755627711535 1.0
C      1  0.4258743616401  0.3731987813494  0.3949144875775 1.0
C      1  0.4262502686329  0.6551174541628  0.4426320948036 1.0
C      1  0.4267939256375  0.4724508422102  0.6627577963139 1.0
C      1  0.4356144023994  0.3783385077177  0.4938963053491 1.0
C      1  0.4354866443808  0.5665881461914  0.3979007830304 1.0
C      1  0.4361401754345  0.5553201825980  0.6082918653930 1.0
C      1  0.6336190053980  0.7290001624435  0.5249118467270 1.0
C      1  0.6334479209986  0.3632272149139  0.6856743554826 1.0
C      1  0.6327601168184  0.4071908785377  0.2889681675258 1.0
C      1  0.4976502529593  0.6607172158766  0.5129797244745 1.0
C      1  0.4976794241318  0.4081943956398  0.6324709046101 1.0
C      1  0.4970860954939  0.4313681828772  0.3546434394360 1.0
C      1  0.4850183334074  0.7313814053555  0.3922674031831 1.0
C      1  0.4857365889773  0.4780699321150  0.7534699056416 1.0
C      1  0.4844877391745  0.2915548007361  0.3543501011223 1.0
C      1  0.5160715615794  0.2300201965569  0.4159183672496 1.0
C      1  0.5165227385976  0.7084041981641  0.3082199872098 1.0
C      1  0.5168540767252  0.5624103137508  0.7768163677409 1.0
C      1  0.5670483973488  0.2369308408620  0.4808809876289 1.0
C      1  0.5669702711094  0.6481546374575  0.2820714940080 1.0
C      1  0.5677164073251  0.6132341686489  0.7357867795192 1.0
C      1  0.4025965134184  0.2824023444191  0.6178615477815 1.0
C      1  0.4023401557356  0.5076703559784  0.2527414152043 1.0
C      1  0.4035297750707  0.7105104713328  0.6302026450414 1.0
C      1  0.6474164631540  0.6724966577433  0.4492663793476 1.0
C      1  0.6478481432118  0.4568263276307  0.6741416447439 1.0
C      1  0.6468866928773  0.3697350514700  0.3755998661165 1.0
C      1  0.6005674959579  0.5678934527574  0.3291251043244 1.0
C      1  0.6011676141833  0.6130107446129  0.6428993117047 1.0
C      1  0.6006692110800  0.3180010806085  0.5265991961620 1.0
C      1  0.7177833187998  0.5348423044943  0.4573937574545 1.0
C      1  0.7181509620140  0.5177997212708  0.5503299132041 1.0
C      1  0.7179705621914  0.4458106379800  0.4892974823069 1.0
C      1  0.3578424513861  0.3593837841059  0.5606144900566 1.0
C      1  0.3574949432843  0.5186295779111  0.3481673465471 1.0
C      1  0.3583318236151  0.6226406506792  0.5923597175654 1.0
C      1  0.5932515837029  0.4892855251805  0.2638229253079 1.0
C      1  0.5941532425431  0.7096319111819  0.6086532580388 1.0
C      1  0.5936339805224  0.3002706286975  0.6274069153753 1.0
END
