TITL C-32167-1581-17 -2.967 3375.00 -489.43861832 0 0 60 (C1) n - 1
REM
REM Run started: at 2020.12.17 07:13:48 in /rds/project/t2_vol4/rds-t2-cs072/BORA/CARBON/AIRSS/Generating-Clusters/Str-Search/Higher-Symm/Only-C60
REM VASP from code version vasp.5.4.4.18Apr17-6-g9f103f2a35 (build Oct 11 2019 16:45:47) gamma-only
REM
REM
REM
REM
REM ./C.cell (5f7b7a0d59291d2373303da1f58b8d66)
REM AIRSS Version 0.9.1 bugfix July 2018 build 013d7b7c2542+ Fri, 06 Jul 2018 19:26:36 +0100
REM compiler GCC version 4.8.5 20150623 (Red Hat 4.8.5-39)
REM options -cpp -mtune=generic -march=x86-64 -g -O0
REM seed -1129893655 -1039995525 -437301865 1027875214 -1212629631 -739194790 -431711645 -549754142 -97590391 1596423077 -11673176 -782393480
REM
REM C.POTCAR (d86ddea03c3ceb6dc662c8ad6801f873)
REM 
CELL 1.54180   15.00000   15.00000   15.00000   90.00000   90.00000   90.00000
LATT -1
SFAC C  
C      1  0.5382544967891  0.6966189388795  0.2925347497013 1.0
C      1  0.2854446849197  0.4266628488723  0.3042702514089 1.0
C      1  0.6928770231120  0.3703021227059  0.2986426384701 1.0
C      1  0.5370920657622  0.5416082430569  0.7456319345975 1.0
C      1  0.4474987918913  0.5131796517866  0.7475220144292 1.0
C      1  0.5169109613710  0.4500756635094  0.7460174708041 1.0
C      1  0.7333801019225  0.5444890860939  0.5013997914755 1.0
C      1  0.3475014378141  0.6720636144680  0.4972082642925 1.0
C      1  0.4198763413657  0.2859234174782  0.4975892106044 1.0
C      1  0.3779349863381  0.4122354593518  0.2983413396628 1.0
C      1  0.6688971656604  0.4610149903365  0.2930247690568 1.0
C      1  0.4726475293053  0.6304027361199  0.2933630330897 1.0
C      1  0.5142322805057  0.5463363584060  0.5032624912662 1.0
C      1  0.4412071811572  0.4878324788573  0.5048609595221 1.0
C      1  0.5287289394504  0.4510427458820  0.4917610116388 1.0
C      1  0.5300218222945  0.6723942302029  0.6534279353411 1.0
C      1  0.3349149026947  0.4405520515933  0.6605689609836 1.0
C      1  0.6335026141141  0.3885947038428  0.6540861896471 1.0
C      1  0.3628183121428  0.6054083413067  0.6419878644462 1.0
C      1  0.4771615636826  0.3323942660376  0.6385791515731 1.0
C      1  0.6589652960073  0.5648985130063  0.6402656725192 1.0
C      1  0.7493928399016  0.5516169050753  0.4107711211616 1.0
C      1  0.3478579090646  0.6715539995745  0.4039353486930 1.0
C      1  0.4181713878482  0.2838547279492  0.4044539603659 1.0
C      1  0.3713823104053  0.5235820927914  0.6939831507030 1.0
C      1  0.5449851599712  0.3802784261814  0.6891745960333 1.0
C      1  0.5834287455512  0.6008580770882  0.6903889931440 1.0
C      1  0.2809978454913  0.3876296500265  0.5220399248225 1.0
C      1  0.7014658994608  0.3751499081178  0.5131606965516 1.0
C      1  0.5078338006192  0.7360582208995  0.5091875381983 1.0
C      1  0.7271574238821  0.4596883706024  0.5476573323709 1.0
C      1  0.4223870827174  0.7112179386005  0.5432895911955 1.0
C      1  0.3491352183838  0.3276968343340  0.5488354415906 1.0
C      1  0.4019015066712  0.3298844940692  0.3367197846002 1.0
C      1  0.7264614361756  0.5191578084053  0.3371309447777 1.0
C      1  0.3926911117553  0.6597425652856  0.3341809690476 1.0
C      1  0.6370137507500  0.3379366770460  0.4386406011898 1.0
C      1  0.5744585495925  0.6915131003508  0.4395932224277 1.0
C      1  0.2775277159651  0.4634669038712  0.4514378434529 1.0
C      1  0.4201995806356  0.4870772730241  0.3540038822619 1.0
C      1  0.5791076399352  0.4710833271815  0.3375843575991 1.0
C      1  0.5050131611954  0.5440964921063  0.3425752543723 1.0
C      1  0.3758598524364  0.4854525655257  0.4354558659245 1.0
C      1  0.5733435622987  0.4157283343685  0.4147656609646 1.0
C      1  0.5325653159744  0.5994606946458  0.4300454847209 1.0
C      1  0.6873733398255  0.6080152418785  0.5566280250853 1.0
C      1  0.3103369388939  0.6058448548498  0.5584051238834 1.0
C      1  0.4993180092030  0.2883907786578  0.5524729317769 1.0
C      1  0.5892054984113  0.2911092084591  0.5232187932903 1.0
C      1  0.6363916402155  0.6808459830341  0.5252101983975 1.0
C      1  0.2638637588596  0.5266729868370  0.5357367960786 1.0
C      1  0.2322810427964  0.4568271030033  0.3618857527302 1.0
C      1  0.6726520097534  0.3077056270183  0.3503955254422 1.0
C      1  0.5945735118864  0.7265318894335  0.3469568251238 1.0
C      1  0.4336008079426  0.6708869631699  0.6319797685996 1.0
C      1  0.3844353755607  0.3583353798978  0.6355288312659 1.0
C      1  0.6839867330690  0.4714775782227  0.6345445699264 1.0
C      1  0.6527408163932  0.3304899967538  0.5810218509404 1.0
C      1  0.5696246853893  0.7180527267946  0.5799558720978 1.0
C      1  0.2694085268179  0.4509976330752  0.5927012646619 1.0
END
