TITL C-32399-6830-56 -7.374 3375.00 -1307.42942444 0 0 160 (C4) n - 1
REM
REM Run started: at 2020.12.23 16:09:46 in /gpfs/home/chem/mssmkc/CARBON/AIRSS/Generating-Clusters/Str-Search/Higher-Symm/C100-200
REM VASP from code version vasp.5.4.4.18Apr17-6-g9f103f2a35 (build Oct 11 2019 16:45:47) gamma-only
REM
REM
REM
REM
REM ./C.cell (533062f00bc710175b3da973d35f2034)
REM AIRSS Version 0.9.1 bugfix July 2018 build 013d7b7c2542+ Fri, 06 Jul 2018 19:26:36 +0100
REM compiler GCC version 6.3.0
REM options -cpp -iprefix /gpfs/warwick/csc/orac/software/Core/GCCcore/6.3.0/bin/../lib/gcc/x86_64-pc-linux-gnu/6.3.0/ -mtune=generic -march=x86-64 -g -O0
REM seed -1374237400 1482954424 1257969309 -338407469 895975151 -1344326746 912428308 2110321144 515408802 -856486978 858108242 -57734594
REM
REM C.POTCAR (d86ddea03c3ceb6dc662c8ad6801f873)
REM 
CELL 1.54180   15.00000   15.00000   15.00000   90.00000   90.00000   90.00000
LATT -1
SFAC C  
C      1  0.3086555266831  0.4227327545635  0.4237586371048 1.0
C      1  0.4007132794474  0.3068106615545  0.4351660652257 1.0
C      1  0.5772670892724  0.3086513435015  0.4237576679068 1.0
C      1  0.6931849684947  0.4007130042573  0.4351638320315 1.0
C      1  0.6913453029700  0.5772682145539  0.4237551691516 1.0
C      1  0.5992890389485  0.6931830116917  0.4351648693119 1.0
C      1  0.4227317689813  0.6913392303648  0.4237554356747 1.0
C      1  0.3068125820560  0.5992888171841  0.4351661649110 1.0
C      1  0.4417130089098  0.3806124491077  0.4970310422373 1.0
C      1  0.5416350773965  0.3739779426013  0.4926856180165 1.0
C      1  0.6193832983553  0.4417136723016  0.4970291668154 1.0
C      1  0.6260200850526  0.5416358522454  0.4926847185965 1.0
C      1  0.5582839736895  0.6193804552046  0.4970309823733 1.0
C      1  0.4583614742134  0.6260142607331  0.4926864685898 1.0
C      1  0.3806139209276  0.5582834617968  0.4970318608049 1.0
C      1  0.3739815791852  0.4583608094335  0.4926884657183 1.0
C      1  0.8621420735145  0.3854848318364  0.3944217059813 1.0
C      1  0.8028141913316  0.6491558924287  0.4440529715453 1.0
C      1  0.6145130536006  0.8621373242536  0.3944148358544 1.0
C      1  0.3508414484617  0.8028160022342  0.4440524630495 1.0
C      1  0.1378614442084  0.6145130809380  0.3944201718645 1.0
C      1  0.1971862527633  0.3508413849967  0.4440570024134 1.0
C      1  0.3854853404197  0.1378532244615  0.3944297009913 1.0
C      1  0.6491568632009  0.1971869134749  0.4440574696107 1.0
C      1  0.3095465501344  0.5090231331103  0.2863081261974 1.0
C      1  0.3325514144755  0.3357816193211  0.2791546726731 1.0
C      1  0.4909794516699  0.3095480451585  0.2863078617383 1.0
C      1  0.6642194785822  0.3325504656566  0.2791516240651 1.0
C      1  0.6904530067657  0.4909785709660  0.2863047770812 1.0
C      1  0.6674521666550  0.6642224283528  0.2791525442428 1.0
C      1  0.5090237259936  0.6904561568385  0.2863056880204 1.0
C      1  0.3357792444373  0.6674519306224  0.2791543064027 1.0
C      1  0.5343861617488  0.6815618315691  0.1944257172954 1.0
C      1  0.3453804487843  0.6236512591007  0.1874273328129 1.0
C      1  0.3184442414579  0.5343841689515  0.1944291745200 1.0
C      1  0.3763518735646  0.3453862143464  0.1874292831992 1.0
C      1  0.4656176224729  0.3184478327657  0.1944299975675 1.0
C      1  0.6546146292910  0.3763518450613  0.1874265045293 1.0
C      1  0.6815560071807  0.4656171204718  0.1944259571434 1.0
C      1  0.6236516670174  0.6546212652227  0.1874252854515 1.0
C      1  0.5138112727466  0.1639012604378  0.6246014559268 1.0
C      1  0.7515358172109  0.2799302770513  0.6098606104725 1.0
C      1  0.8360951742584  0.5138097496002  0.6245950811261 1.0
C      1  0.7200775378064  0.7515301805856  0.6098603090776 1.0
C      1  0.4861853933787  0.8360960897929  0.6245922270900 1.0
C      1  0.2484663226166  0.7200780289337  0.6098599705280 1.0
C      1  0.1638995357102  0.4861856595041  0.6246018563459 1.0
C      1  0.2799295713543  0.2484603795073  0.6098611042818 1.0
C      1  0.6278691003819  0.5450138051534  0.6670389338574 1.0
C      1  0.5582709713759  0.6210560618002  0.6685036043377 1.0
C      1  0.4549838994313  0.6278666479205  0.6670414186668 1.0
C      1  0.3789420802046  0.5582703376563  0.6685030280657 1.0
C      1  0.3721298790749  0.4549837814912  0.6670415980285 1.0
C      1  0.4417264505999  0.3789423969778  0.6685044073400 1.0
C      1  0.5450144625598  0.3721281354686  0.6670393405653 1.0
C      1  0.6210565479154  0.4417257765810  0.6685046528394 1.0
C      1  0.6696526428656  0.3006009315153  0.4622819676465 1.0
C      1  0.7798414313602  0.4406419447328  0.4833904161169 1.0
C      1  0.6993988792526  0.6696528635284  0.4622800299337 1.0
C      1  0.5593675176055  0.7798420516223  0.4833898877781 1.0
C      1  0.3303481202743  0.6994002045581  0.4622808755031 1.0
C      1  0.2201555217329  0.5593629531959  0.4833934139483 1.0
C      1  0.3005992003786  0.3303479562161  0.4622833914047 1.0
C      1  0.4406450684406  0.2201553427926  0.4833948621248 1.0
C      1  0.3763631531193  0.5012689282590  0.1233844880172 1.0
C      1  0.4066616634903  0.4155050348546  0.1237991830279 1.0
C      1  0.4987337283006  0.3763639764674  0.1233844886582 1.0
C      1  0.5844975974488  0.4066617097382  0.1237965952312 1.0
C      1  0.6236392392073  0.4987361868576  0.1233811586014 1.0
C      1  0.5933415804113  0.5845007173100  0.1237958882314 1.0
C      1  0.5012670432695  0.6236432575520  0.1233801749201 1.0
C      1  0.4155026236811  0.5933429101137  0.1237984803319 1.0
C      1  0.6318924850424  0.1414571008393  0.5156933762503 1.0
C      1  0.8363602836175  0.3532624963571  0.4882068694468 1.0
C      1  0.8585405033593  0.6318927576615  0.5156917041883 1.0
C      1  0.6467439775230  0.8363612136816  0.4882037397349 1.0
C      1  0.3681047115838  0.8585438055984  0.5156892282475 1.0
C      1  0.1636347002529  0.6467418428811  0.4882081005864 1.0
C      1  0.1414538339848  0.3681050804870  0.5156916013485 1.0
C      1  0.3532650557416  0.1636330970238  0.4882137506896 1.0
C      1  0.4845076349123  0.2482352205512  0.5701785470892 1.0
C      1  0.6668759466587  0.3153293169500  0.5642357997518 1.0
C      1  0.7517629338066  0.4845094828968  0.5701753336973 1.0
C      1  0.6846701869986  0.6668736444533  0.5642336591115 1.0
C      1  0.5154914294917  0.7517652767101  0.5701726486962 1.0
C      1  0.3331243769342  0.6846735778970  0.5642342943568 1.0
C      1  0.2482315132112  0.5154951989307  0.5701771114467 1.0
C      1  0.3153255558590  0.3331227569911  0.5642373544093 1.0
C      1  0.6721583941624  0.4169525473812  0.5851082861682 1.0
C      1  0.6843217786407  0.5635257845780  0.5804125972498 1.0
C      1  0.5830441011937  0.6721566141150  0.5851062224630 1.0
C      1  0.4364726974372  0.6843234096772  0.5804126864686 1.0
C      1  0.3278404749606  0.5830483163186  0.5851083750396 1.0
C      1  0.3156733720754  0.4364748133558  0.5804147986263 1.0
C      1  0.4169491670098  0.3278405632909  0.5851107960518 1.0
C      1  0.5635252336048  0.3156762231580  0.5804143417349 1.0
C      1  0.8250024428161  0.2897221967280  0.5500210193464 1.0
C      1  0.8856850491037  0.5781541911628  0.5746642394653 1.0
C      1  0.7102850450853  0.8249975784165  0.5500192346638 1.0
C      1  0.4218429802388  0.8856902774224  0.5746628937330 1.0
C      1  0.1749973265514  0.7102837355474  0.5500197557787 1.0
C      1  0.1143116075799  0.4218388239046  0.5746707738932 1.0
C      1  0.2897233319585  0.1749915133597  0.5500223227376 1.0
C      1  0.5781610223845  0.1143143043200  0.5746730170950 1.0
C      1  0.3295646458901  0.6852290085909  0.7514809805678 1.0
C      1  0.2515867673442  0.5124609632774  0.7573275793881 1.0
C      1  0.3147722648511  0.3295636207027  0.7514859999827 1.0
C      1  0.4875373516688  0.2515894685364  0.7573278836405 1.0
C      1  0.6704352257520  0.3147722638607  0.7514849457538 1.0
C      1  0.7484112720882  0.4875375796702  0.7573208118936 1.0
C      1  0.6852287147544  0.6704336413111  0.7514798021835 1.0
C      1  0.5124599593396  0.7484172499357  0.7573203298108 1.0
C      1  0.4161483586419  0.3199884722192  0.3378381244662 1.0
C      1  0.5797086871566  0.2907108425632  0.3252748581097 1.0
C      1  0.6800122396896  0.4161479099358  0.3378355043147 1.0
C      1  0.7092852256571  0.5797087416441  0.3252741782945 1.0
C      1  0.5838534885698  0.6800130935964  0.3378371717199 1.0
C      1  0.4202941570805  0.7092836678085  0.3252784772255 1.0
C      1  0.3199883911835  0.5838535233667  0.3378380064447 1.0
C      1  0.2907142109212  0.4202938542911  0.3252792439205 1.0
C      1  0.4473311156389  0.3896210136858  0.8293893475720 1.0
C      1  0.5426453311783  0.3847152287962  0.8293337803600 1.0
C      1  0.6103787981479  0.4473329909004  0.8293876892839 1.0
C      1  0.6152835081260  0.5426462052142  0.8293303197677 1.0
C      1  0.5526667263499  0.6103801417077  0.8293861498592 1.0
C      1  0.4573534948313  0.6152847602004  0.8293283808098 1.0
C      1  0.3896189768752  0.5526682973953  0.8293871003485 1.0
C      1  0.3847127734610  0.4573543756259  0.8293328057302 1.0
C      1  0.4949721846817  0.1779930921516  0.7101683645940 1.0
C      1  0.7272610147053  0.2729149368390  0.6978046631217 1.0
C      1  0.8220093350883  0.4949689296599  0.7101613712756 1.0
C      1  0.7270878651984  0.7272590690617  0.6978000891735 1.0
C      1  0.5050297248024  0.8220125325757  0.7101606497978 1.0
C      1  0.2727371796072  0.7270869549110  0.6978019245416 1.0
C      1  0.1779892543574  0.5050255204252  0.7101703461782 1.0
C      1  0.2729160613873  0.2727351344928  0.6978071168572 1.0
C      1  0.7912052400854  0.5671613582552  0.3861671969194 1.0
C      1  0.6679807780381  0.8292952426069  0.3228545885092 1.0
C      1  0.4328379097916  0.7912115205011  0.3861646454397 1.0
C      1  0.1707079818050  0.6679742907246  0.3228548584443 1.0
C      1  0.2087882620755  0.4328365560678  0.3861677873773 1.0
C      1  0.3320400457764  0.1707067511650  0.3228556260887 1.0
C      1  0.5671633284206  0.2087934813322  0.3861712503153 1.0
C      1  0.8292952883597  0.3320302782749  0.3228501493859 1.0
C      1  0.8331756855719  0.4775067764183  0.4092092143592 1.0
C      1  0.7008294690290  0.7591731550539  0.2917414703034 1.0
C      1  0.5224927954539  0.8331742628432  0.4092134398922 1.0
C      1  0.2408297840917  0.7008315685105  0.2917432441884 1.0
C      1  0.1668206123482  0.5224911994569  0.4092151796592 1.0
C      1  0.2991754654048  0.2408277592049  0.2917419075834 1.0
C      1  0.4775089107172  0.1668181536243  0.4092141285344 1.0
C      1  0.7591737259096  0.2991768660472  0.2917366296881 1.0
C      1  0.4326889747981  0.6854063165728  0.7623346155099 1.0
C      1  0.3224301807633  0.5838892056032  0.7632733232320 1.0
C      1  0.3145931865283  0.4326882547632  0.7623382172052 1.0
C      1  0.4161110420269  0.3224314454608  0.7632760688881 1.0
C      1  0.5673101341668  0.3145951436930  0.7623379313095 1.0
C      1  0.6775670028206  0.4161123050592  0.7632720423065 1.0
C      1  0.6854038847943  0.5673096996767  0.7623336322163 1.0
C      1  0.5838874926382  0.6775685404745  0.7632697373444 1.0
END
