TITL C-32232-9915-37 -9.727 3375.00 -1495.66269019 0 0 180 (C1) n - 1
REM
REM Run started: at 2020.12.26 21:57:22 in /gpfs/home/chem/mssmkc/CARBON/AIRSS/Generating-Clusters/Str-Search/Higher-Symm/Only-C180
REM VASP from code version vasp.5.4.4.18Apr17-6-g9f103f2a35 (build Oct 11 2019 16:45:47) gamma-only
REM
REM
REM
REM
REM ./C.cell (73b75853f6e4503fb4b57bac71549d7d)
REM AIRSS Version 0.9.1 bugfix July 2018 build 013d7b7c2542+ Fri, 06 Jul 2018 19:26:36 +0100
REM compiler GCC version 6.3.0
REM options -cpp -iprefix /gpfs/warwick/csc/orac/software/Core/GCCcore/6.3.0/bin/../lib/gcc/x86_64-pc-linux-gnu/6.3.0/ -mtune=generic -march=x86-64 -g -O0
REM seed -2040173844 1349852580 1559590562 -587862925 -399015568 -1686559952 249079893 -47349938 1557125005 -1144850647 202503675 137077439
REM
REM C.POTCAR (d86ddea03c3ceb6dc662c8ad6801f873)
REM 
CELL 1.54180   15.00000   15.00000   15.00000   90.00000   90.00000   90.00000
LATT -1
SFAC C  
C      1  0.5297577204821  0.3439800101856  0.7891290288437 1.0
C      1  0.5922810382427  0.7114824989386  0.7292029399673 1.0
C      1  0.6032389761549  0.7846912162406  0.3702761276385 1.0
C      1  0.5621560184509  0.4512639488652  0.1737249150102 1.0
C      1  0.5110115324985  0.1685367146349  0.4401708124782 1.0
C      1  0.5598615362113  0.8025736053514  0.7650950512125 1.0
C      1  0.5623419766338  0.8603337676733  0.3102820192921 1.0
C      1  0.5125318495407  0.4209319376410  0.0862943535638 1.0
C      1  0.4533507783027  0.0845526923159  0.4390830956674 1.0
C      1  0.4809218605833  0.3416981576047  0.8802089058404 1.0
C      1  0.8135108313158  0.6208922767280  0.5620639559013 1.0
C      1  0.7969135033296  0.5588891958295  0.3401562138051 1.0
C      1  0.7807537457343  0.3445308403182  0.3660794827954 1.0
C      1  0.7557378972776  0.2764178486283  0.5631047505596 1.0
C      1  0.7831617275898  0.4504403848724  0.6878552061127 1.0
C      1  0.1677348652537  0.4909118270830  0.5597484711324 1.0
C      1  0.1809921117127  0.5848934721492  0.5712090382048 1.0
C      1  0.1873499622930  0.6252802821529  0.4838986322086 1.0
C      1  0.1781418708753  0.5561405625672  0.4168931075446 1.0
C      1  0.1660442800368  0.4735896351429  0.4641474648098 1.0
C      1  0.5745337734899  0.5239106879699  0.5793158723641 1.0
C      1  0.5832521314817  0.5731857722712  0.4892658007107 1.0
C      1  0.5725594514274  0.5020696046318  0.4138311278757 1.0
C      1  0.5592209289137  0.4087176282402  0.4577317520647 1.0
C      1  0.5589140767873  0.4226429382640  0.5611909281010 1.0
C      1  0.5336036219346  0.2627194096458  0.3022019991366 1.0
C      1  0.5168480438828  0.2433460440451  0.6531404818533 1.0
C      1  0.5663042193582  0.5540947373065  0.7822395930719 1.0
C      1  0.6059739696039  0.7958563832748  0.5270844567739 1.0
C      1  0.5812667548321  0.6262933029345  0.2262493496817 1.0
C      1  0.5634285958220  0.1841311984380  0.3520153263192 1.0
C      1  0.5447916318332  0.2500804673447  0.7495310987392 1.0
C      1  0.6092979744642  0.6419993115089  0.8030514974829 1.0
C      1  0.6601829470812  0.8100729236895  0.4485657084893 1.0
C      1  0.5750441182967  0.5479572389974  0.1473396363158 1.0
C      1  0.3569101153259  0.5161039627805  0.5747327160226 1.0
C      1  0.3689671340734  0.5935002033063  0.5224759527675 1.0
C      1  0.3676931837164  0.5666080509089  0.4314022394982 1.0
C      1  0.3545198544117  0.4735952466290  0.4276085837068 1.0
C      1  0.3481215723784  0.4423750597682  0.5169878584101 1.0
C      1  0.5555390902560  0.3811633948706  0.9276312170347 1.0
C      1  0.6337083797493  0.8525588076272  0.7276842145611 1.0
C      1  0.6190832590209  0.8301971901009  0.2374602194308 1.0
C      1  0.5686871019202  0.3989336903823  0.0188353312542 1.0
C      1  0.5167606840075  0.0288035299908  0.4888755688933 1.0
C      1  0.4038577317678  0.8628672761612  0.7678473017101 1.0
C      1  0.4072230537342  0.8877298959931  0.2626290509422 1.0
C      1  0.3351160402915  0.4139782936077  0.0396851033184 1.0
C      1  0.2881787130256  0.0869954457561  0.4770662831336 1.0
C      1  0.3244835097051  0.3802738573878  0.9396764101112 1.0
C      1  0.4372415343538  0.7174008972009  0.8223148779078 1.0
C      1  0.4415281502764  0.8988293524995  0.4171922621965 1.0
C      1  0.4064729098820  0.5413551083834  0.1179295625757 1.0
C      1  0.3426497865436  0.1597811710731  0.3488491420779 1.0
C      1  0.3650262032876  0.2758234876056  0.8027481770821 1.0
C      1  0.2330846720869  0.2357473987937  0.4514527187622 1.0
C      1  0.2586840260161  0.3960196028858  0.7798178341755 1.0
C      1  0.3085383292466  0.7454828239801  0.7159718016384 1.0
C      1  0.3162547671292  0.7997490167257  0.3625545092926 1.0
C      1  0.2739494928112  0.4835008436152  0.1882061132459 1.0
C      1  0.7955353640593  0.5225084867432  0.7448356911778 1.0
C      1  0.8331029562428  0.6964791026938  0.5100420917540 1.0
C      1  0.7718675546136  0.5374408280395  0.2489062563535 1.0
C      1  0.7673736827038  0.2499301791414  0.3588445734608 1.0
C      1  0.7486332104418  0.2452306017683  0.6496672960974 1.0
C      1  0.6789846228500  0.3204748523538  0.2497962999208 1.0
C      1  0.6325816848655  0.1721324997625  0.5647235225403 1.0
C      1  0.6751171792449  0.4392269703922  0.8008893277614 1.0
C      1  0.7288851071121  0.7389388782617  0.6224523476178 1.0
C      1  0.7128018817254  0.6777559601827  0.2857273558588 1.0
C      1  0.4841362234861  0.5656926216960  0.8251562171145 1.0
C      1  0.5250646970247  0.8456733560306  0.5387364359354 1.0
C      1  0.4912966118606  0.6554928629451  0.1971543903406 1.0
C      1  0.4440767029748  0.2549988540109  0.2727021012270 1.0
C      1  0.4288321050027  0.2158575169946  0.6660998470410 1.0
C      1  0.4517694314310  0.6377809647056  0.5481604945065 1.0
C      1  0.4492078145924  0.5972080902422  0.3876288667695 1.0
C      1  0.4255517640241  0.4317229398612  0.3768238483423 1.0
C      1  0.4120111234482  0.3711755098226  0.5329580074174 1.0
C      1  0.4282177792162  0.5002028525407  0.6388125282607 1.0
C      1  0.5042798914626  0.9308241130006  0.4870157041915 1.0
C      1  0.4847733387310  0.5900257471827  0.1301745569789 1.0
C      1  0.4129398215907  0.1667266938250  0.2884828896088 1.0
C      1  0.4318269181790  0.2223263185372  0.7618918275781 1.0
C      1  0.5016080970130  0.6555087802570  0.8520024686226 1.0
C      1  0.2800770565212  0.4239947416772  0.1131471028371 1.0
C      1  0.2339634043621  0.1496322089708  0.4893117234077 1.0
C      1  0.2727382312392  0.4127444244521  0.8724149142805 1.0
C      1  0.3341937778477  0.8344742980229  0.7317769811996 1.0
C      1  0.3398323956203  0.8422405253983  0.2819584769648 1.0
C      1  0.7327126997500  0.5213604120694  0.8200017804668 1.0
C      1  0.7873438327984  0.7741036789883  0.5448819473308 1.0
C      1  0.7309394768615  0.6137648791306  0.2055398265553 1.0
C      1  0.7094663924215  0.2260760352029  0.2845818297574 1.0
C      1  0.6758959180126  0.1798116554170  0.6604295806817 1.0
C      1  0.6684337729715  0.7736795725998  0.6927145591398 1.0
C      1  0.6605030170991  0.7633770583478  0.2870885256643 1.0
C      1  0.6567621567160  0.4069084103812  0.1872885378347 1.0
C      1  0.5641650143740  0.1140584165008  0.5122538109513 1.0
C      1  0.6017816037264  0.3917551425857  0.8462248064638 1.0
C      1  0.6307155815370  0.3682689251736  0.4026379356318 1.0
C      1  0.6226711732663  0.3472014643876  0.5716741008215 1.0
C      1  0.6473292729396  0.5019647189105  0.6425033399701 1.0
C      1  0.6649147533323  0.6216266548947  0.5182980037880 1.0
C      1  0.6510733827147  0.5405130757502  0.3691352194335 1.0
C      1  0.7523334088543  0.7929695979294  0.4555880847043 1.0
C      1  0.6500755946020  0.6078677814946  0.1593048729402 1.0
C      1  0.6568374254994  0.1713199439560  0.3461317292130 1.0
C      1  0.6445203125939  0.2234632064280  0.7407479625999 1.0
C      1  0.7097447094710  0.6146407303059  0.8097224952999 1.0
C      1  0.4447670218438  0.8001732727253  0.5698532767134 1.0
C      1  0.4205890501940  0.6794229413798  0.2506182093793 1.0
C      1  0.3773858181095  0.3247831452481  0.2691603928302 1.0
C      1  0.3560682724922  0.2402870338844  0.6107370352177 1.0
C      1  0.4001968728444  0.5327154330099  0.7965563533035 1.0
C      1  0.5103721556024  0.6381340134777  0.4620936595948 1.0
C      1  0.4932164215246  0.5073023383762  0.3521505391542 1.0
C      1  0.4696731051315  0.3627276792837  0.4453935701212 1.0
C      1  0.4726616663992  0.4081713005215  0.6119030791742 1.0
C      1  0.4987698959887  0.5771704784812  0.6205653710730 1.0
C      1  0.3298244606696  0.5633537218201  0.1747533270615 1.0
C      1  0.2808018766038  0.2337285789216  0.3658429524579 1.0
C      1  0.2908944731369  0.3099031827522  0.7458572838392 1.0
C      1  0.3508896754698  0.6865225467025  0.7817975607648 1.0
C      1  0.3656972549135  0.8430676635128  0.4359683865950 1.0
C      1  0.3611020579540  0.0914836460289  0.4180015887262 1.0
C      1  0.3907176951020  0.3249196844737  0.8865246053181 1.0
C      1  0.4732204570405  0.8068881698662  0.7980883070759 1.0
C      1  0.4781130626069  0.8991285413215  0.3249577966559 1.0
C      1  0.4185092113663  0.4550079831952  0.0743898062350 1.0
C      1  0.7851861187380  0.6578590234983  0.3510443944781 1.0
C      1  0.7555390746751  0.3749778091690  0.2796692260703 1.0
C      1  0.7109840062503  0.2044885240925  0.5081114802616 1.0
C      1  0.7334516453331  0.3809714996336  0.7436177375601 1.0
C      1  0.7788725154078  0.6567394594319  0.6493243934081 1.0
C      1  0.4202679143879  0.4652954465264  0.7313993269208 1.0
C      1  0.4651382311724  0.7151107226844  0.6089143036768 1.0
C      1  0.4576607066601  0.6839972745917  0.3399308540792 1.0
C      1  0.4241323633279  0.4073867598370  0.2798662568653 1.0
C      1  0.3952742460330  0.2726892519266  0.5284181529809 1.0
C      1  0.2678455882660  0.7076692802268  0.6362521313537 1.0
C      1  0.2691862553005  0.7167924394113  0.3765473391299 1.0
C      1  0.2360490890076  0.4752914789839  0.2811039117482 1.0
C      1  0.2120103662049  0.3207293044480  0.4927026274443 1.0
C      1  0.2327068892281  0.4635885652044  0.7108940010079 1.0
C      1  0.2181036158540  0.5599222745279  0.3299268940344 1.0
C      1  0.1962343124850  0.3922255893012  0.4276259363723 1.0
C      1  0.1984325051825  0.4288687112614  0.6248042298534 1.0
C      1  0.2264949200114  0.6202698051500  0.6464736095271 1.0
C      1  0.2401360712607  0.7018000935069  0.4684979587480 1.0
C      1  0.4993467806041  0.4554028115481  0.2579049394357 1.0
C      1  0.4614384249994  0.2565699562028  0.4663255562922 1.0
C      1  0.4778616285648  0.3964866299532  0.7183748237593 1.0
C      1  0.5240034373828  0.6717237712253  0.6633127652927 1.0
C      1  0.5295944413115  0.7131001299664  0.3905391375666 1.0
C      1  0.2234794789831  0.3408321391319  0.5900229755511 1.0
C      1  0.2550467656576  0.5588856055649  0.7172886646796 1.0
C      1  0.2848453284574  0.7436057028478  0.5460863037996 1.0
C      1  0.2672512821408  0.6424967542021  0.3104685197694 1.0
C      1  0.2359982496029  0.3932412879913  0.3362226026895 1.0
C      1  0.7200589049711  0.2916202775507  0.7308334138244 1.0
C      1  0.7745286321683  0.6173282765177  0.7314932043338 1.0
C      1  0.8055568641206  0.7161763576951  0.4182778095257 1.0
C      1  0.7358359820926  0.4500630394281  0.2281216111732 1.0
C      1  0.7218158842527  0.1895007261541  0.4196193629163 1.0
C      1  0.7251008174583  0.3994474870316  0.4331197753134 1.0
C      1  0.7184078365783  0.3726933993483  0.5397955171563 1.0
C      1  0.7328235184698  0.4661759511741  0.5969362964327 1.0
C      1  0.7472138764210  0.5525724490651  0.5238343445666 1.0
C      1  0.7401110715784  0.5121117861979  0.4174599702270 1.0
C      1  0.2825544341448  0.2878626484336  0.6503314235313 1.0
C      1  0.3286876569870  0.5922686178732  0.7759865490789 1.0
C      1  0.3597318362237  0.8046298289686  0.5252186633093 1.0
C      1  0.3333780099732  0.6362384603573  0.2378234037624 1.0
C      1  0.2925432640284  0.3147965613663  0.3141766953724 1.0
C      1  0.6359171625149  0.6127925365779  0.3123913476239 1.0
C      1  0.6064343026200  0.3303120986737  0.3216607310072 1.0
C      1  0.5837735195405  0.2635109084398  0.5846327288985 1.0
C      1  0.6208426046832  0.4925792443460  0.7298898697263 1.0
C      1  0.6538465179148  0.7057753162861  0.5574570808403 1.0
END
