TITL C-32449-6225-3 -0.946 3375.00 -148.65106315 0 0 19 (C1) n - 1
REM
REM Run started: at 2020.11.28 01:47:37 in /rds/project/t2_vol4/rds-t2-cs072/BORA/CARBON/AIRSS/Generating-Clusters/Str-Search/Higher-Symm
REM VASP from code version vasp.5.4.4.18Apr17-6-g9f103f2a35 (build Oct 11 2019 16:45:47) gamma-only
REM
REM
REM
REM
REM ./C.cell (e5ae0387ce4d49c7c0135a1433873289)
REM AIRSS Version 0.9.1 bugfix July 2018 build 013d7b7c2542+ Fri, 06 Jul 2018 19:26:36 +0100
REM compiler GCC version 4.8.5 20150623 (Red Hat 4.8.5-39)
REM options -cpp -mtune=generic -march=x86-64 -g -O0
REM seed -766999462 -162255180 98561824 2024095497 223057503 1850944423 -13617011 -1321207965 -1139427337 -245525751 406343767 -1615054785
REM
REM C.POTCAR (d86ddea03c3ceb6dc662c8ad6801f873)
REM 
CELL 1.54180   15.00000   15.00000   15.00000   90.00000   90.00000   90.00000
LATT -1
SFAC C  
C      1  0.6370123850030  0.6099860328840  0.5283403349255 1.0
C      1  0.6568205622491  0.4701561679844  0.4549944762823 1.0
C      1  0.5573868642692  0.3360604720619  0.5237488572079 1.0
C      1  0.4089153351124  0.3756167707197  0.4799085136357 1.0
C      1  0.3570347245006  0.5373887656818  0.5354165534555 1.0
C      1  0.4641266501772  0.6381616597481  0.5415909183970 1.0
C      1  0.3963279622282  0.6127383597814  0.4771064879634 1.0
C      1  0.3561991569295  0.4606933375884  0.4824479555824 1.0
C      1  0.4724127662538  0.3367177806370  0.5328607077533 1.0
C      1  0.6037508022347  0.3838122939111  0.4603239968056 1.0
C      1  0.6766713887804  0.5350431545229  0.5143940645749 1.0
C      1  0.5523021009131  0.6258517078843  0.4967610874571 1.0
C      1  0.5444510837503  0.4139278463841  0.3887225688108 1.0
C      1  0.4513691269087  0.4051942970011  0.3942417955589 1.0
C      1  0.3992007959824  0.4855354812424  0.3941118987442 1.0
C      1  0.5881560535374  0.5023336951409  0.3912741023170 1.0
C      1  0.5351484000349  0.5781632266905  0.4102880702802 1.0
C      1  0.4388842247396  0.5701192974421  0.4005439142007 1.0
C      1  0.4337863163955  0.5596508526939  0.5909872960476 1.0
END
