TITL C-32361-6883-12 -8.884 3375.00 -1398.88517640 0 0 169 (C1) n - 1
REM
REM Run started: at 2020.12.22 07:08:20 in /gpfs/home/chem/mssmkc/CARBON/AIRSS/Generating-Clusters/Str-Search/Higher-Symm/C100-200
REM VASP from code version vasp.5.4.4.18Apr17-6-g9f103f2a35 (build Oct 11 2019 16:45:47) gamma-only
REM
REM
REM
REM
REM ./C.cell (533062f00bc710175b3da973d35f2034)
REM AIRSS Version 0.9.1 bugfix July 2018 build 013d7b7c2542+ Fri, 06 Jul 2018 19:26:36 +0100
REM compiler GCC version 6.3.0
REM options -cpp -iprefix /gpfs/warwick/csc/orac/software/Core/GCCcore/6.3.0/bin/../lib/gcc/x86_64-pc-linux-gnu/6.3.0/ -mtune=generic -march=x86-64 -g -O0
REM seed -2021513758 -282654493 -2123101825 -588487131 1933532867 -1860978673 -620101153 1188471659 1691149321 -273409231 -773297451 1444504804
REM
REM C.POTCAR (d86ddea03c3ceb6dc662c8ad6801f873)
REM 
CELL 1.54180   15.00000   15.00000   15.00000   90.00000   90.00000   90.00000
LATT -1
SFAC C  
C      1  0.5881851438628  0.7184945161244  0.7853956812605 1.0
C      1  0.3227105443660  0.7243358586659  0.7368380202594 1.0
C      1  0.2191898334580  0.6880240079781  0.5214653826082 1.0
C      1  0.2827370878622  0.6849110519734  0.2750906407180 1.0
C      1  0.5496048906650  0.7149125483883  0.2387604626675 1.0
C      1  0.7837815100542  0.7208685355545  0.3422071234997 1.0
C      1  0.7537559427141  0.7089784259320  0.6017514887495 1.0
C      1  0.8123062327733  0.4179398407365  0.2754120948082 1.0
C      1  0.8781809325345  0.4342049676924  0.5937131708367 1.0
C      1  0.6509115202001  0.4206768173301  0.8418001213414 1.0
C      1  0.3318865737268  0.4267487306293  0.8315275458014 1.0
C      1  0.0977181218253  0.4301977803771  0.6178961384326 1.0
C      1  0.2067216062137  0.3835265594668  0.2069732955381 1.0
C      1  0.5293968227056  0.4309480817954  0.1220767708018 1.0
C      1  0.6029266192965  0.7888198305419  0.4672497305121 1.0
C      1  0.5964279188184  0.7739274620732  0.5655733126340 1.0
C      1  0.5069474527848  0.7794474419803  0.6172375907401 1.0
C      1  0.4029941950021  0.7793619078314  0.6023790430252 1.0
C      1  0.3705948190759  0.7742549488921  0.4991963559710 1.0
C      1  0.4341114922784  0.7817313737937  0.4140938916704 1.0
C      1  0.5374814874989  0.7833083836359  0.3922583031755 1.0
C      1  0.2867155729107  0.3081627507772  0.5295417954925 1.0
C      1  0.3553176027976  0.2830064785453  0.3548259138296 1.0
C      1  0.5178405599450  0.2780004371572  0.2926150976629 1.0
C      1  0.6712020554431  0.2700736529619  0.3793896280961 1.0
C      1  0.7033877895329  0.2774394239188  0.5537388405718 1.0
C      1  0.5822594610592  0.2697368181945  0.6830301350330 1.0
C      1  0.4057728191643  0.2750473022093  0.6756511612650 1.0
C      1  0.1896324815293  0.5823043479167  0.3515560043228 1.0
C      1  0.4319892579908  0.6431428668327  0.1622585020589 1.0
C      1  0.7359107972461  0.6346443148866  0.2241282179018 1.0
C      1  0.8536079182110  0.6459984415495  0.5064513848012 1.0
C      1  0.7153747509653  0.6359992151629  0.7797413199152 1.0
C      1  0.4124345542205  0.6497733275759  0.8370323348249 1.0
C      1  0.1673949230419  0.6322860180748  0.6495507169628 1.0
C      1  0.4153223444970  0.4398321285689  0.4259369817208 1.0
C      1  0.5162701456376  0.4389565643156  0.3862011817723 1.0
C      1  0.5915014565246  0.4702708342567  0.4398210834310 1.0
C      1  0.6123919669540  0.4391064758063  0.5310461245640 1.0
C      1  0.5375823385187  0.4744986059106  0.5915488529723 1.0
C      1  0.4410465454935  0.4627715619686  0.5966751297249 1.0
C      1  0.3856844398614  0.4636980903713  0.5229032781896 1.0
C      1  0.3632723467250  0.3184850552143  0.2603734761234 1.0
C      1  0.5943384141615  0.3189715202180  0.2403121140736 1.0
C      1  0.7583055048856  0.3168992846194  0.4064593986670 1.0
C      1  0.7364036129728  0.3231776005674  0.6380663946853 1.0
C      1  0.5391704314330  0.3173833858087  0.7615331712467 1.0
C      1  0.3176129487441  0.3230379285865  0.6918605213643 1.0
C      1  0.2464178608863  0.3656567678545  0.4494261266573 1.0
C      1  0.4225741227983  0.6953546569211  0.3546884562955 1.0
C      1  0.5217617141854  0.6940200231614  0.3363872091193 1.0
C      1  0.6702498532511  0.7154555387186  0.4545521390152 1.0
C      1  0.6619707801602  0.6887234289338  0.5492302221170 1.0
C      1  0.5321732202131  0.7283233410027  0.7002685553673 1.0
C      1  0.3765479082552  0.6988219169192  0.6583478378820 1.0
C      1  0.3200484545574  0.6846537070123  0.4960020902859 1.0
C      1  0.3299299413546  0.5981167441297  0.8309367313977 1.0
C      1  0.1106162189073  0.5827443047362  0.5830704045046 1.0
C      1  0.2186453936236  0.5436109583540  0.2681751622316 1.0
C      1  0.5146608843938  0.6005871870099  0.1310185186274 1.0
C      1  0.8078626598145  0.5883413576745  0.2667490011833 1.0
C      1  0.8745254027361  0.5946673341886  0.5895371897989 1.0
C      1  0.6559971948271  0.5890908873067  0.8417567978000 1.0
C      1  0.6043650354797  0.0573811127082  0.4781736731246 1.0
C      1  0.5763222952249  0.0587105593326  0.5677792335604 1.0
C      1  0.4886465577799  0.0595673890721  0.6050585392325 1.0
C      1  0.4058653866594  0.0707860246527  0.5562927385567 1.0
C      1  0.3918190619076  0.0721114642025  0.4638457137994 1.0
C      1  0.4550913687027  0.0620910176371  0.3923404905380 1.0
C      1  0.5499512720056  0.0594785716009  0.4007108133472 1.0
C      1  0.7100791772346  0.7673623247196  0.6778269483808 1.0
C      1  0.5028730200366  0.7786706066954  0.7766030172896 1.0
C      1  0.2659260249974  0.7756147337587  0.6622504903262 1.0
C      1  0.2442239774305  0.7239895370718  0.4303511903970 1.0
C      1  0.3674658685292  0.7388175857780  0.2813971779696 1.0
C      1  0.6378959545201  0.7666598837428  0.2671775550540 1.0
C      1  0.7557593489322  0.7598628079335  0.4291299659922 1.0
C      1  0.5140975905332  0.3275239174453  0.3846345198471 1.0
C      1  0.5931035109360  0.3020738844574  0.4344816074403 1.0
C      1  0.6124578834819  0.3268342501534  0.5278257596188 1.0
C      1  0.5428767934724  0.2979563312678  0.5934704204684 1.0
C      1  0.4519159725461  0.2980699225527  0.5888082837644 1.0
C      1  0.3894937561073  0.2950150646076  0.5140260803126 1.0
C      1  0.4168773152377  0.3299392400904  0.4224017171224 1.0
C      1  0.8214205513959  0.4984905780840  0.2594779960478 1.0
C      1  0.9350519077968  0.5067987329130  0.5954995272705 1.0
C      1  0.6624172382271  0.4992101621705  0.8621326214604 1.0
C      1  0.3252135042796  0.5066113610157  0.8495359129811 1.0
C      1  0.0416489217720  0.5052471575883  0.6000791634324 1.0
C      1  0.1996860507421  0.4633944374246  0.2320563057189 1.0
C      1  0.5210847872645  0.5106130921754  0.1035062928185 1.0
C      1  0.4257049484818  0.5200138895715  0.2710266380110 1.0
C      1  0.6277202656988  0.5261864694563  0.2889861934250 1.0
C      1  0.7447320165243  0.5324615268778  0.4530910536138 1.0
C      1  0.6769274657638  0.5317009999813  0.6574443629729 1.0
C      1  0.4868233940589  0.5379326050261  0.7371950225547 1.0
C      1  0.2963435715912  0.5207376584809  0.6450380932407 1.0
C      1  0.2284046192250  0.4585579788550  0.4763865754657 1.0
C      1  0.4066109931620  0.1766860105356  0.6676114217181 1.0
C      1  0.3238345019813  0.2079448969979  0.5213303563018 1.0
C      1  0.3612050894461  0.1852053047128  0.3627934386495 1.0
C      1  0.5153024731733  0.1786057129682  0.3049954766703 1.0
C      1  0.6594717964264  0.1718162632923  0.3863192528888 1.0
C      1  0.6851818838462  0.1758928584824  0.5503605610737 1.0
C      1  0.5738562147559  0.1705555550032  0.6763582114167 1.0
C      1  0.7406025978261  0.5815150155831  0.7017651022163 1.0
C      1  0.4898547186389  0.5931148085436  0.8126645457443 1.0
C      1  0.2378940261528  0.5837130272987  0.6928558608867 1.0
C      1  0.1867044994530  0.5391675751868  0.4368766378014 1.0
C      1  0.3788545735372  0.5743652301050  0.2099601183232 1.0
C      1  0.6535401010032  0.5854620264125  0.2217594062074 1.0
C      1  0.8159611194329  0.5908815120200  0.4346768566141 1.0
C      1  0.6736586119946  0.1289569464267  0.4689654991191 1.0
C      1  0.6297255383889  0.1292204849219  0.6131179154732 1.0
C      1  0.4884157545585  0.1269315601069  0.6753707439938 1.0
C      1  0.3569004037114  0.1458874416365  0.5952297841466 1.0
C      1  0.3339354398679  0.1486764954568  0.4429897876038 1.0
C      1  0.4353463273558  0.1352978952935  0.3303858565799 1.0
C      1  0.5870763428208  0.1295880251618  0.3419265840494 1.0
C      1  0.3576187417070  0.3569296064946  0.7760457530173 1.0
C      1  0.1666014830382  0.3819761509500  0.6286062386232 1.0
C      1  0.2704916027537  0.3460001344388  0.2668326368272 1.0
C      1  0.5279497290603  0.3571113467393  0.1791282468204 1.0
C      1  0.7620397680705  0.3520538139417  0.3135049428585 1.0
C      1  0.8126338521862  0.3711906765018  0.5817330276344 1.0
C      1  0.6256170877059  0.3528300795011  0.7852181030951 1.0
C      1  0.5464588969091  0.8312955766492  0.6929346362936 1.0
C      1  0.3256371756143  0.8421669109233  0.6240615991188 1.0
C      1  0.2993517398718  0.8066352531819  0.4252254174058 1.0
C      1  0.3598193588781  0.8137372040901  0.3541005255315 1.0
C      1  0.6201182638111  0.8244588551650  0.3385431690513 1.0
C      1  0.6789657667026  0.8326912216562  0.4183076957357 1.0
C      1  0.6398521953244  0.8199944579205  0.6477316312126 1.0
C      1  0.4205165648564  0.6017298498849  0.3984775824281 1.0
C      1  0.5231955481708  0.5984663926673  0.3751539455272 1.0
C      1  0.5941804316555  0.5706926311743  0.4371848664283 1.0
C      1  0.6218756173006  0.5961068263860  0.5305381999855 1.0
C      1  0.5421089744731  0.5761819715916  0.5814177127549 1.0
C      1  0.4059282102353  0.6176857204138  0.6374220286142 1.0
C      1  0.3983564469113  0.6211486468342  0.4897209706969 1.0
C      1  0.2015527690666  0.7197971277544  0.6190368331828 1.0
C      1  0.2235368399631  0.6737919468357  0.3494741187192 1.0
C      1  0.4404395858396  0.7253825948240  0.2046204588683 1.0
C      1  0.7236151383096  0.7219742962517  0.2633890306610 1.0
C      1  0.8108551765398  0.7299753600741  0.5138236022063 1.0
C      1  0.6889074943648  0.7242614133160  0.7617150489507 1.0
C      1  0.4078235123945  0.7376800796127  0.8027700625545 1.0
C      1  0.2807912706782  0.6361741568390  0.7631637054029 1.0
C      1  0.1652191187190  0.6015227571312  0.5101448182909 1.0
C      1  0.2888770267128  0.5996713817104  0.2350938223479 1.0
C      1  0.5782534358810  0.6349548936096  0.1858297788838 1.0
C      1  0.8241761846929  0.6364999341926  0.3475844317294 1.0
C      1  0.8022955950788  0.6241140343732  0.6390566903069 1.0
C      1  0.5758758991196  0.6322130335655  0.8299877697021 1.0
C      1  0.4516819860131  0.3197399465239  0.2285150441236 1.0
C      1  0.6756853435053  0.3150695414648  0.2879947329501 1.0
C      1  0.7750327569877  0.3233413411409  0.4975989818433 1.0
C      1  0.6717042363576  0.3167941606538  0.7051131806242 1.0
C      1  0.4447428358128  0.3192432629208  0.7578768598281 1.0
C      1  0.2525810846632  0.3369405890576  0.6248554843925 1.0
C      1  0.2661824376498  0.3303838531891  0.3625331318063 1.0
C      1  0.5688416022873  0.5287005511806  0.6704638913652 1.0
C      1  0.4028770045499  0.5211567152535  0.6702518214294 1.0
C      1  0.2940180554114  0.4844946402686  0.5520808041135 1.0
C      1  0.3825330774041  0.5134507372243  0.3611900916122 1.0
C      1  0.5246204412652  0.5148436294987  0.3093890103466 1.0
C      1  0.6655368588142  0.5171013354542  0.3872405491988 1.0
C      1  0.6841778843838  0.5160846080503  0.5519139837855 1.0
C      1  0.4576680720407  0.6188642683847  0.5595166498716 1.0
END
