TITL C-32399-6830-19 -6.06 3375.00 -1066.26458213 0 0 132 (C1) n - 1
REM
REM Run started: at 2020.12.22 12:36:12 in /gpfs/home/chem/mssmkc/CARBON/AIRSS/Generating-Clusters/Str-Search/Higher-Symm/C100-200
REM VASP from code version vasp.5.4.4.18Apr17-6-g9f103f2a35 (build Oct 11 2019 16:45:47) gamma-only
REM
REM
REM
REM
REM ./C.cell (533062f00bc710175b3da973d35f2034)
REM AIRSS Version 0.9.1 bugfix July 2018 build 013d7b7c2542+ Fri, 06 Jul 2018 19:26:36 +0100
REM compiler GCC version 6.3.0
REM options -cpp -iprefix /gpfs/warwick/csc/orac/software/Core/GCCcore/6.3.0/bin/../lib/gcc/x86_64-pc-linux-gnu/6.3.0/ -mtune=generic -march=x86-64 -g -O0
REM seed 763402594 -1374073151 1637267157 -2075435113 166818080 602577449 -1532344137 -1723680185 808898158 173435630 -1335347105 2126697347
REM
REM C.POTCAR (d86ddea03c3ceb6dc662c8ad6801f873)
REM 
CELL 1.54180   15.00000   15.00000   15.00000   90.00000   90.00000   90.00000
LATT -1
SFAC C  
C      1  0.4038188789716  0.4462972871909  0.1892233125795 1.0
C      1  0.4010054945729  0.5562273418036  0.1880787250298 1.0
C      1  0.5506735373004  0.7811531740605  0.6111705129714 1.0
C      1  0.5681389985149  0.2306538305101  0.6037600736491 1.0
C      1  0.6557063030425  0.5796148647990  0.6385869559370 1.0
C      1  0.6705793499670  0.4364336300941  0.5839315359331 1.0
C      1  0.5197215600581  0.6519782042729  0.2667606246824 1.0
C      1  0.5260555158864  0.3522368001445  0.2665430677255 1.0
C      1  0.5592371476609  0.1926177415224  0.4502199246542 1.0
C      1  0.5474679983148  0.8105199594873  0.4549210810099 1.0
C      1  0.6359424153539  0.7823041343757  0.4854729480527 1.0
C      1  0.6504241640644  0.2214296150546  0.4772189022606 1.0
C      1  0.2583763184001  0.6201607794047  0.2220036573554 1.0
C      1  0.2624503434115  0.3746312972730  0.2240656437350 1.0
C      1  0.3974420038517  0.7585758593805  0.6412656770183 1.0
C      1  0.4180344055728  0.2478015345270  0.6393526229664 1.0
C      1  0.6189614331940  0.6637178602734  0.2859544208106 1.0
C      1  0.6252746288493  0.3407146689486  0.2832393566835 1.0
C      1  0.3924733798989  0.4224731857180  0.4883058663966 1.0
C      1  0.3891489158162  0.5793824945156  0.4869867204924 1.0
C      1  0.3890567604592  0.2563414278435  0.3103778712125 1.0
C      1  0.3802932082992  0.7435430994574  0.3100922493838 1.0
C      1  0.6801496558246  0.6662250760973  0.5905233411026 1.0
C      1  0.7043674789171  0.3402308465416  0.5734747764719 1.0
C      1  0.8366497802244  0.5911767848029  0.6725879701832 1.0
C      1  0.8268850841462  0.4119637611057  0.6558998773211 1.0
C      1  0.4191292780247  0.2055294938477  0.5541851421780 1.0
C      1  0.4029347286325  0.7969615935926  0.5537956689144 1.0
C      1  0.5421242593230  0.5822580053380  0.7581455110187 1.0
C      1  0.5847055031414  0.4480702507498  0.8373492246390 1.0
C      1  0.7626022397159  0.6446285471810  0.5317121095564 1.0
C      1  0.7844471166437  0.3453761387388  0.5144251155762 1.0
C      1  0.5558945711219  0.4195169940902  0.4307861475283 1.0
C      1  0.5531923171701  0.5840161780187  0.4298474229799 1.0
C      1  0.4915681609988  0.4014773051660  0.3590816064744 1.0
C      1  0.4880227191817  0.6005738927006  0.3580571846914 1.0
C      1  0.4947306639903  0.8170989625642  0.5336653309389 1.0
C      1  0.5106265321103  0.1869731553910  0.5313396011734 1.0
C      1  0.4549738777313  0.4151133676858  0.5735824918268 1.0
C      1  0.4485114620344  0.5930109825945  0.5723785775065 1.0
C      1  0.2146987551813  0.5628346978940  0.7276910597661 1.0
C      1  0.2208659556445  0.4267465715605  0.7269908771136 1.0
C      1  0.6493957181195  0.2634683442750  0.5613890032211 1.0
C      1  0.6332180423164  0.7441854533147  0.5735105760153 1.0
C      1  0.7694784489453  0.3900350548302  0.3473443881132 1.0
C      1  0.7585330883781  0.6135641137329  0.3594778719403 1.0
C      1  0.8419788323120  0.4081524455996  0.5626833238892 1.0
C      1  0.8318458946481  0.6462200387316  0.6091567318761 1.0
C      1  0.2284215583360  0.4177545784036  0.1571575031882 1.0
C      1  0.2233376059788  0.5802938974370  0.1525688597267 1.0
C      1  0.5001738256284  0.6278741159503  0.4938070143186 1.0
C      1  0.5058984088562  0.3770047988145  0.4960633125360 1.0
C      1  0.4855740981982  0.7391027124437  0.6756824697675 1.0
C      1  0.5060061219572  0.2720632604498  0.6709767633201 1.0
C      1  0.3593014891789  0.6329145545534  0.7254128850259 1.0
C      1  0.3716641884473  0.3679136064636  0.7247145807457 1.0
C      1  0.6350192399244  0.2617443045710  0.3346003230185 1.0
C      1  0.6259687045615  0.7414788076335  0.3403762576260 1.0
C      1  0.8330600754199  0.4567450858747  0.3493186641335 1.0
C      1  0.8247361264989  0.5504645509635  0.3589667616546 1.0
C      1  0.2780027890095  0.2868914616642  0.5320505432676 1.0
C      1  0.2676992248994  0.7054504693279  0.5308006528150 1.0
C      1  0.4251135947361  0.6492973216871  0.4284333457846 1.0
C      1  0.4309284509485  0.3519981913061  0.4309082053348 1.0
C      1  0.5405193081320  0.7803372567446  0.3589662380497 1.0
C      1  0.5495402923876  0.2220674006660  0.3557749209016 1.0
C      1  0.4355121720691  0.3452314748303  0.6517972842215 1.0
C      1  0.4214338724702  0.6619551533138  0.6527057636131 1.0
C      1  0.3411323170071  0.5760010271425  0.2674075623217 1.0
C      1  0.3445146592670  0.4225855241702  0.2686557731835 1.0
C      1  0.4001798462401  0.4210165787532  0.8014724215133 1.0
C      1  0.3891529936498  0.5819633696973  0.8049913752822 1.0
C      1  0.5006766816652  0.4245589512673  0.1944403530609 1.0
C      1  0.4946516503900  0.5834020171826  0.1912842767729 1.0
C      1  0.6858498779817  0.4487212982212  0.8421501468524 1.0
C      1  0.6375894234565  0.5598849982702  0.7341303992742 1.0
C      1  0.2739911803662  0.6724318336271  0.3840137719341 1.0
C      1  0.2814725424819  0.3220553158301  0.3861624794932 1.0
C      1  0.3357091178704  0.7659198479648  0.4977945979943 1.0
C      1  0.3482149218389  0.2301168687756  0.4991096024703 1.0
C      1  0.6362825439608  0.1635808253717  0.7210434703371 1.0
C      1  0.6044158672799  0.8599301093101  0.7174579735459 1.0
C      1  0.2687226510966  0.6307030878402  0.6931068783579 1.0
C      1  0.2801185538051  0.3630164704200  0.6930334569675 1.0
C      1  0.2371397459166  0.3444475467374  0.4633110060339 1.0
C      1  0.2311969486526  0.6460545405753  0.4610546779555 1.0
C      1  0.4818661800454  0.4210638381030  0.8573740207759 1.0
C      1  0.4801339440664  0.5795970613718  0.8349180941515 1.0
C      1  0.6861394473547  0.7427884144332  0.4166352389527 1.0
C      1  0.6986665798536  0.2585609062511  0.4059590817143 1.0
C      1  0.6795459749643  0.5955752477308  0.3026244381416 1.0
C      1  0.6854571175953  0.4094978744202  0.2992387692786 1.0
C      1  0.2408520714325  0.6526781671461  0.6026256398751 1.0
C      1  0.2507736785692  0.3389767889600  0.6040213211688 1.0
C      1  0.5470804548929  0.7949934498596  0.7221882719311 1.0
C      1  0.5721726128212  0.2216788071177  0.7169568205714 1.0
C      1  0.2063013765916  0.4094357686566  0.5405344245839 1.0
C      1  0.2020098834600  0.5795096425296  0.5390777487053 1.0
C      1  0.7653666768716  0.3237558026049  0.4198989125852 1.0
C      1  0.7505753883410  0.6778349374954  0.4327466611306 1.0
C      1  0.3645465672990  0.2691099727885  0.4090318210211 1.0
C      1  0.3545047204571  0.7289626245561  0.4078089631366 1.0
C      1  0.3068308200162  0.6695812572552  0.2897006185430 1.0
C      1  0.3135067102147  0.3282612244538  0.2918059070655 1.0
C      1  0.4733139261983  0.7412176192745  0.2967011621698 1.0
C      1  0.4812888432603  0.2614395666473  0.2953195542539 1.0
C      1  0.5532882693220  0.5075635393826  0.1648991813273 1.0
C      1  0.7592116582145  0.5422898062401  0.5306018085530 1.0
C      1  0.5490956371583  0.4997023172841  0.2610082793922 1.0
C      1  0.5120264220665  0.5035092948150  0.8866220883419 1.0
C      1  0.3682883354554  0.4998348556117  0.4420021807377 1.0
C      1  0.7293838013517  0.5127361666615  0.6213165065959 1.0
C      1  0.1836903799735  0.4937955777492  0.6611788184303 1.0
C      1  0.3399909407850  0.4985736312069  0.8185186974637 1.0
C      1  0.2624876901333  0.4988202693457  0.1243294444246 1.0
C      1  0.7942266063941  0.5015629755736  0.6987688864365 1.0
C      1  0.6401360939322  0.5010114638726  0.3138012084262 1.0
C      1  0.5769019752281  0.4808566875753  0.7443571905080 1.0
C      1  0.2524721451169  0.4954607738972  0.7843217063454 1.0
C      1  0.6010298359327  0.5118809275509  0.5815665460059 1.0
C      1  0.3655109793938  0.4997723423999  0.3321765996680 1.0
C      1  0.3591230349704  0.4988985104625  0.1186047703582 1.0
C      1  0.5013900993612  0.5116228649896  0.7004143807560 1.0
C      1  0.8748424301213  0.5007456560167  0.4231466678248 1.0
C      1  0.2450356326394  0.4958760344266  0.5722951222325 1.0
C      1  0.8419398105474  0.4886456075915  0.5085446633315 1.0
C      1  0.1387230173214  0.4920392052236  0.5716662301994 1.0
C      1  0.7235305261593  0.5020267884356  0.7796575955317 1.0
C      1  0.6691765162839  0.4993492727992  0.5013284982137 1.0
C      1  0.4674226171649  0.5011942860825  0.3305021786895 1.0
C      1  0.6119941318078  0.5011061298211  0.4205095180291 1.0
C      1  0.4961372423574  0.5067804822720  0.6035962074653 1.0
END
