TITL C-32399-6830-5 -5.809 3375.00 -1015.23149977 0 0 123 (C1) n - 1
REM
REM Run started: at 2020.12.21 22:58:05 in /gpfs/home/chem/mssmkc/CARBON/AIRSS/Generating-Clusters/Str-Search/Higher-Symm/C100-200
REM VASP from code version vasp.5.4.4.18Apr17-6-g9f103f2a35 (build Oct 11 2019 16:45:47) gamma-only
REM
REM
REM
REM
REM ./C.cell (533062f00bc710175b3da973d35f2034)
REM AIRSS Version 0.9.1 bugfix July 2018 build 013d7b7c2542+ Fri, 06 Jul 2018 19:26:36 +0100
REM compiler GCC version 6.3.0
REM options -cpp -iprefix /gpfs/warwick/csc/orac/software/Core/GCCcore/6.3.0/bin/../lib/gcc/x86_64-pc-linux-gnu/6.3.0/ -mtune=generic -march=x86-64 -g -O0
REM seed 1479203793 1512218501 1790231170 363121425 -1906968103 1366865542 1412810511 -2023895597 1844325382 1180784189 1044749738 295720345
REM
REM C.POTCAR (d86ddea03c3ceb6dc662c8ad6801f873)
REM 
CELL 1.54180   15.00000   15.00000   15.00000   90.00000   90.00000   90.00000
LATT -1
SFAC C  
C      1  0.4436929734383  0.1926411940197  0.6525613273971 1.0
C      1  0.4485024519159  0.5181792650894  0.1596658353206 1.0
C      1  0.4479186402187  0.7896966709111  0.6849574429019 1.0
C      1  0.5436846710349  0.1943109340803  0.6560145027404 1.0
C      1  0.5484332266898  0.5157056224018  0.1601301518247 1.0
C      1  0.5476879113998  0.7893591260090  0.6809290002204 1.0
C      1  0.3923924850982  0.1895722386979  0.5725620474192 1.0
C      1  0.3952725583070  0.5892740002990  0.1935942767750 1.0
C      1  0.3944664395165  0.7249120165284  0.7307155009243 1.0
C      1  0.6003436728646  0.1902078709718  0.5801872210347 1.0
C      1  0.6038317813977  0.5857858614819  0.1914804709223 1.0
C      1  0.6034874914548  0.7264398792195  0.7247900997525 1.0
C      1  0.4548738518428  0.1609391366240  0.4070167226044 1.0
C      1  0.4535177919910  0.7456874161321  0.2541383791243 1.0
C      1  0.4569490472540  0.5902403419352  0.8281084736318 1.0
C      1  0.5541379499262  0.1567792927846  0.4147718207054 1.0
C      1  0.5527117723642  0.7423914522695  0.2478437204825 1.0
C      1  0.5542677933116  0.6000589035282  0.8290652355092 1.0
C      1  0.4073972050217  0.8147100979955  0.5166703802193 1.0
C      1  0.4000043749929  0.3227444345816  0.7609692354961 1.0
C      1  0.4099777831952  0.3596960778513  0.2224400483770 1.0
C      1  0.5755216318853  0.8076625136150  0.5120519887221 1.0
C      1  0.5678083890227  0.3301972219572  0.7591382988178 1.0
C      1  0.5780138157610  0.3584298882724  0.2291975414399 1.0
C      1  0.6854868495633  0.6782383836889  0.6935214523451 1.0
C      1  0.6846590781331  0.2413569798209  0.5586884076430 1.0
C      1  0.6878080420663  0.5801947019053  0.2465800388523 1.0
C      1  0.3083651817497  0.6815041401625  0.7004868103697 1.0
C      1  0.3074477785410  0.2412263313111  0.5522538884178 1.0
C      1  0.3112829610258  0.5828164366790  0.2493380079462 1.0
C      1  0.8490476322228  0.4459798758909  0.5147945654424 1.0
C      1  0.8472895300617  0.5149488158408  0.4504644203925 1.0
C      1  0.8502492786251  0.5404117502244  0.5424592335052 1.0
C      1  0.1579368359369  0.4488125816689  0.5113062130443 1.0
C      1  0.1638761887183  0.5200981854367  0.4503754683861 1.0
C      1  0.1576007326645  0.5405667691318  0.5436043908281 1.0
C      1  0.5479280330121  0.1536815221765  0.5102509144147 1.0
C      1  0.5497023109206  0.6637369502815  0.1939385460515 1.0
C      1  0.5499321601602  0.6869565806777  0.7921133528027 1.0
C      1  0.4475037998484  0.1547183990521  0.5043984772582 1.0
C      1  0.4488767513787  0.6665431345370  0.1975217182826 1.0
C      1  0.4493085604132  0.6813339096075  0.7925597579436 1.0
C      1  0.2681519761626  0.6634227415501  0.2659566954604 1.0
C      1  0.2705562571647  0.6230986150796  0.7626923899954 1.0
C      1  0.2655465906136  0.2160558844569  0.4728354953257 1.0
C      1  0.7256862041557  0.6620535420005  0.2672112748479 1.0
C      1  0.7194741273070  0.6163525270466  0.7543266918012 1.0
C      1  0.7239825662298  0.2196159783120  0.4782132393720 1.0
C      1  0.6388614958405  0.3988601684666  0.7342078412705 1.0
C      1  0.6643236424413  0.3460763772299  0.2774968529858 1.0
C      1  0.6614462917776  0.7700307356973  0.4782763393821 1.0
C      1  0.3267954599029  0.3865345240800  0.7404082920224 1.0
C      1  0.3311059997288  0.3470464426585  0.2807964688709 1.0
C      1  0.3275737754273  0.7707264210350  0.4779088743093 1.0
C      1  0.2948714106857  0.4724543339844  0.5894091362406 1.0
C      1  0.2962295985294  0.4327007765742  0.4309097463579 1.0
C      1  0.2941363504040  0.5989828165086  0.4857525913261 1.0
C      1  0.7125714388181  0.4743482677849  0.5899401927345 1.0
C      1  0.7142643568088  0.4335990369457  0.4289708632382 1.0
C      1  0.7134831852573  0.5945651311764  0.4758949703495 1.0
C      1  0.4367924169652  0.2406561625160  0.7340683379438 1.0
C      1  0.4453645515270  0.4236025986324  0.1649499092112 1.0
C      1  0.4434884853101  0.8332812157810  0.6008535948814 1.0
C      1  0.5398328951212  0.2449623250926  0.7356903110609 1.0
C      1  0.5468564399574  0.4214092698870  0.1674172335499 1.0
C      1  0.5451359163702  0.8323640792104  0.5965948395315 1.0
C      1  0.6766264585415  0.7841158007234  0.3842274516211 1.0
C      1  0.6779639891829  0.4577415916736  0.8162354782427 1.0
C      1  0.6804501727358  0.2579741868390  0.3124337975527 1.0
C      1  0.3269632491049  0.7664029207574  0.3792507265223 1.0
C      1  0.3321785925422  0.4737568974441  0.7869548748253 1.0
C      1  0.3299430091544  0.2615474773924  0.3288360658423 1.0
C      1  0.6201760147562  0.4932673628881  0.5544507347209 1.0
C      1  0.6206556115152  0.4533850101366  0.4617263087963 1.0
C      1  0.6197850198707  0.5542544707963  0.4767414741419 1.0
C      1  0.3930471821626  0.4871949639900  0.5517001305431 1.0
C      1  0.3908689351363  0.4323187048126  0.4646945206308 1.0
C      1  0.3908410942627  0.5778672001623  0.5016618210411 1.0
C      1  0.2657124766506  0.7246419149344  0.3232387055772 1.0
C      1  0.2692913211966  0.5428630005774  0.7854553352533 1.0
C      1  0.2671561418075  0.2331250292172  0.3912451515631 1.0
C      1  0.7161662263320  0.7243966600983  0.3256184658296 1.0
C      1  0.7190364080496  0.5366850028615  0.7854491259776 1.0
C      1  0.7195263304520  0.2353765613806  0.3937719828188 1.0
C      1  0.5607860625719  0.3053493342591  0.4036933155503 1.0
C      1  0.5566519615927  0.6782482900045  0.3836613234561 1.0
C      1  0.5749210017830  0.4806988069679  0.7167208761044 1.0
C      1  0.4752429954987  0.3094319768586  0.3573357972855 1.0
C      1  0.4712588290796  0.7171757256829  0.4099982110961 1.0
C      1  0.4769114729073  0.4611199989688  0.7314209129578 1.0
C      1  0.7146782474735  0.3314769921690  0.5853038005849 1.0
C      1  0.7193529606984  0.5120333341990  0.3093743819772 1.0
C      1  0.7174569617931  0.6588521873798  0.6042695628648 1.0
C      1  0.2817949693604  0.3291324794168  0.5804209928335 1.0
C      1  0.2879002924657  0.5154839027088  0.3139722860294 1.0
C      1  0.2801826161644  0.6615976380063  0.6114933201911 1.0
C      1  0.4633697089106  0.4787356025684  0.6257340542300 1.0
C      1  0.4592794185707  0.3937877867769  0.4208583791184 1.0
C      1  0.4574574626705  0.6261917127073  0.4640951822460 1.0
C      1  0.5525400131237  0.4934809566081  0.6209607685674 1.0
C      1  0.5537413451883  0.3900161384354  0.4379688213530 1.0
C      1  0.5502970636152  0.6096539353008  0.4433791669822 1.0
C      1  0.6121981309677  0.5326159963691  0.7931722446345 1.0
C      1  0.6122921122034  0.2283183348957  0.3784453061973 1.0
C      1  0.6088597516547  0.7376499867056  0.3282110380226 1.0
C      1  0.4191375279018  0.5093913208240  0.7970161353770 1.0
C      1  0.4155890116451  0.2298384429430  0.3549489729173 1.0
C      1  0.4125653299251  0.7558632328048  0.3396349959979 1.0
C      1  0.2976306023301  0.4219358785905  0.3276173623222 1.0
C      1  0.2917514372349  0.6961042423042  0.5224437378793 1.0
C      1  0.2963395885806  0.3905078311967  0.6523552467114 1.0
C      1  0.7063857039195  0.4201245490599  0.3238526937505 1.0
C      1  0.7033548139763  0.6928096219393  0.5174052305115 1.0
C      1  0.6968676149235  0.3927419292325  0.6527741555662 1.0
C      1  0.7573026430144  0.4027536130793  0.5208013354068 1.0
C      1  0.7575425973018  0.5304883131573  0.4044678460177 1.0
C      1  0.7565872228141  0.5691351480160  0.5726619872869 1.0
C      1  0.2474562979374  0.4031080307167  0.5179497330159 1.0
C      1  0.2567952511344  0.5343751084786  0.4105051017668 1.0
C      1  0.2495653304892  0.5678665271402  0.5779504221246 1.0
C      1  0.4813375669327  0.3706814919598  0.7663194959464 1.0
C      1  0.4885793826338  0.7936123017954  0.4698113194162 1.0
C      1  0.4915600181055  0.3291494660314  0.2628647658454 1.0
END
