TITL C-32399-6830-40 -9.793 3375.00 -1371.60196059 0 0 162 (C1) n - 1
REM
REM Run started: at 2020.12.23 04:43:47 in /gpfs/home/chem/mssmkc/CARBON/AIRSS/Generating-Clusters/Str-Search/Higher-Symm/C100-200
REM VASP from code version vasp.5.4.4.18Apr17-6-g9f103f2a35 (build Oct 11 2019 16:45:47) gamma-only
REM
REM
REM
REM
REM ./C.cell (533062f00bc710175b3da973d35f2034)
REM AIRSS Version 0.9.1 bugfix July 2018 build 013d7b7c2542+ Fri, 06 Jul 2018 19:26:36 +0100
REM compiler GCC version 6.3.0
REM options -cpp -iprefix /gpfs/warwick/csc/orac/software/Core/GCCcore/6.3.0/bin/../lib/gcc/x86_64-pc-linux-gnu/6.3.0/ -mtune=generic -march=x86-64 -g -O0
REM seed -1977287436 -490291323 -1926056667 -199890205 -317180810 -1675276457 300861396 -77269308 1603030533 -2065175190 1932149990 1811305648
REM
REM C.POTCAR (d86ddea03c3ceb6dc662c8ad6801f873)
REM 
CELL 1.54180   15.00000   15.00000   15.00000   90.00000   90.00000   90.00000
LATT -1
SFAC C  
C      1  0.4665151631518  0.8263273079880  0.3299016994345 1.0
C      1  0.4661633056323  0.1737096120336  0.6698497439280 1.0
C      1  0.5375814037091  0.1734614411364  0.3300104424240 1.0
C      1  0.5372855989172  0.8265137722135  0.6701287542640 1.0
C      1  0.4663788974213  0.3298804258497  0.8263190890981 1.0
C      1  0.4663906100169  0.6698161949745  0.1735449106841 1.0
C      1  0.5373746289728  0.3297582505553  0.1734027591795 1.0
C      1  0.5374188919604  0.6698867201540  0.8266364502714 1.0
C      1  0.4594147878827  0.3386495460982  0.5187321979134 1.0
C      1  0.4588551522689  0.6602253159812  0.4821900232075 1.0
C      1  0.5440208587679  0.6602892674564  0.5177993224016 1.0
C      1  0.5436697551627  0.3385655246641  0.4814391439573 1.0
C      1  0.4606963167487  0.5185838463199  0.3393363048139 1.0
C      1  0.4576027039078  0.4819541841703  0.6609626544799 1.0
C      1  0.5422743781675  0.5184899322586  0.6607169459045 1.0
C      1  0.5452957921180  0.4819317248889  0.3389335427392 1.0
C      1  0.8960143645482  0.4796946021930  0.6949990302728 1.0
C      1  0.8959068800143  0.5190446037956  0.3062950453990 1.0
C      1  0.1065490399768  0.5187908356196  0.6934796128306 1.0
C      1  0.1065073168514  0.4797872761916  0.3053460816495 1.0
C      1  0.8953738788727  0.6936898509795  0.4811403383889 1.0
C      1  0.8964222011481  0.3050578446861  0.5205341298505 1.0
C      1  0.1069422401369  0.6933714009432  0.5187024399546 1.0
C      1  0.1061716080156  0.3053846066649  0.4795954861996 1.0
C      1  0.5570744619141  0.8435190607374  0.3157380924990 1.0
C      1  0.5567742331610  0.1562403160822  0.6843797001506 1.0
C      1  0.4469653059842  0.1560859789369  0.3155994617801 1.0
C      1  0.4467535618468  0.8435983361589  0.6842580251318 1.0
C      1  0.5569185783522  0.3150887791784  0.8438698080872 1.0
C      1  0.5569505946665  0.6839723515545  0.1562783435855 1.0
C      1  0.4468476956515  0.3150381940851  0.1559682847799 1.0
C      1  0.4468822192529  0.6839746525006  0.8437960302582 1.0
C      1  0.6341209935093  0.1739272803194  0.5545222221866 1.0
C      1  0.6332831910319  0.8255897682232  0.4456636133276 1.0
C      1  0.3702006806795  0.8256588365121  0.5544781330745 1.0
C      1  0.3696741326984  0.1739744028749  0.4454197427490 1.0
C      1  0.6335949002191  0.5540449582424  0.1741049571100 1.0
C      1  0.6337286217014  0.4451786105794  0.8259334295290 1.0
C      1  0.3699792728278  0.5541605854797  0.8258963226780 1.0
C      1  0.3699817247128  0.4450876197635  0.1740367575891 1.0
C      1  0.6165651639208  0.7662596583943  0.3001789936822 1.0
C      1  0.6165156958822  0.2331650382565  0.6999625422232 1.0
C      1  0.3871218960961  0.2328976950783  0.2997984791487 1.0
C      1  0.3871663642974  0.7664003327158  0.6999491051770 1.0
C      1  0.6165169883471  0.2997089395904  0.7667351305779 1.0
C      1  0.6165776515980  0.6995634861392  0.2333957513782 1.0
C      1  0.3871688047007  0.2994821097469  0.2330212468070 1.0
C      1  0.3871416734632  0.6996921201573  0.7667314989149 1.0
C      1  0.6196221433435  0.4596519347041  0.1842548872977 1.0
C      1  0.6190432817121  0.5394866272549  0.8152726878124 1.0
C      1  0.3845943498551  0.5394087296273  0.1847206600081 1.0
C      1  0.3839337656039  0.4597640933907  0.8156692351629 1.0
C      1  0.6196903429962  0.1843417868235  0.4601872619967 1.0
C      1  0.6191201619872  0.8152730237549  0.5400434212109 1.0
C      1  0.3840051690875  0.1844393478947  0.5397274220486 1.0
C      1  0.3844087826340  0.8152818411311  0.4600696124524 1.0
C      1  0.5708826976452  0.8755288558237  0.5920313686274 1.0
C      1  0.5711589468498  0.1243406080105  0.4081435651610 1.0
C      1  0.4325605538823  0.1244930129436  0.5917847679982 1.0
C      1  0.4327659225793  0.8753708895738  0.4079894584702 1.0
C      1  0.5710090280108  0.5915715994282  0.8756005455338 1.0
C      1  0.5710290284273  0.4076327426607  0.1242657531974 1.0
C      1  0.4327251941293  0.5915519159125  0.1245141732935 1.0
C      1  0.4325841987649  0.4076811060219  0.8755375470911 1.0
C      1  0.4100329129192  0.5735790402674  0.4992563762329 1.0
C      1  0.4109333662085  0.4259287671549  0.5011204282439 1.0
C      1  0.5919496789658  0.4259458704356  0.4988607341700 1.0
C      1  0.5925909813492  0.5735875819568  0.5007948746858 1.0
C      1  0.4096962135700  0.4987459762241  0.5741322635169 1.0
C      1  0.4114161947873  0.5006246985765  0.4263956616294 1.0
C      1  0.5929344010879  0.4986910722094  0.4258367470950 1.0
C      1  0.5914212662398  0.5006853147136  0.5736178883252 1.0
C      1  0.6583587990978  0.6141271180803  0.2486597542467 1.0
C      1  0.6590445947831  0.3850666951454  0.7519179858438 1.0
C      1  0.3444065197251  0.3847985038197  0.2478555251360 1.0
C      1  0.3450444011470  0.6143289737385  0.7515013856974 1.0
C      1  0.6592105451474  0.2481539405568  0.6146106007602 1.0
C      1  0.6581432827587  0.7509891879789  0.3856769691936 1.0
C      1  0.3442407726831  0.2479022148144  0.3851263690549 1.0
C      1  0.3452021135256  0.7511787704129  0.6145690566471 1.0
C      1  0.4230368957713  0.8893529723060  0.5992573847541 1.0
C      1  0.4235739402190  0.1109460550950  0.4008853828024 1.0
C      1  0.5800285675697  0.1110094909719  0.5991055502452 1.0
C      1  0.5804436392188  0.8892737141507  0.4008706815368 1.0
C      1  0.4233486460621  0.5987925255491  0.8892750899311 1.0
C      1  0.4233976962410  0.4003694282454  0.1107825473742 1.0
C      1  0.5801982282273  0.5987075189159  0.1107590295609 1.0
C      1  0.5801446389963  0.4004297794232  0.8891173181097 1.0
C      1  0.0799429331650  0.3448831822348  0.4033032896091 1.0
C      1  0.0807568399857  0.6536881663891  0.5950375430023 1.0
C      1  0.9212004847556  0.6540109563859  0.4047331759863 1.0
C      1  0.9223168537380  0.3448003591225  0.5968223768928 1.0
C      1  0.0801221307304  0.4035689943401  0.3448866526011 1.0
C      1  0.0806722493508  0.5951345433994  0.6536322854137 1.0
C      1  0.9220879718253  0.4034913517234  0.6552371599211 1.0
C      1  0.9213824351098  0.5954636371332  0.3461665933495 1.0
C      1  0.5007245777387  0.4454948156076  0.0575109209801 1.0
C      1  0.5008140242622  0.5537392962465  0.9425960860239 1.0
C      1  0.5025702432466  0.5537201134690  0.0573805759514 1.0
C      1  0.5026063043720  0.4455074162610  0.9423857592403 1.0
C      1  0.5008557333255  0.0574099426147  0.4458943834488 1.0
C      1  0.5006669617714  0.9423908859503  0.5541301272731 1.0
C      1  0.5025693032488  0.0574773877318  0.5540811129818 1.0
C      1  0.5026329439958  0.9423609446185  0.4458907696635 1.0
C      1  0.3067551696287  0.3434212257134  0.5811407025146 1.0
C      1  0.3077826477513  0.6577371199877  0.4185024145243 1.0
C      1  0.6952243182606  0.6576675957760  0.5815543674690 1.0
C      1  0.6962724094859  0.3433375817931  0.4186605519979 1.0
C      1  0.3075843938551  0.5809078861181  0.3435195347793 1.0
C      1  0.3069627117355  0.4181795189084  0.6581899923862 1.0
C      1  0.6953826685562  0.5811124069397  0.6565963884217 1.0
C      1  0.6960986010541  0.4181590810274  0.3418267707411 1.0
C      1  0.5758848433207  0.2629770203604  0.3275091415145 1.0
C      1  0.5753761762606  0.7367376378266  0.6722590187847 1.0
C      1  0.4282535929713  0.7365927475181  0.3278910403603 1.0
C      1  0.4276961126103  0.2631690656295  0.6722661584002 1.0
C      1  0.5759201037603  0.3275257028250  0.2629844318111 1.0
C      1  0.5753190438274  0.6722985647273  0.7368789990473 1.0
C      1  0.4277893394302  0.3277683437827  0.7367734445028 1.0
C      1  0.4282144118670  0.6721335788243  0.2632376935211 1.0
C      1  0.6889469554583  0.6625903666039  0.4040826504168 1.0
C      1  0.6902755150008  0.3368608845105  0.5965385605308 1.0
C      1  0.3128285861365  0.3364659559786  0.4031197258997 1.0
C      1  0.3140739049741  0.6628802205355  0.5962132333841 1.0
C      1  0.6899587920223  0.4032693044187  0.6632436173709 1.0
C      1  0.6892097839067  0.5957779477921  0.3370210150133 1.0
C      1  0.3131262218514  0.4028949474450  0.3364221862144 1.0
C      1  0.3138101499048  0.5960092208384  0.6632641282745 1.0
C      1  0.6126701567005  0.7206346012303  0.5783598030373 1.0
C      1  0.6125089724401  0.2790021839612  0.4220039442494 1.0
C      1  0.3907044089054  0.2790962116537  0.5779162504665 1.0
C      1  0.3905336439457  0.7206364769269  0.4216911372942 1.0
C      1  0.6112754729797  0.5776810799373  0.7207202990052 1.0
C      1  0.6136136533874  0.4212307899385  0.2788543209630 1.0
C      1  0.3917914391531  0.5775945932261  0.2793046146571 1.0
C      1  0.3896836128082  0.4213102103543  0.7210395799082 1.0
C      1  0.8573853939088  0.5520300259496  0.7048822665606 1.0
C      1  0.8584476237205  0.4462623116296  0.2946593206375 1.0
C      1  0.1444083744155  0.4461971957937  0.7050305952794 1.0
C      1  0.1454791469656  0.5519478488150  0.2955389699039 1.0
C      1  0.8576367139992  0.7051786065644  0.5537999996596 1.0
C      1  0.8581735011465  0.2950501514160  0.4480055010325 1.0
C      1  0.1451690454639  0.7048378680175  0.4462890052596 1.0
C      1  0.1447544558328  0.2954099966655  0.5519357312124 1.0
C      1  0.7900419341939  0.6114047224463  0.6778560993241 1.0
C      1  0.7909829926856  0.3869159569283  0.3219784811190 1.0
C      1  0.2120986288725  0.3869379797745  0.6779741401395 1.0
C      1  0.2129536352335  0.6112283603909  0.3223781461470 1.0
C      1  0.7900293841340  0.6777340874471  0.6129106731743 1.0
C      1  0.7909982780593  0.3221317922941  0.3884593648978 1.0
C      1  0.2129682011199  0.6776695711099  0.3872036699137 1.0
C      1  0.2120667536133  0.3223181833251  0.6113479787643 1.0
C      1  0.3116753134725  0.6110019086173  0.5077161600459 1.0
C      1  0.3181366311952  0.3858548234408  0.4907127754037 1.0
C      1  0.6848843770261  0.3860442739238  0.5088739540821 1.0
C      1  0.6910857674783  0.6106894054608  0.4925415441838 1.0
C      1  0.3111528817231  0.5074629613642  0.6115854994150 1.0
C      1  0.3192584438620  0.4904529245295  0.3851899177280 1.0
C      1  0.6915869420149  0.5072598369653  0.3886565942080 1.0
C      1  0.6836309047058  0.4908785798443  0.6148274933820 1.0
C      1  0.7463243627932  0.5275533002992  0.4717892400886 1.0
C      1  0.2558307630980  0.5285387358284  0.5290725548100 1.0
END
