TITL C-34265-8737-36 -2.376 3375.00 -383.53277118 0 0 49 (C1) n - 1
REM
REM Run started: at 2020.12.01 06:57:46 in /rds/project/t2_vol4/rds-t2-cs072/BORA/CARBON/AIRSS/Generating-Clusters/Str-Search/Higher-Symm/C10-100
REM VASP from code version vasp.5.4.4.18Apr17-6-g9f103f2a35 (build Oct 11 2019 16:45:47) gamma-only
REM
REM
REM
REM
REM ./C.cell (f39ce9773e2efe3fa5bbdf770a4156b8)
REM AIRSS Version 0.9.1 bugfix July 2018 build 013d7b7c2542+ Fri, 06 Jul 2018 19:26:36 +0100
REM compiler GCC version 4.8.5 20150623 (Red Hat 4.8.5-39)
REM options -cpp -mtune=generic -march=x86-64 -g -O0
REM seed 838451843 -1886654566 -1093970948 -1046147566 -1305103345 -1511280526 1639144023 449911708 -65323473 890652295 1029189726 -411134764
REM
REM C.POTCAR (d86ddea03c3ceb6dc662c8ad6801f873)
REM 
CELL 1.54180   15.00000   15.00000   15.00000   90.00000   90.00000   90.00000
LATT -1
SFAC C  
C      1  0.7432641001625  0.3259909921587  0.4846107502478 1.0
C      1  0.4649368883643  0.2473323365308  0.4405423507633 1.0
C      1  0.2036141081691  0.5257414925744  0.4638748360229 1.0
C      1  0.4175648676819  0.7159811155270  0.4547054589971 1.0
C      1  0.7671011959153  0.6737682561460  0.4427908501494 1.0
C      1  0.7537779827825  0.6111388431442  0.5139626676339 1.0
C      1  0.4767285761908  0.7380005890052  0.5475405311702 1.0
C      1  0.1877771770369  0.4749311913422  0.5353384414373 1.0
C      1  0.4077815896376  0.2676186124563  0.5317210830496 1.0
C      1  0.7671388426926  0.3641643507647  0.5622650291005 1.0
C      1  0.3459160197172  0.4172984345497  0.5645598347840 1.0
C      1  0.3907560452685  0.6319576281264  0.5802428174713 1.0
C      1  0.5958531446545  0.6326314557231  0.5801850561809 1.0
C      1  0.6785466143140  0.4945871921082  0.5823421001991 1.0
C      1  0.5180576427554  0.3148154463864  0.5618253239379 1.0
C      1  0.3455783736171  0.5761544379087  0.4182837263006 1.0
C      1  0.3894224337470  0.3554504926302  0.4091747932776 1.0
C      1  0.5928371458242  0.3507104917283  0.4129160911740 1.0
C      1  0.6734825141897  0.5398832536593  0.4029510249062 1.0
C      1  0.5239510397662  0.6719672172786  0.4244138134943 1.0
C      1  0.4299370055620  0.7100015073234  0.6201275558669 1.0
C      1  0.6858934049212  0.5981434289742  0.5796513404567 1.0
C      1  0.7451282318383  0.4272272413958  0.6122192942914 1.0
C      1  0.4524977800667  0.2615160900868  0.6121739352691 1.0
C      1  0.2609982571609  0.4497992890376  0.5719819899660 1.0
C      1  0.4243147445018  0.2768434683622  0.3636263705592 1.0
C      1  0.6853859635140  0.3424363892066  0.4263886515140 1.0
C      1  0.7131287013860  0.6260697780807  0.3947819447740 1.0
C      1  0.4614788215111  0.7324447776209  0.3759367432528 1.0
C      1  0.2571315645104  0.5556943808364  0.4055480780212 1.0
C      1  0.4378660437283  0.5518288154031  0.6250515640305 1.0
C      1  0.5386919957829  0.5631042178643  0.6085366842813 1.0
C      1  0.5803801642777  0.4786417396154  0.5981978936173 1.0
C      1  0.5141969260908  0.4115939513408  0.5883352977499 1.0
C      1  0.4268324479847  0.4550189644017  0.5968940309479 1.0
C      1  0.4433327850610  0.4336225895638  0.3731601367215 1.0
C      1  0.5453940799565  0.4260702499564  0.3831962632838 1.0
C      1  0.5821578896796  0.5155318017566  0.3839253407986 1.0
C      1  0.5151587605591  0.5795887651660  0.3897728776645 1.0
C      1  0.4250370464448  0.5370635123041  0.3741389210936 1.0
C      1  0.3671044507216  0.6425910049910  0.4876867858508 1.0
C      1  0.5553879450988  0.6975351961974  0.5166581790161 1.0
C      1  0.7110319721675  0.5238812014853  0.4891981022685 1.0
C      1  0.5437934595814  0.2865773180714  0.4711707413408 1.0
C      1  0.3594675124307  0.3433721458526  0.4999340665880 1.0
C      1  0.4338733044133  0.5566553044789  0.7230148311195 1.0
C      1  0.4152303497558  0.4798691570168  0.2896592749306 1.0
C      1  0.4417434601950  0.5603084095134  0.8068386612599 1.0
C      1  0.3846211286109  0.4871565743484  0.2087325631677 1.0
END
