TITL C-34265-8737-38 -1.248 3375.00 -187.50107628 0 0 24 (D6h) n - 1
REM
REM Run started: at 2020.12.01 07:45:16 in /rds/project/t2_vol4/rds-t2-cs072/BORA/CARBON/AIRSS/Generating-Clusters/Str-Search/Higher-Symm/C10-100
REM VASP from code version vasp.5.4.4.18Apr17-6-g9f103f2a35 (build Oct 11 2019 16:45:47) gamma-only
REM
REM
REM
REM
REM ./C.cell (f39ce9773e2efe3fa5bbdf770a4156b8)
REM AIRSS Version 0.9.1 bugfix July 2018 build 013d7b7c2542+ Fri, 06 Jul 2018 19:26:36 +0100
REM compiler GCC version 4.8.5 20150623 (Red Hat 4.8.5-39)
REM options -cpp -mtune=generic -march=x86-64 -g -O0
REM seed -1902394198 -1818635452 -1561947992 -1640761228 -354011436 -1896882911 1112097430 -438935194 -2092537670 87353579 -2044873742 -2082179868
REM
REM C.POTCAR (d86ddea03c3ceb6dc662c8ad6801f873)
REM 
CELL 1.54180   15.00000   15.00000   15.00000   90.00000   90.00000   90.00000
LATT -1
SFAC C  
C      1  0.4360426660706  0.4285695445722  0.6006770093328 1.0
C      1  0.5639573958815  0.5714304091879  0.6006772812490 1.0
C      1  0.4360426083132  0.4285695883354  0.3993227203203 1.0
C      1  0.5639573298212  0.5714304579478  0.3993229922995 1.0
C      1  0.5938799673439  0.4802402838601  0.3994032539009 1.0
C      1  0.4061200514658  0.5197598006001  0.3994033081960 1.0
C      1  0.5938799534190  0.4802402008751  0.6005966945158 1.0
C      1  0.4061200277071  0.5197597146933  0.6005967487737 1.0
C      1  0.3838217249622  0.3704553194865  0.5410795514547 1.0
C      1  0.6161779411022  0.6295442447645  0.5410793886506 1.0
C      1  0.3838220619740  0.3704557543800  0.4589206134888 1.0
C      1  0.6161782719943  0.6295446813432  0.4589204507153 1.0
C      1  0.5299033731738  0.4087140204758  0.3994906748135 1.0
C      1  0.4700966343135  0.5912859803355  0.3994910054885 1.0
C      1  0.5299033652119  0.4087140247663  0.6005089945925 1.0
C      1  0.4700966273049  0.5912859743222  0.6005093252518 1.0
C      1  0.4459795459695  0.6657386016927  0.4588978712011 1.0
C      1  0.5540200749715  0.3342624207265  0.4588983524849 1.0
C      1  0.4459799370468  0.6657375446715  0.5411016269689 1.0
C      1  0.5540204419118  0.3342614330002  0.5411021082946 1.0
C      1  0.3296761781405  0.5356919952899  0.4589092139395 1.0
C      1  0.6703234660957  0.4643081308709  0.4589094254830 1.0
C      1  0.3296765136383  0.5356918717899  0.5410905885205 1.0
C      1  0.6703238421669  0.4643080020126  0.5410908000640 1.0
END
