TITL C-34265-8737-20 -2.066 3375.00 -362.84135127 0 0 42 (C1) n - 1
REM
REM Run started: at 2020.12.01 02:08:31 in /rds/project/t2_vol4/rds-t2-cs072/BORA/CARBON/AIRSS/Generating-Clusters/Str-Search/Higher-Symm/C10-100
REM VASP from code version vasp.5.4.4.18Apr17-6-g9f103f2a35 (build Oct 11 2019 16:45:47) gamma-only
REM
REM
REM
REM
REM ./C.cell (f39ce9773e2efe3fa5bbdf770a4156b8)
REM AIRSS Version 0.9.1 bugfix July 2018 build 013d7b7c2542+ Fri, 06 Jul 2018 19:26:36 +0100
REM compiler GCC version 4.8.5 20150623 (Red Hat 4.8.5-39)
REM options -cpp -mtune=generic -march=x86-64 -g -O0
REM seed 173048295 -35093010 203698476 305970046 -255493942 -2040116263 -1158651962 1207431249 -540469202 1126308648 -2041031267 -1126072293
REM
REM C.POTCAR (d86ddea03c3ceb6dc662c8ad6801f873)
REM 
CELL 1.54180   15.00000   15.00000   15.00000   90.00000   90.00000   90.00000
LATT -1
SFAC C  
C      1  0.6670535926785  0.4302165625751  0.5850076096720 1.0
C      1  0.6670423291312  0.5226784385560  0.6076826665958 1.0
C      1  0.6668619675578  0.5978868782583  0.5491749577817 1.0
C      1  0.6670434863944  0.5995700289392  0.4539321420601 1.0
C      1  0.6671910037412  0.5262496551878  0.3932941523409 1.0
C      1  0.6671121945002  0.4331126870317  0.4133211810601 1.0
C      1  0.6670461207139  0.3904700343385  0.4985053990397 1.0
C      1  0.3329378220932  0.3904640292810  0.4984176009690 1.0
C      1  0.3328130177056  0.4304093244175  0.5848208906265 1.0
C      1  0.3327264229655  0.5228626668771  0.6072793576963 1.0
C      1  0.3328591296431  0.5979629832016  0.5486887401265 1.0
C      1  0.3328122511151  0.5994432312568  0.4534636915969 1.0
C      1  0.3327948258214  0.5260226670455  0.3929096459094 1.0
C      1  0.3329349088946  0.4328956837678  0.4131157864736 1.0
C      1  0.4515721713638  0.3255287220437  0.5809687193350 1.0
C      1  0.4514633913180  0.4544090964221  0.6869991801476 1.0
C      1  0.4514165279213  0.6176700243826  0.6521605264240 1.0
C      1  0.4514922616769  0.6921590336885  0.5025810985569 1.0
C      1  0.4516064988881  0.6222847905880  0.3510411939288 1.0
C      1  0.4517163489836  0.4599827505398  0.3119177678341 1.0
C      1  0.4517124794000  0.3279568041042  0.4141225770321 1.0
C      1  0.5946583012273  0.6607451280125  0.4255339905965 1.0
C      1  0.5948247328397  0.5422307818730  0.3278308560055 1.0
C      1  0.5948124732521  0.3917797021027  0.3599722643365 1.0
C      1  0.5947123321529  0.3229904644638  0.4974409044698 1.0
C      1  0.5946197718862  0.3873425280211  0.6370887401077 1.0
C      1  0.5945883534373  0.5366824214556  0.6735929759702 1.0
C      1  0.5944704610643  0.6581439501176  0.5792709042195 1.0
C      1  0.5486074335982  0.3279508782045  0.4140945853813 1.0
C      1  0.5484893803205  0.3254221753446  0.5809800992445 1.0
C      1  0.5484219993639  0.4542525971947  0.6871514546397 1.0
C      1  0.5483964760367  0.6176006918241  0.6523813310713 1.0
C      1  0.5484200866116  0.6921907606578  0.5028123460348 1.0
C      1  0.5485539634344  0.6224011741813  0.3512160984620 1.0
C      1  0.5486356336016  0.4600982106845  0.3119676645620 1.0
C      1  0.4053155754063  0.6606038916249  0.4251978754027 1.0
C      1  0.4053951046760  0.5420025040309  0.3276113220890 1.0
C      1  0.4055313354316  0.3916201897340  0.3599695439105 1.0
C      1  0.4054724095991  0.3231016894631  0.4974826304374 1.0
C      1  0.4053307242888  0.3875928680764  0.6369267969498 1.0
C      1  0.4052184079947  0.5368374306502  0.6731873815158 1.0
C      1  0.4053162912695  0.6581741697801  0.5788856493866 1.0
END
