TITL C-34265-8737-11 -0.821 3375.00 -122.36652721 0 0 16 (C1) n - 1
REM
REM Run started: at 2020.11.30 22:37:55 in /rds/project/t2_vol4/rds-t2-cs072/BORA/CARBON/AIRSS/Generating-Clusters/Str-Search/Higher-Symm/C10-100
REM VASP from code version vasp.5.4.4.18Apr17-6-g9f103f2a35 (build Oct 11 2019 16:45:47) gamma-only
REM
REM
REM
REM
REM ./C.cell (f39ce9773e2efe3fa5bbdf770a4156b8)
REM AIRSS Version 0.9.1 bugfix July 2018 build 013d7b7c2542+ Fri, 06 Jul 2018 19:26:36 +0100
REM compiler GCC version 4.8.5 20150623 (Red Hat 4.8.5-39)
REM options -cpp -mtune=generic -march=x86-64 -g -O0
REM seed -910330268 880254483 -1294567756 -481739949 233758682 435790920 1260617640 -643337799 -263382666 1899419254 -1664341670 1726741584
REM
REM C.POTCAR (d86ddea03c3ceb6dc662c8ad6801f873)
REM 
CELL 1.54180   15.00000   15.00000   15.00000   90.00000   90.00000   90.00000
LATT -1
SFAC C  
C      1  0.6155188393895  0.5746377614859  0.5222829035366 1.0
C      1  0.5698700823932  0.4436645134588  0.4354858138193 1.0
C      1  0.4860203945363  0.4107649484363  0.4025039463250 1.0
C      1  0.6026794930667  0.4561733323923  0.3443960449052 1.0
C      1  0.3327624419169  0.5291576324826  0.5541818010189 1.0
C      1  0.4929566537464  0.4912264401957  0.6541229116668 1.0
C      1  0.5223231207247  0.3974691981578  0.3116777985631 1.0
C      1  0.4496887522031  0.5769865721491  0.6526349827825 1.0
C      1  0.3528028662837  0.4790159509408  0.4840630881636 1.0
C      1  0.5448031399829  0.4554792929725  0.5987922558016 1.0
C      1  0.5899476613014  0.4835667006301  0.5195664100283 1.0
C      1  0.4034246456797  0.4336267697707  0.4349909273282 1.0
C      1  0.5776166906974  0.6252475304287  0.5819852367379 1.0
C      1  0.5928976396185  0.4211107962040  0.2572056162661 1.0
C      1  0.5059699364996  0.6477462623189  0.6264222025015 1.0
C      1  0.3607174419601  0.5741264979757  0.6196881605552 1.0
END
