TITL C-34265-8737-37 -4.499 3375.00 -816.31528597 0 0 100 (C1) n - 1
REM
REM Run started: at 2020.12.01 07:42:18 in /rds/project/t2_vol4/rds-t2-cs072/BORA/CARBON/AIRSS/Generating-Clusters/Str-Search/Higher-Symm/C10-100
REM VASP from code version vasp.5.4.4.18Apr17-6-g9f103f2a35 (build Oct 11 2019 16:45:47) gamma-only
REM
REM
REM
REM
REM ./C.cell (f39ce9773e2efe3fa5bbdf770a4156b8)
REM AIRSS Version 0.9.1 bugfix July 2018 build 013d7b7c2542+ Fri, 06 Jul 2018 19:26:36 +0100
REM compiler GCC version 4.8.5 20150623 (Red Hat 4.8.5-39)
REM options -cpp -mtune=generic -march=x86-64 -g -O0
REM seed -77026566 -1227172598 621912238 -16748361 468367372 676866916 -1931860473 2007551181 1835935235 1772231007 306759446 1840709605
REM
REM C.POTCAR (d86ddea03c3ceb6dc662c8ad6801f873)
REM 
CELL 1.54180   15.00000   15.00000   15.00000   90.00000   90.00000   90.00000
LATT -1
SFAC C  
C      1  0.3955208363382  0.2196340599703  0.4755084841253 1.0
C      1  0.5656313333774  0.2120664538814  0.4655836910886 1.0
C      1  0.7079143148640  0.2911842277178  0.4889235027769 1.0
C      1  0.7903927257096  0.4550383249379  0.5161917336575 1.0
C      1  0.7808436289292  0.6210466169087  0.4741604117862 1.0
C      1  0.6854226783574  0.7457959484900  0.4683471762133 1.0
C      1  0.5197485849090  0.7989803792657  0.4709023270204 1.0
C      1  0.3614390256285  0.7722756783822  0.4766197081117 1.0
C      1  0.2356310713828  0.6501630991559  0.4761358344350 1.0
C      1  0.2010535167391  0.4863015301345  0.4815626320776 1.0
C      1  0.2670093462518  0.3158624576437  0.4812664260589 1.0
C      1  0.6282235973120  0.4189018378436  0.2167960976438 1.0
C      1  0.6516482246318  0.5196235275176  0.2361190287227 1.0
C      1  0.6317033191168  0.6115439673981  0.2458106461345 1.0
C      1  0.5535708490098  0.6738041545980  0.2558063255491 1.0
C      1  0.4555565092342  0.6762192307069  0.2585956679047 1.0
C      1  0.3654404475874  0.6260797811848  0.2619877295147 1.0
C      1  0.3170649561323  0.5402752873542  0.2618498634328 1.0
C      1  0.3293980450493  0.4370029916944  0.2623357245806 1.0
C      1  0.3841397406324  0.3595306686896  0.2609785637892 1.0
C      1  0.4785971767898  0.3241870646982  0.2577531460698 1.0
C      1  0.5690544629305  0.3481149569261  0.2441287089102 1.0
C      1  0.3558421101866  0.3813769703102  0.7145863149198 1.0
C      1  0.4333085654680  0.3207325556958  0.7189821651253 1.0
C      1  0.5317532904975  0.3120243263823  0.7278917038583 1.0
C      1  0.6089889086497  0.3752399430271  0.7069302035376 1.0
C      1  0.6738918367557  0.4554524954757  0.7265434819454 1.0
C      1  0.6654619602204  0.5513476314044  0.6945048653623 1.0
C      1  0.6026044381768  0.6395089629404  0.6952186594445 1.0
C      1  0.5124136267235  0.6887536422459  0.7104297603048 1.0
C      1  0.4223994500876  0.6608724418031  0.7079554621129 1.0
C      1  0.3426078321624  0.5926090772946  0.7160256984679 1.0
C      1  0.3363985660139  0.4897328713844  0.6984393522400 1.0
C      1  0.2440856261041  0.4047466518559  0.4383221250392 1.0
C      1  0.3260825479064  0.2631934096608  0.4262162827910 1.0
C      1  0.4807714487381  0.2118449889915  0.4271077971558 1.0
C      1  0.6341594848993  0.2727032430510  0.4202066849423 1.0
C      1  0.7347467576701  0.3818855936443  0.4818621367899 1.0
C      1  0.7769682117393  0.5286152779376  0.4566824890028 1.0
C      1  0.7353392476811  0.6822912733223  0.4139376419976 1.0
C      1  0.6025737224387  0.7723691420923  0.4281673571434 1.0
C      1  0.4392920797505  0.7872303324566  0.4200094054011 1.0
C      1  0.2933056825419  0.7118298817505  0.4357861128318 1.0
C      1  0.2337154288487  0.5639575900143  0.4241213133224 1.0
C      1  0.3447739131555  0.5637090255538  0.5465091168540 1.0
C      1  0.3585873944633  0.4825637745863  0.5987248534975 1.0
C      1  0.4381731484645  0.4342444810837  0.5681726810004 1.0
C      1  0.4503578294505  0.3407174068259  0.5545785646216 1.0
C      1  0.5402222960872  0.3164525185911  0.5740807143843 1.0
C      1  0.6023271828334  0.3845911485835  0.6052166154605 1.0
C      1  0.6044416826597  0.4649326603500  0.5481648421223 1.0
C      1  0.6454645319014  0.5431465115179  0.5927626142941 1.0
C      1  0.5836124580742  0.6181868464296  0.5941437536875 1.0
C      1  0.4987610120830  0.5876636757852  0.5648077714938 1.0
C      1  0.4163278589033  0.6250896127050  0.5713315283755 1.0
C      1  0.5294877610241  0.2445917375619  0.6495052632865 1.0
C      1  0.6834168277925  0.3369946460718  0.6438561271264 1.0
C      1  0.7407865060128  0.4160668145576  0.6697945039620 1.0
C      1  0.7404695285343  0.5662509413519  0.6234636051059 1.0
C      1  0.6254290628692  0.7081816749598  0.6222775786832 1.0
C      1  0.5389467713662  0.7539405680129  0.6370750926426 1.0
C      1  0.3732668164175  0.6986805450791  0.6290725192763 1.0
C      1  0.2904559548655  0.6440665819391  0.6545515297258 1.0
C      1  0.2651972905051  0.4564272979875  0.6316913271178 1.0
C      1  0.2873179566215  0.3618451763846  0.6479772685658 1.0
C      1  0.4295697839804  0.2451576436989  0.6558903769573 1.0
C      1  0.3368724186075  0.5401001637770  0.4499316062346 1.0
C      1  0.3394283940582  0.4472687728065  0.4239212003875 1.0
C      1  0.4088930343136  0.3900173444844  0.4028501919373 1.0
C      1  0.4963560084613  0.3633810810785  0.3963364793021 1.0
C      1  0.5916440589851  0.3691693299871  0.4071520458972 1.0
C      1  0.6523163547262  0.4322185144701  0.4546191632613 1.0
C      1  0.6936224006219  0.5075831897564  0.4013797800333 1.0
C      1  0.6379859994120  0.5871151296084  0.3961704418303 1.0
C      1  0.5593883222665  0.6295162754640  0.4011224408316 1.0
C      1  0.4692368244614  0.6386308684746  0.4029104813182 1.0
C      1  0.3885340985155  0.6023858484653  0.4020809603652 1.0
C      1  0.5880844561198  0.2256689110125  0.5661769509690 1.0
C      1  0.6825452051539  0.2609624736160  0.5748508875554 1.0
C      1  0.7829589891717  0.4756410550821  0.6094370837476 1.0
C      1  0.7626175034747  0.6475317751967  0.5667948757622 1.0
C      1  0.7029329838496  0.7203558645081  0.5633895565769 1.0
C      1  0.4905610101229  0.7911770078211  0.5655943788078 1.0
C      1  0.3940566418756  0.7730147184490  0.5660220944118 1.0
C      1  0.2503818159722  0.6045394397962  0.5705349692666 1.0
C      1  0.2084543558101  0.5114213497317  0.5699960989134 1.0
C      1  0.2947333535075  0.3047860314233  0.5722357378901 1.0
C      1  0.3845734228507  0.2604814042204  0.5688774664783 1.0
C      1  0.6966898035436  0.3901686654008  0.2812789884394 1.0
C      1  0.7066297011496  0.4791813810595  0.3070226476779 1.0
C      1  0.6779248520310  0.6557485980823  0.3338608022095 1.0
C      1  0.5948821548208  0.7120679619840  0.3437446343999 1.0
C      1  0.4325297337022  0.7210605168997  0.3460877499271 1.0
C      1  0.3426862797838  0.6764806549389  0.3519793168259 1.0
C      1  0.2441459264455  0.5322077623484  0.3280606502053 1.0
C      1  0.2644025109087  0.4377819942485  0.3417366210640 1.0
C      1  0.3730663068537  0.3093563162669  0.3511081240702 1.0
C      1  0.4680116295342  0.2767556753663  0.3482039342219 1.0
C      1  0.6342256489016  0.3237658357129  0.3250343399207 1.0
C      1  0.5073054177489  0.4931940510046  0.5468110076796 1.0
END
