TITL C-34265-8737-17 -2.88 3375.00 -486.54207301 0 0 58 (C1) n - 1
REM
REM Run started: at 2020.12.01 01:13:55 in /rds/project/t2_vol4/rds-t2-cs072/BORA/CARBON/AIRSS/Generating-Clusters/Str-Search/Higher-Symm/C10-100
REM VASP from code version vasp.5.4.4.18Apr17-6-g9f103f2a35 (build Oct 11 2019 16:45:47) gamma-only
REM
REM
REM
REM
REM ./C.cell (f39ce9773e2efe3fa5bbdf770a4156b8)
REM AIRSS Version 0.9.1 bugfix July 2018 build 013d7b7c2542+ Fri, 06 Jul 2018 19:26:36 +0100
REM compiler GCC version 4.8.5 20150623 (Red Hat 4.8.5-39)
REM options -cpp -mtune=generic -march=x86-64 -g -O0
REM seed 2003999643 1016073351 325860153 -1988228876 1337560254 -895694093 428256204 1772698814 -1679969537 -1332269891 -1727627897 -1501684579
REM
REM C.POTCAR (d86ddea03c3ceb6dc662c8ad6801f873)
REM 
CELL 1.54180   15.00000   15.00000   15.00000   90.00000   90.00000   90.00000
LATT -1
SFAC C  
C      1  0.6453793053396  0.3243318075862  0.5616319202521 1.0
C      1  0.7348352366812  0.4427159757148  0.5078212916009 1.0
C      1  0.7600364040301  0.5344080449843  0.5051122445527 1.0
C      1  0.6683762648003  0.7086540027772  0.5114430917719 1.0
C      1  0.5809452355155  0.7471906429853  0.5165655682722 1.0
C      1  0.3874251620731  0.7213181820174  0.5236127287135 1.0
C      1  0.3132605755816  0.6625134744187  0.5236731356270 1.0
C      1  0.2454350971565  0.4795253628253  0.5165724235746 1.0
C      1  0.2644857631508  0.3858612218783  0.5115865872566 1.0
C      1  0.4151103238017  0.2588705657011  0.5057586756214 1.0
C      1  0.5100018531073  0.2633264353638  0.5084168445101 1.0
C      1  0.3266776012365  0.5038144503854  0.3674379358893 1.0
C      1  0.3453747914597  0.4133209753876  0.3625997239542 1.0
C      1  0.4201602085013  0.3436539367020  0.3606568070304 1.0
C      1  0.5127569961319  0.3488196401994  0.3631899918173 1.0
C      1  0.5552584244495  0.4369109034325  0.3474244762233 1.0
C      1  0.6505976390541  0.4589276639437  0.3627981440932 1.0
C      1  0.6758641485076  0.5482323183116  0.3601498378893 1.0
C      1  0.6240287951560  0.6364285841635  0.3620885319353 1.0
C      1  0.5395429272458  0.6740343146172  0.3671100184136 1.0
C      1  0.4362660468068  0.6591723204024  0.3709152957353 1.0
C      1  0.3635065120997  0.6011417319134  0.3710617078331 1.0
C      1  0.3007205703982  0.3465491429359  0.5893175914968 1.0
C      1  0.3707739165096  0.2821092751977  0.5859631182963 1.0
C      1  0.5588398380996  0.2882272553185  0.5891402014400 1.0
C      1  0.6270636764861  0.4127410958474  0.7299682504077 1.0
C      1  0.7000177623267  0.4004373239241  0.5888287246684 1.0
C      1  0.7470121622716  0.5825183965845  0.5853941788439 1.0
C      1  0.6988223108515  0.6645388503494  0.5890536917780 1.0
C      1  0.5341066737089  0.7325685615613  0.5977601386021 1.0
C      1  0.4411059823384  0.7199932140391  0.6017138834532 1.0
C      1  0.3021934270582  0.6099009857362  0.6018390906806 1.0
C      1  0.2691345816064  0.5219806027850  0.5980316314843 1.0
C      1  0.2622844357194  0.5303559411935  0.4382505983154 1.0
C      1  0.3015114198636  0.3545417285137  0.4300142655175 1.0
C      1  0.3726526345986  0.2908657077635  0.4264906750182 1.0
C      1  0.5585506559820  0.2982681826564  0.4330931935811 1.0
C      1  0.6428656349073  0.3273350286131  0.4649885018654 1.0
C      1  0.6898607584572  0.4031805968566  0.4328020745179 1.0
C      1  0.7376284351871  0.5829246903200  0.4259664842307 1.0
C      1  0.6908704646601  0.6662218802070  0.4296296614676 1.0
C      1  0.5277335527372  0.7423184541515  0.4381745546466 1.0
C      1  0.4348879057781  0.7290897251492  0.4416351791351 1.0
C      1  0.2954712788853  0.6180880702657  0.4416428642336 1.0
C      1  0.6859832460848  0.4540811457131  0.6692064914991 1.0
C      1  0.6992385746613  0.5458947969208  0.6607291842155 1.0
C      1  0.6406877967728  0.6287979410921  0.6622666624113 1.0
C      1  0.5525126788234  0.6596642585423  0.6618442075750 1.0
C      1  0.4479394112367  0.6441808766539  0.6654431649127 1.0
C      1  0.3744805234569  0.5862838151584  0.6657233451684 1.0
C      1  0.3357591754719  0.4880354799002  0.6627297071745 1.0
C      1  0.3473895257983  0.3955597976705  0.6628938900317 1.0
C      1  0.4167127735518  0.3209837588489  0.6611138410670 1.0
C      1  0.5093115931960  0.3139309429692  0.6693573315092 1.0
C      1  0.5628210268911  0.3624439217155  0.7295364583470 1.0
C      1  0.5154468544851  0.4885091935688  0.4096254066047 1.0
C      1  0.4990973521738  0.5102520538255  0.4921572266380 1.0
C      1  0.5044794770786  0.5019286517403  0.5779315465983 1.0
END
