TITL C-34265-8737-14 -2.556 3375.00 -449.03803436 0 0 54 (Cs) n - 1
REM
REM Run started: at 2020.11.30 23:44:37 in /rds/project/t2_vol4/rds-t2-cs072/BORA/CARBON/AIRSS/Generating-Clusters/Str-Search/Higher-Symm/C10-100
REM VASP from code version vasp.5.4.4.18Apr17-6-g9f103f2a35 (build Oct 11 2019 16:45:47) gamma-only
REM
REM
REM
REM
REM ./C.cell (f39ce9773e2efe3fa5bbdf770a4156b8)
REM AIRSS Version 0.9.1 bugfix July 2018 build 013d7b7c2542+ Fri, 06 Jul 2018 19:26:36 +0100
REM compiler GCC version 4.8.5 20150623 (Red Hat 4.8.5-39)
REM options -cpp -mtune=generic -march=x86-64 -g -O0
REM seed 1631749551 1178741065 -1407634932 1656663321 -1600910507 -1739888787 -1951673292 1707549034 -731304673 2019444385 1697782326 -1304506141
REM
REM C.POTCAR (d86ddea03c3ceb6dc662c8ad6801f873)
REM 
CELL 1.54180   15.00000   15.00000   15.00000   90.00000   90.00000   90.00000
LATT -1
SFAC C  
C      1  0.3681284300480  0.6381062420065  0.5471506279561 1.0
C      1  0.4505644648408  0.3231129548503  0.5478502270872 1.0
C      1  0.6851305353419  0.5491415448057  0.5472680511805 1.0
C      1  0.3681283458747  0.6381064585766  0.4528495099108 1.0
C      1  0.4505643002756  0.3231126544412  0.4521498355572 1.0
C      1  0.6851304343434  0.5491417104654  0.4527316489657 1.0
C      1  0.4257407032423  0.4292442258826  0.3368406100414 1.0
C      1  0.5932492435309  0.4729616429525  0.3562191307794 1.0
C      1  0.4797087147913  0.5954746584888  0.3568290981378 1.0
C      1  0.4257408885885  0.4292443343338  0.6631595841826 1.0
C      1  0.5932493673724  0.4729617838702  0.6437809479995 1.0
C      1  0.4797090797428  0.5954746300600  0.6431707906430 1.0
C      1  0.5191302735633  0.4045346052062  0.2250427275742 1.0
C      1  0.5715433058574  0.5664889034578  0.2296557822091 1.0
C      1  0.4064377864128  0.5260259843668  0.2277939613206 1.0
C      1  0.5191303261925  0.4045347640949  0.7749573984897 1.0
C      1  0.5715434723457  0.5664889716208  0.7703442006005 1.0
C      1  0.4064380397650  0.5260258875808  0.7722059906299 1.0
C      1  0.6112185115654  0.3115449125755  0.4512234899490 1.0
C      1  0.6115099773072  0.6913369045015  0.4511561826745 1.0
C      1  0.2848952986832  0.5005593567863  0.4512698979997 1.0
C      1  0.6112185685977  0.3115446738278  0.5487767520993 1.0
C      1  0.6115100593792  0.6913369150926  0.5488437342595 1.0
C      1  0.2848952489750  0.5005593412649  0.5487301983637 1.0
C      1  0.5342718776772  0.3263463080526  0.5966147988595 1.0
C      1  0.6384862787488  0.6176528148489  0.5971270759826 1.0
C      1  0.3326210496538  0.5634550837677  0.5967865559942 1.0
C      1  0.5342718248462  0.3263463542749  0.4033852332558 1.0
C      1  0.6384860228117  0.6176525507582  0.4028726409958 1.0
C      1  0.3326209256877  0.5634552160785  0.4032133245358 1.0
C      1  0.6679302028383  0.4630245363984  0.4090749152396 1.0
C      1  0.4522349395209  0.6659436390139  0.4092238803253 1.0
C      1  0.3821766496855  0.3724313980095  0.4054626292998 1.0
C      1  0.6679302102600  0.4630245911439  0.5909248552858 1.0
C      1  0.4522348062397  0.6659436117723  0.5907759675009 1.0
C      1  0.3821766062087  0.3724312038557  0.5945372159197 1.0
C      1  0.3090673957975  0.4040340462835  0.5484378624505 1.0
C      1  0.6839060364016  0.3798220143308  0.5468279776030 1.0
C      1  0.5164107121786  0.7201932144004  0.5469305810030 1.0
C      1  0.3090671972940  0.4040339148254  0.4515619824842 1.0
C      1  0.6839060853321  0.3798220061408  0.4531719687589 1.0
C      1  0.5164108216192  0.7201933160312  0.4530693648450 1.0
C      1  0.4871682561993  0.5567786239401  0.8120809105687 1.0
C      1  0.4270253057406  0.4323497144683  0.7643364897104 1.0
C      1  0.5548284547200  0.4834489352380  0.8132734695819 1.0
C      1  0.4871680193624  0.5567785205875  0.1879188857128 1.0
C      1  0.4270243482610  0.4323481044652  0.2356644595659 1.0
C      1  0.5548280620180  0.4834490462809  0.1867261626646 1.0
C      1  0.4026705944568  0.5345832302506  0.6656456749752 1.0
C      1  0.5289085203299  0.4002690654435  0.6677987538816 1.0
C      1  0.5750374505101  0.5711357023380  0.6657568652537 1.0
C      1  0.4026703107996  0.5345833813585  0.3343544154103 1.0
C      1  0.5289082827442  0.4002692005386  0.3322014793107 1.0
C      1  0.5750375754196  0.5711359939944  0.3342432244140 1.0
END
