TITL C-34265-8737-7 -1.572 3375.00 -266.89003387 0 0 32 (Td) n - 1
REM
REM Run started: at 2020.11.30 22:08:30 in /rds/project/t2_vol4/rds-t2-cs072/BORA/CARBON/AIRSS/Generating-Clusters/Str-Search/Higher-Symm/C10-100
REM VASP from code version vasp.5.4.4.18Apr17-6-g9f103f2a35 (build Oct 11 2019 16:45:47) gamma-only
REM
REM
REM
REM
REM ./C.cell (f39ce9773e2efe3fa5bbdf770a4156b8)
REM AIRSS Version 0.9.1 bugfix July 2018 build 013d7b7c2542+ Fri, 06 Jul 2018 19:26:36 +0100
REM compiler GCC version 4.8.5 20150623 (Red Hat 4.8.5-39)
REM options -cpp -mtune=generic -march=x86-64 -g -O0
REM seed 758026427 -1689490122 -1909307092 -1718345514 2108192972 -485646490 2024803993 1790285368 170235483 584992035 -648894839 -710610760
REM
REM C.POTCAR (d86ddea03c3ceb6dc662c8ad6801f873)
REM 
CELL 1.54180   15.00000   15.00000   15.00000   90.00000   90.00000   90.00000
LATT -1
SFAC C  
C      1  0.4396229070369  0.3456596014086  0.4289290967247 1.0
C      1  0.4063834417330  0.6464094016079  0.5167887047100 1.0
C      1  0.4639373783335  0.3450851652185  0.5901036431150 1.0
C      1  0.5555440180312  0.6463541497152  0.5764057508973 1.0
C      1  0.5913480117692  0.3454036125869  0.4886818189263 1.0
C      1  0.5324046895712  0.6465319867134  0.4173763855016 1.0
C      1  0.4379492673456  0.5573604560610  0.6552270302009 1.0
C      1  0.5966614377553  0.4437249867819  0.6271025983404 1.0
C      1  0.6595807114898  0.5579602066772  0.4796921720339 1.0
C      1  0.5564943439739  0.4442306308179  0.3556099225705 1.0
C      1  0.3967442640670  0.5581691789537  0.3750737265228 1.0
C      1  0.3416235988025  0.4438259500280  0.5261301476139 1.0
C      1  0.4331102663784  0.4624985771167  0.6679043586810 1.0
C      1  0.6030871396813  0.5382403838440  0.6360115533596 1.0
C      1  0.6734425114327  0.4632695119944  0.4772854220793 1.0
C      1  0.5606191912394  0.5387340373008  0.3458730361341 1.0
C      1  0.3879153802169  0.4634515035294  0.3637711786284 1.0
C      1  0.3308269190060  0.5383038767122  0.5279986550825 1.0
C      1  0.6375305548829  0.4075711107469  0.5491072110501 1.0
C      1  0.6151233882720  0.5960345925085  0.4039615895083 1.0
C      1  0.4685283154973  0.4079296847846  0.3590554549308 1.0
C      1  0.3535222748729  0.5959688370488  0.4517778935417 1.0
C      1  0.3888420910004  0.4071912529896  0.6002112435708 1.0
C      1  0.5257848383207  0.5956125044647  0.6548073786150 1.0
C      1  0.3744948280979  0.5953922725572  0.5943116441820 1.0
C      1  0.5117845877349  0.4070112459711  0.6491037257686 1.0
C      1  0.6386492591389  0.5957537505810  0.5651878684378 1.0
C      1  0.6180576651233  0.4076403741042  0.4182311107379 1.0
C      1  0.4813534994181  0.5960429475042  0.3506805000161 1.0
C      1  0.3648154202547  0.4076897008893  0.4411940928537 1.0
C      1  0.4981607850300  0.6678094070154  0.5035476771143 1.0
C      1  0.4982967144925  0.3271391017671  0.5024560085506 1.0
END
