TITL C-35678-1752-3 -8.177 3375.00 -1401.78591625 0 0 172 (C4) n - 1
REM
REM Run started: at 2020.12.01 11:26:03 in /rds/project/t2_vol4/rds-t2-cs072/BORA/CARBON/AIRSS/Generating-Clusters/Str-Search/Higher-Symm/C100-200
REM VASP from code version vasp.5.4.4.18Apr17-6-g9f103f2a35 (build Oct 11 2019 16:45:47) gamma-only
REM
REM
REM
REM
REM ./C.cell (533062f00bc710175b3da973d35f2034)
REM AIRSS Version 0.9.1 bugfix July 2018 build 013d7b7c2542+ Fri, 06 Jul 2018 19:26:36 +0100
REM compiler GCC version 4.8.5 20150623 (Red Hat 4.8.5-39)
REM options -cpp -mtune=generic -march=x86-64 -g -O0
REM seed -795172830 876314961 -575163216 -1592368885 74637395 -504401000 -2054354552 -932907998 -388739570 1823296150 -664926675 -1528957799
REM
REM C.POTCAR (d86ddea03c3ceb6dc662c8ad6801f873)
REM 
CELL 1.54180   15.00000   15.00000   15.00000   90.00000   90.00000   90.00000
LATT -1
SFAC C  
C      1  0.7793502085364  0.7357932368931  0.4548016944628 1.0
C      1  0.7793510572439  0.5452003157213  0.7357914173570 1.0
C      1  0.7793538521133  0.2642107828693  0.5451906377261 1.0
C      1  0.7793535961638  0.4548031816905  0.2642071112943 1.0
C      1  0.2073774516479  0.2706453100896  0.4565051489756 1.0
C      1  0.2073782166057  0.4564782648658  0.7293514715444 1.0
C      1  0.2073762408263  0.7293527890437  0.5434971013518 1.0
C      1  0.2073785221625  0.5435192437233  0.2706483354804 1.0
C      1  0.5444501254948  0.7038530031054  0.8066118179546 1.0
C      1  0.5444542606172  0.1933886160678  0.7038523452035 1.0
C      1  0.5444516173605  0.2961476545441  0.1933879389457 1.0
C      1  0.5444507132755  0.8066126912287  0.2961463993275 1.0
C      1  0.4482397537794  0.2983951026091  0.8131350580349 1.0
C      1  0.4482361865379  0.8131326689897  0.7016041871549 1.0
C      1  0.4482374884811  0.7016047494596  0.1868656522373 1.0
C      1  0.4482385063012  0.1868661998917  0.2983960688439 1.0
C      1  0.6129568547434  0.6571560236903  0.7567315451542 1.0
C      1  0.6129599499789  0.2432686280581  0.6571557044983 1.0
C      1  0.6129582527532  0.3428441478149  0.2432688033500 1.0
C      1  0.6129571105346  0.7567318512160  0.3428435404987 1.0
C      1  0.3830343828717  0.3349122024924  0.7574261906906 1.0
C      1  0.3830313096851  0.7574232452305  0.6650877777899 1.0
C      1  0.3830330550003  0.6650864415262  0.2425743017920 1.0
C      1  0.3830334025216  0.2425740545160  0.3349136871043 1.0
C      1  0.6664747020211  0.7888018382116  0.5594298015995 1.0
C      1  0.6664771178085  0.4405706543528  0.7888005054960 1.0
C      1  0.6664771506897  0.2111993570120  0.4405696893776 1.0
C      1  0.6664761665105  0.5594306175024  0.2111980833895 1.0
C      1  0.3244335311185  0.2119345613568  0.5511962944459 1.0
C      1  0.3244277885477  0.5511912528680  0.7880655183391 1.0
C      1  0.3244315691805  0.7880639135255  0.4488049067111 1.0
C      1  0.3244277210037  0.4488063020436  0.2119356275046 1.0
C      1  0.7653937427768  0.5731663721245  0.4836015664946 1.0
C      1  0.7653942720312  0.5163991511936  0.5731651230482 1.0
C      1  0.7653937281470  0.4268356264649  0.5163986407506 1.0
C      1  0.7653945318854  0.4836039715521  0.4268338889617 1.0
C      1  0.2368500895216  0.4291502074305  0.4769499275666 1.0
C      1  0.2368482452517  0.4769469098843  0.5708487995778 1.0
C      1  0.2368497813537  0.5708476647009  0.5230510296430 1.0
C      1  0.2368480431017  0.5230509293524  0.4291515364030 1.0
C      1  0.3903522259283  0.4321555817855  0.7616524728005 1.0
C      1  0.3903503590475  0.2383470437890  0.4321575346613 1.0
C      1  0.3903511130316  0.5678428047592  0.2383478518878 1.0
C      1  0.3903498759290  0.7616515834687  0.5678438148497 1.0
C      1  0.6036650184893  0.5609954709171  0.7630492561131 1.0
C      1  0.6036642429518  0.7630495447635  0.4390045714431 1.0
C      1  0.6036666636493  0.4390049775914  0.2369515875075 1.0
C      1  0.6036684364707  0.2369516426751  0.5609949866049 1.0
C      1  0.1353900921133  0.3525409495712  0.6219759311605 1.0
C      1  0.1353932726076  0.3780232203929  0.3525576857178 1.0
C      1  0.1353907861947  0.6474551215114  0.3780243585667 1.0
C      1  0.1353932711982  0.6219746630727  0.6474440388265 1.0
C      1  0.8726199834295  0.6384678445583  0.6285349101632 1.0
C      1  0.8726176001314  0.6285395069049  0.3615248238730 1.0
C      1  0.8726262367485  0.3615377457226  0.3714663794433 1.0
C      1  0.8726177999674  0.3714650384387  0.6384733510011 1.0
C      1  0.1543129204260  0.4746580421742  0.2512270439375 1.0
C      1  0.1543125706885  0.7487616781017  0.4746304053449 1.0
C      1  0.1543131804377  0.5253400486201  0.7487729640172 1.0
C      1  0.1543127408517  0.2512376539206  0.5253724806614 1.0
C      1  0.8536354304621  0.5028054664854  0.2752106734561 1.0
C      1  0.8536381636790  0.2752136911785  0.4971939145933 1.0
C      1  0.8536353509335  0.4972016797570  0.7247898148031 1.0
C      1  0.8536364606255  0.7247902852971  0.5027988483667 1.0
C      1  0.1789198235022  0.3613712545478  0.4271020897181 1.0
C      1  0.1789187910359  0.5729121948293  0.3613784039135 1.0
C      1  0.1789194385509  0.6386265575870  0.5728997191729 1.0
C      1  0.1789196929164  0.4270850834095  0.6386221607505 1.0
C      1  0.8282953221217  0.6487968040926  0.4423703798905 1.0
C      1  0.8282997283676  0.4423753362071  0.3512057773226 1.0
C      1  0.8282969119170  0.3512069222338  0.5576251470171 1.0
C      1  0.8283002510051  0.5576302708050  0.6487939036227 1.0
C      1  0.5143459506870  0.8621437669694  0.6333462957546 1.0
C      1  0.5143480605024  0.3666533997799  0.8621436691761 1.0
C      1  0.5143477132599  0.1378557024032  0.3666537936930 1.0
C      1  0.5143468623312  0.6333462916697  0.1378564312397 1.0
C      1  0.4750523209310  0.1456832226277  0.6428052237080 1.0
C      1  0.4750489139878  0.6428041230293  0.8543147516932 1.0
C      1  0.4750492210879  0.8543162700753  0.3571951748408 1.0
C      1  0.4750497280536  0.3571954102313  0.1456853628832 1.0
C      1  0.6107444926933  0.1600359498162  0.4931272969605 1.0
C      1  0.6107422260104  0.5068731237423  0.1600359271719 1.0
C      1  0.6107417532724  0.8399650913261  0.5068723192365 1.0
C      1  0.6107424493032  0.4931277239758  0.8399636937196 1.0
C      1  0.3866349631379  0.8365160630712  0.4965634743171 1.0
C      1  0.3866335684684  0.4965621910098  0.1634835296969 1.0
C      1  0.3866363833756  0.1634820493059  0.5034379721793 1.0
C      1  0.3866343259688  0.5034361332536  0.8365173138733 1.0
C      1  0.3358869796900  0.2231767006006  0.6423640794969 1.0
C      1  0.3358844323794  0.3576384809338  0.2231792015934 1.0
C      1  0.3358850312364  0.7768215488302  0.3576375876205 1.0
C      1  0.3358833001743  0.6423593218616  0.7768226432007 1.0
C      1  0.6518416943424  0.7713122012417  0.6496689723733 1.0
C      1  0.6518425442569  0.6496693745569  0.2286877469799 1.0
C      1  0.6518440060786  0.2286872688629  0.3503303547719 1.0
C      1  0.6518448984786  0.3503321262806  0.7713119018450 1.0
C      1  0.5825731053690  0.3097520432092  0.8222815041220 1.0
C      1  0.5825718702269  0.1777173960268  0.3097513104790 1.0
C      1  0.5825712140078  0.6902484429377  0.1777181921759 1.0
C      1  0.5825702724961  0.8222821943006  0.6902483138850 1.0
C      1  0.3969705578252  0.6869908488307  0.8311689926225 1.0
C      1  0.3969716887203  0.8311699120527  0.3130071385335 1.0
C      1  0.3969722074098  0.3130078467534  0.1688322358665 1.0
C      1  0.3969738534983  0.1688273017561  0.6869934420578 1.0
C      1  0.8882994614723  0.5877398309909  0.2917635641458 1.0
C      1  0.8882955738491  0.7082448896270  0.5877314924027 1.0
C      1  0.8882922201283  0.4122635828029  0.7082330489710 1.0
C      1  0.8883011692104  0.2917647456348  0.4122640404078 1.0
C      1  0.1044489043358  0.4055242894485  0.2747401256895 1.0
C      1  0.1044195929734  0.2747175022840  0.5944999615807 1.0
C      1  0.1044485292682  0.5944743511287  0.7252621102621 1.0
C      1  0.1044212202964  0.7252802844808  0.4055017741292 1.0
C      1  0.5138173196450  0.4592337833232  0.2859813877760 1.0
C      1  0.5138156333001  0.7140198302693  0.4592334666710 1.0
C      1  0.5138168644713  0.5407661326934  0.7140194202810 1.0
C      1  0.5138183813400  0.2859802745434  0.5407666181272 1.0
C      1  0.4818473315997  0.5486138388487  0.2885265234973 1.0
C      1  0.4818478505910  0.2885262146147  0.4513863595716 1.0
C      1  0.4818487253145  0.4513854156833  0.7114739123060 1.0
C      1  0.4818467752290  0.7114723250254  0.5486137560312 1.0
C      1  0.4706815296661  0.5901580733297  0.6478640382156 1.0
C      1  0.4706828118019  0.3521355175628  0.5901579987252 1.0
C      1  0.4706818798910  0.4098419505088  0.3521366528580 1.0
C      1  0.4706809805313  0.6478643344719  0.4098413197985 1.0
C      1  0.5266004240482  0.4051992001841  0.6441387541039 1.0
C      1  0.5265987945833  0.6441383896126  0.5948005463230 1.0
C      1  0.5265988189100  0.5948005459980  0.3558605319805 1.0
C      1  0.5265996165105  0.3558603930140  0.4051996168703 1.0
C      1  0.6864061899840  0.5136099488966  0.7235542309682 1.0
C      1  0.6864087886185  0.2764462454474  0.5136076088958 1.0
C      1  0.6864072748384  0.4863913789152  0.2764455330284 1.0
C      1  0.6864053030988  0.7235555959091  0.4863913741081 1.0
C      1  0.3068527202108  0.4794212192084  0.7211848922163 1.0
C      1  0.3068561570809  0.7211834135372  0.5205720163663 1.0
C      1  0.3068528523142  0.5205767372357  0.2788158207890 1.0
C      1  0.3068572486510  0.2788146753586  0.4794295047902 1.0
C      1  0.5292744496179  0.5374455065970  0.1225492959836 1.0
C      1  0.5292742589691  0.8774518349353  0.5374454454284 1.0
C      1  0.5292757608844  0.4625542759307  0.8774508994138 1.0
C      1  0.5292769800651  0.1225472553263  0.4625542341553 1.0
C      1  0.4661336229313  0.4601714418738  0.1285292637646 1.0
C      1  0.4661358315278  0.1285268517625  0.5398285284995 1.0
C      1  0.4661341958162  0.5398275236915  0.8714710026387 1.0
C      1  0.4661335624064  0.8714720101162  0.4601717023862 1.0
C      1  0.3721441423836  0.4142675802728  0.3876243435792 1.0
C      1  0.3721443095578  0.6123754972506  0.4142685224665 1.0
C      1  0.3721439559463  0.5857303830391  0.6123777928328 1.0
C      1  0.3721454999537  0.3876226447998  0.5857322098413 1.0
C      1  0.6280170526187  0.5892308753426  0.3910984151375 1.0
C      1  0.6280177190119  0.3910993743512  0.4107689357914 1.0
C      1  0.6280170465147  0.4107697268812  0.6089010755998 1.0
C      1  0.6280154755832  0.6089015455539  0.5892308218994 1.0
C      1  0.3292140663254  0.4854420819740  0.6214570537200 1.0
C      1  0.3292158362297  0.3785432821974  0.4854450236432 1.0
C      1  0.3292139045238  0.5145561309447  0.3785436820289 1.0
C      1  0.3292148584991  0.6214552504028  0.5145559466586 1.0
C      1  0.6714001996800  0.5093375047439  0.6220667805008 1.0
C      1  0.6713981732553  0.6220686982387  0.4906640409724 1.0
C      1  0.6713996755214  0.4906641735751  0.3779315727390 1.0
C      1  0.6714003847784  0.3779323764255  0.5093352910786 1.0
C      1  0.3473292567436  0.3136540924979  0.6697762638949 1.0
C      1  0.3473274633700  0.3302248798257  0.3136572390593 1.0
C      1  0.3473276784351  0.6863438194440  0.3302247780857 1.0
C      1  0.3473250232941  0.6697733532374  0.6863446032174 1.0
C      1  0.6503762422107  0.6795831702051  0.6728443492620 1.0
C      1  0.6503769177667  0.6728443910922  0.3204169518315 1.0
C      1  0.6503781329637  0.3204164300554  0.3271553705230 1.0
C      1  0.6503780804710  0.3271561849709  0.6795830719897 1.0
C      1  0.5232180348022  0.7580585341648  0.2150600975999 1.0
C      1  0.5232169588690  0.7849390703554  0.7580580865454 1.0
C      1  0.5232207781358  0.2419418704220  0.7849396901573 1.0
C      1  0.5232184857182  0.2150605015093  0.2419416101301 1.0
END
