TITL C-35678-1752-8 -7.957 3375.00 -1380.45908827 0 0 164 (C1) n - 1
REM
REM Run started: at 2020.12.01 17:15:36 in /rds/project/t2_vol4/rds-t2-cs072/BORA/CARBON/AIRSS/Generating-Clusters/Str-Search/Higher-Symm/C100-200
REM VASP from code version vasp.5.4.4.18Apr17-6-g9f103f2a35 (build Oct 11 2019 16:45:47) gamma-only
REM
REM
REM
REM
REM ./C.cell (533062f00bc710175b3da973d35f2034)
REM AIRSS Version 0.9.1 bugfix July 2018 build 013d7b7c2542+ Fri, 06 Jul 2018 19:26:36 +0100
REM compiler GCC version 4.8.5 20150623 (Red Hat 4.8.5-39)
REM options -cpp -mtune=generic -march=x86-64 -g -O0
REM seed -946161868 -975342686 797615460 -1840620485 -1723243645 -2052331059 1230349222 -1869613212 -757611672 -297131938 -629166761 -1593296324
REM
REM C.POTCAR (d86ddea03c3ceb6dc662c8ad6801f873)
REM 
CELL 1.54180   15.00000   15.00000   15.00000   90.00000   90.00000   90.00000
LATT -1
SFAC C  
C      1  0.7595192714632  0.5137185617678  0.7768321433172 1.0
C      1  0.7167739548089  0.4305208679612  0.7773236716484 1.0
C      1  0.6106312108442  0.2810692433489  0.7699460379969 1.0
C      1  0.5192843988964  0.2501340875421  0.7672349775874 1.0
C      1  0.3457593509449  0.2995305972404  0.7643001677881 1.0
C      1  0.2828645453088  0.3724032533758  0.7640756686791 1.0
C      1  0.2608912410528  0.5535594679238  0.7640630736173 1.0
C      1  0.3044616762793  0.6408138683205  0.7655006786584 1.0
C      1  0.4201140599744  0.8029194550738  0.7763680833557 1.0
C      1  0.5026466829142  0.7896765613285  0.7604141396031 1.0
C      1  0.7149723600389  0.5975148106032  0.7942844505207 1.0
C      1  0.6698215242366  0.5208220683443  0.4644885881903 1.0
C      1  0.6622254220368  0.4256662174301  0.4634525033707 1.0
C      1  0.5963957967238  0.3540781655445  0.4653325009536 1.0
C      1  0.5043657400865  0.3306151895991  0.4654174468808 1.0
C      1  0.4105083372028  0.3598271412407  0.4652130084077 1.0
C      1  0.3475387310647  0.4306480582850  0.4650353204401 1.0
C      1  0.3320417699213  0.5280751049354  0.4666583332308 1.0
C      1  0.3689193854336  0.6146552935733  0.4683162883956 1.0
C      1  0.4547953350059  0.6640700400126  0.4746273868519 1.0
C      1  0.5528921677462  0.6704637848434  0.4750263730695 1.0
C      1  0.6278118098298  0.6136158836403  0.4686934929499 1.0
C      1  0.2983359525486  0.7106452010487  0.7046696810789 1.0
C      1  0.3558449685302  0.7866548680246  0.7105825720474 1.0
C      1  0.5691751769195  0.7312097328498  0.7396370618124 1.0
C      1  0.7661839310042  0.6415796172775  0.7228622913709 1.0
C      1  0.8123863063982  0.5562990367891  0.7090828642213 1.0
C      1  0.7311125970663  0.3660785506131  0.7068686080560 1.0
C      1  0.6735235066082  0.2909979598457  0.7025010679677 1.0
C      1  0.4689598536433  0.2226380535550  0.6960069037382 1.0
C      1  0.3768084017820  0.2488307520986  0.6944635987644 1.0
C      1  0.2353020871234  0.4105984135658  0.6948843255406 1.0
C      1  0.2214478591934  0.5058036197063  0.6955197386662 1.0
C      1  0.1185233604220  0.5940955474175  0.4212918482730 1.0
C      1  0.2215163283933  0.7917795633664  0.4159830895014 1.0
C      1  0.4189422430961  0.8996756688101  0.4290375895493 1.0
C      1  0.6360540139657  0.8399245690862  0.4659620354490 1.0
C      1  0.8296807452971  0.7268402026788  0.4399030594155 1.0
C      1  0.9010833733186  0.5149967978753  0.4314189884893 1.0
C      1  0.8470680491969  0.2976193228845  0.4264845748882 1.0
C      1  0.6812914705935  0.1488386889115  0.4286299810769 1.0
C      1  0.4620017140459  0.1045472808752  0.4205965664641 1.0
C      1  0.2562923059653  0.1909310576551  0.4208969763654 1.0
C      1  0.1240297158199  0.3715941129274  0.4171415472395 1.0
C      1  0.5081029538257  0.2330023175405  0.2660298029609 1.0
C      1  0.3620779416864  0.2734650816414  0.2634188467093 1.0
C      1  0.2610385285389  0.3863835905167  0.2625846540995 1.0
C      1  0.2364658642055  0.5356973855815  0.2624838901531 1.0
C      1  0.2964771045656  0.6752809238794  0.2641265332378 1.0
C      1  0.4231579314589  0.7585029015331  0.2723759966315 1.0
C      1  0.5732797762481  0.7562069868363  0.2858111797909 1.0
C      1  0.7028378705308  0.6794542608657  0.2823375912332 1.0
C      1  0.7701257393959  0.5437355519600  0.2734528784564 1.0
C      1  0.7513396960836  0.3926038470196  0.2693666011799 1.0
C      1  0.6530655368153  0.2772134265026  0.2680031461070 1.0
C      1  0.1272819541383  0.4411221280283  0.3500527350651 1.0
C      1  0.1559858509672  0.6512918927612  0.3543147929689 1.0
C      1  0.2885325854219  0.8198375188506  0.3519556716758 1.0
C      1  0.4953483028151  0.8721783761698  0.3767770916887 1.0
C      1  0.6907787127887  0.8077760994251  0.3917080194078 1.0
C      1  0.8453995519986  0.6625185902669  0.3684246718131 1.0
C      1  0.8781281866998  0.4510065071735  0.3626589760805 1.0
C      1  0.7929828521417  0.2548088756171  0.3593884164471 1.0
C      1  0.6140425663331  0.1412058588852  0.3600574826550 1.0
C      1  0.4008155653342  0.1350342339237  0.3522944206719 1.0
C      1  0.2212320589692  0.2502622649682  0.3537096146572 1.0
C      1  0.4719036353318  0.5933761134912  0.7854412197262 1.0
C      1  0.5569542238988  0.6468459825661  0.7897661363763 1.0
C      1  0.6261933778310  0.5939458061787  0.8241849289446 1.0
C      1  0.6058127747112  0.5106977579807  0.8756643509411 1.0
C      1  0.6381761897385  0.4273885162054  0.8362456734718 1.0
C      1  0.5885063865536  0.3488629683254  0.8341497744181 1.0
C      1  0.4920525269582  0.3192550370270  0.8318430166043 1.0
C      1  0.4037219272240  0.3457028286060  0.8293047981162 1.0
C      1  0.3381236864421  0.4223597976935  0.8271813829600 1.0
C      1  0.3279918146990  0.5137986526968  0.8224064762487 1.0
C      1  0.3794560418009  0.5975958100031  0.8130810141943 1.0
C      1  0.2515816996117  0.2805388884187  0.5688985676743 1.0
C      1  0.1703532432692  0.4491536711587  0.5586066475153 1.0
C      1  0.1923348207581  0.6356190903093  0.5722173566786 1.0
C      1  0.2964081318746  0.7875245189098  0.5660204134497 1.0
C      1  0.4414779552996  0.8681033989426  0.5924448106389 1.0
C      1  0.6971450013390  0.7555427561762  0.6109507507910 1.0
C      1  0.8299099341090  0.6369723863178  0.5850918644993 1.0
C      1  0.8419612464855  0.4527087483510  0.5809802301305 1.0
C      1  0.7578618901396  0.2846038381865  0.5705352963051 1.0
C      1  0.5980363039578  0.1824173023382  0.5759423847484 1.0
C      1  0.4104182916569  0.1812784816836  0.5586185546089 1.0
C      1  0.1657522827089  0.2922598361863  0.4199684234088 1.0
C      1  0.1031756668801  0.5060368425219  0.4174931346255 1.0
C      1  0.1693003557171  0.7192900853284  0.4204939863310 1.0
C      1  0.3321196492931  0.8733257846448  0.4206105023290 1.0
C      1  0.5516877670746  0.8737576108242  0.4572587307855 1.0
C      1  0.7607843534849  0.7842219066029  0.4526226031453 1.0
C      1  0.8906621882188  0.6045056243740  0.4315898896110 1.0
C      1  0.8811090900916  0.3804813081485  0.4278756980790 1.0
C      1  0.7575835506876  0.1955643990039  0.4273016267980 1.0
C      1  0.5514277070719  0.1098279000553  0.4257077425674 1.0
C      1  0.3300826965983  0.1401226213161  0.4184756151852 1.0
C      1  0.8868073761951  0.4453638195996  0.5007318009812 1.0
C      1  0.7993510173643  0.2498084435714  0.4980730144194 1.0
C      1  0.6133491062573  0.1344255744035  0.4993241834759 1.0
C      1  0.3958516816974  0.1256008034143  0.4896644431593 1.0
C      1  0.2147247450120  0.2459227544689  0.4925000364253 1.0
C      1  0.1159428483777  0.4392661092051  0.4877450878166 1.0
C      1  0.1485571243293  0.6551027085416  0.4936293822300 1.0
C      1  0.2740558755304  0.8287453777063  0.4876800014145 1.0
C      1  0.4720668471639  0.8936885857062  0.5120941456232 1.0
C      1  0.7032498074788  0.8027566670711  0.5303961892541 1.0
C      1  0.8641781560724  0.6626608015260  0.5045930991703 1.0
C      1  0.4498415695910  0.6646696682114  0.5675340822293 1.0
C      1  0.5542995597907  0.6756789050216  0.5821641907392 1.0
C      1  0.6261924956782  0.6019811818447  0.5647447958982 1.0
C      1  0.6724072196642  0.5191649465821  0.5620954724381 1.0
C      1  0.6781217140053  0.4194275715014  0.5671655528809 1.0
C      1  0.6075458931291  0.3394145896976  0.5657769163699 1.0
C      1  0.5034587980969  0.3112124275328  0.5655101405708 1.0
C      1  0.3990752180100  0.3413101319857  0.5649109409315 1.0
C      1  0.3274373246711  0.4213664423500  0.5645061150606 1.0
C      1  0.3090872312474  0.5286848662586  0.5655742771151 1.0
C      1  0.3515610701500  0.6286193113288  0.5701511534526 1.0
C      1  0.4203857005518  0.2015976399284  0.2875190837355 1.0
C      1  0.2715820984639  0.2944335739801  0.2861992593441 1.0
C      1  0.1955961839805  0.4523542481443  0.2849577028956 1.0
C      1  0.2173888434792  0.6262012808754  0.2863340033566 1.0
C      1  0.3293463010256  0.7617860594542  0.2895039497088 1.0
C      1  0.4973335892872  0.8088593373095  0.3067555029697 1.0
C      1  0.6635858817790  0.7608371459177  0.3147911076245 1.0
C      1  0.7842131278319  0.6342658524122  0.3022283251020 1.0
C      1  0.8133186699644  0.4609651837248  0.2947869928720 1.0
C      1  0.7425851630664  0.2998781978884  0.2924585243566 1.0
C      1  0.5957842719731  0.2043037753546  0.2914209227142 1.0
C      1  0.5506457714345  0.6704679470595  0.2466599457254 1.0
C      1  0.6355503610581  0.6191416285656  0.2460850846804 1.0
C      1  0.6793236335681  0.5296381267124  0.2420261214914 1.0
C      1  0.6667349954429  0.4308075414722  0.2390555677142 1.0
C      1  0.6023756654068  0.3550003940189  0.2370900087695 1.0
C      1  0.5073950532232  0.3258796539047  0.2354395224836 1.0
C      1  0.4115597492990  0.3524316945454  0.2337972605564 1.0
C      1  0.3453295420286  0.4265446956792  0.2333701972703 1.0
C      1  0.3292722540602  0.5245458225723  0.2337922690474 1.0
C      1  0.3685741839245  0.6159144156523  0.2357516667487 1.0
C      1  0.4513796229135  0.6705374612935  0.2407112357422 1.0
C      1  0.6635349683406  0.2590509134122  0.6059414514071 1.0
C      1  0.5005477129637  0.2104439993451  0.6004703605824 1.0
C      1  0.3476009834948  0.2536816759948  0.5975866304583 1.0
C      1  0.2350288411614  0.3793818801795  0.5981112893385 1.0
C      1  0.2091634363815  0.5365191466617  0.5993132261761 1.0
C      1  0.2728702436936  0.6947135703988  0.6046761914319 1.0
C      1  0.3655476313843  0.8263756067489  0.6232461551117 1.0
C      1  0.6055537139565  0.7364428813018  0.6462514903238 1.0
C      1  0.7666716806998  0.6909629338425  0.6435893538989 1.0
C      1  0.8379820331266  0.5430193116955  0.6227637860000 1.0
C      1  0.7677931463957  0.3811515275996  0.6103818474814 1.0
C      1  0.5346563202577  0.5095748669975  0.0361419196936 1.0
C      1  0.5016415382671  0.5001289028882  0.4677879480102 1.0
C      1  0.5028194322655  0.5015887549579  0.3791338336855 1.0
C      1  0.5058302120635  0.5029755884518  0.2060461890022 1.0
C      1  0.5004830500625  0.4982155162069  0.5525764606378 1.0
C      1  0.4843359383242  0.5280623768818  0.7209485109124 1.0
C      1  0.5156928936987  0.5060592419397  0.1223843477600 1.0
C      1  0.5026999947909  0.5011698539451  0.2947820218364 1.0
C      1  0.4926215244497  0.5040510269624  0.6402569850589 1.0
C      1  0.5620641857216  0.5126504292785  0.9565296035415 1.0
END
