TITL C-35678-1752-9 -5.277 3375.00 -907.34877017 0 0 109 (C1) n - 1
REM
REM Run started: at 2020.12.01 17:56:22 in /rds/project/t2_vol4/rds-t2-cs072/BORA/CARBON/AIRSS/Generating-Clusters/Str-Search/Higher-Symm/C100-200
REM VASP from code version vasp.5.4.4.18Apr17-6-g9f103f2a35 (build Oct 11 2019 16:45:47) gamma-only
REM
REM
REM
REM
REM ./C.cell (533062f00bc710175b3da973d35f2034)
REM AIRSS Version 0.9.1 bugfix July 2018 build 013d7b7c2542+ Fri, 06 Jul 2018 19:26:36 +0100
REM compiler GCC version 4.8.5 20150623 (Red Hat 4.8.5-39)
REM options -cpp -mtune=generic -march=x86-64 -g -O0
REM seed -772664292 -1616477775 353183113 -878502229 1701922991 -935650808 788071767 -117401009 -2055215764 -522283951 1105093873 616728291
REM
REM C.POTCAR (d86ddea03c3ceb6dc662c8ad6801f873)
REM 
CELL 1.54180   15.00000   15.00000   15.00000   90.00000   90.00000   90.00000
LATT -1
SFAC C  
C      1  0.2503567598813  0.6760592713413  0.5449888021368 1.0
C      1  0.2487827450907  0.3751844384818  0.6214301930919 1.0
C      1  0.2506270414521  0.4594581511692  0.3226518203101 1.0
C      1  0.7554126502987  0.3287506189119  0.5470148350112 1.0
C      1  0.7585549682962  0.6292507818420  0.6250990101199 1.0
C      1  0.7528874479146  0.5508412134239  0.3275032545749 1.0
C      1  0.7551577626288  0.3318180066358  0.4500422832512 1.0
C      1  0.7495373700886  0.6354089578912  0.3749784904057 1.0
C      1  0.7543836024006  0.5439762003967  0.6734889319135 1.0
C      1  0.2579128235701  0.6764392707236  0.4467478063804 1.0
C      1  0.2493012759600  0.3750288890999  0.3716204194689 1.0
C      1  0.2482786900978  0.4594437455763  0.6702801641305 1.0
C      1  0.3803501498585  0.2711609891466  0.3322287759426 1.0
C      1  0.3836503001332  0.7770542707428  0.3768403168503 1.0
C      1  0.3733791800537  0.4637067225101  0.7875870748680 1.0
C      1  0.6244851594679  0.7485137794044  0.3268547420278 1.0
C      1  0.6251928676942  0.2404298565591  0.3855007176139 1.0
C      1  0.6211519537379  0.5267495859454  0.7838655654469 1.0
C      1  0.6238235625917  0.7192925322412  0.6596513973938 1.0
C      1  0.6254252179116  0.2365140622342  0.6142795926847 1.0
C      1  0.6217329839465  0.5300206818635  0.2249412478698 1.0
C      1  0.3780194513249  0.2692016349385  0.6657417885323 1.0
C      1  0.3825734527917  0.7517500706187  0.6089952975739 1.0
C      1  0.3797101694270  0.4695348316754  0.2135395592171 1.0
C      1  0.7248700806984  0.7547097320708  0.5399373221238 1.0
C      1  0.7202970779245  0.3372282799044  0.6966860340726 1.0
C      1  0.7245388326909  0.4119889205656  0.2586953409477 1.0
C      1  0.2813530491344  0.2496943045520  0.5381723191043 1.0
C      1  0.2793622383088  0.6631948027640  0.6980048828949 1.0
C      1  0.2863145783548  0.5950256072425  0.2568774245651 1.0
C      1  0.2806478983332  0.2501445353870  0.4566122038189 1.0
C      1  0.2933194245491  0.6655912416135  0.2974803641720 1.0
C      1  0.2831785877708  0.5921061312510  0.7386988957376 1.0
C      1  0.7204640263665  0.7631408483938  0.4583533036560 1.0
C      1  0.7186752826065  0.3420801848721  0.3016174852312 1.0
C      1  0.7190264474037  0.4079691795794  0.7373990581358 1.0
C      1  0.4245235336024  0.5306645837049  0.4547752066100 1.0
C      1  0.4370058248831  0.5919381075642  0.6137330501330 1.0
C      1  0.4792301811116  0.3347124791387  0.5467433910525 1.0
C      1  0.5304332889049  0.4609337872354  0.3455249913702 1.0
C      1  0.5284472763519  0.3737791717327  0.6203687346318 1.0
C      1  0.5651689459188  0.6537706939092  0.5160672292694 1.0
C      1  0.5198283201271  0.4496466198791  0.6697005333498 1.0
C      1  0.5288820181074  0.3780222648938  0.3830914310397 1.0
C      1  0.5555774302772  0.6056267615744  0.4490363397694 1.0
C      1  0.4620142637659  0.5242201579351  0.6726810330477 1.0
C      1  0.4118583844201  0.5660917278076  0.5306876659126 1.0
C      1  0.4804142010040  0.3360234972684  0.4566384865472 1.0
C      1  0.5440604103933  0.2796449449326  0.6635256224072 1.0
C      1  0.5398257652996  0.4705934799507  0.2374538106390 1.0
C      1  0.5478807864066  0.7207696139809  0.5879956682032 1.0
C      1  0.4579302357393  0.6912635078295  0.6426679240815 1.0
C      1  0.4575091497352  0.5288478760931  0.2133798887233 1.0
C      1  0.4601589838016  0.2486778824686  0.6050513932764 1.0
C      1  0.4618179007234  0.7665099213313  0.3166908598960 1.0
C      1  0.4556668055619  0.5245467656888  0.7744016588490 1.0
C      1  0.4606641351654  0.2516763293351  0.3954311795566 1.0
C      1  0.5439673375398  0.2841080295656  0.3390105544399 1.0
C      1  0.5403511884948  0.4609866030842  0.7731299073042 1.0
C      1  0.5462394561019  0.7957200349006  0.3623860161537 1.0
C      1  0.7058542969042  0.5035729154656  0.2584339827566 1.0
C      1  0.7115377589461  0.7099142614717  0.6212383064078 1.0
C      1  0.7071884404904  0.2886211324811  0.6168044898048 1.0
C      1  0.2978705230727  0.5012040033626  0.2537874706805 1.0
C      1  0.2964840307896  0.2946085905682  0.6198199718877 1.0
C      1  0.2953929076863  0.7124300475212  0.6184634796362 1.0
C      1  0.2934118842649  0.4978790610484  0.7431640931684 1.0
C      1  0.2969723681422  0.2947408428845  0.3751702607047 1.0
C      1  0.3067094443217  0.7164005208413  0.3760217170264 1.0
C      1  0.7038223410860  0.5009433474217  0.7403685491683 1.0
C      1  0.7029826423437  0.7206123222132  0.3759207654301 1.0
C      1  0.7067503692482  0.2918123397350  0.3790050397462 1.0
C      1  0.7972451976063  0.4202072695057  0.5488672960005 1.0
C      1  0.7930920674259  0.5048737092465  0.4051805780113 1.0
C      1  0.7979621905780  0.5854050438676  0.5469556526359 1.0
C      1  0.2074336190560  0.5863262693888  0.5431565971378 1.0
C      1  0.2088677317265  0.5051470878508  0.4006527259591 1.0
C      1  0.2063815051782  0.4210326475270  0.5424879446725 1.0
C      1  0.2118908394572  0.5863412197389  0.4461716503101 1.0
C      1  0.2067529848225  0.5052077712588  0.5908482007368 1.0
C      1  0.2057343488553  0.4209051042195  0.4495119097501 1.0
C      1  0.7946870642921  0.4225817970024  0.4508844228111 1.0
C      1  0.7976493728270  0.4991076879114  0.5957343634466 1.0
C      1  0.7926388054754  0.5888804676145  0.4544713337533 1.0
C      1  0.5876689984096  0.7032331749065  0.2524967623037 1.0
C      1  0.5873620764422  0.6116012304774  0.7985526931836 1.0
C      1  0.5930050778287  0.1818054547953  0.4491840370778 1.0
C      1  0.4136866096575  0.2968335268295  0.2504311089357 1.0
C      1  0.4067888458798  0.3782520440630  0.8026463349288 1.0
C      1  0.4164368621014  0.8256485478249  0.4491648943099 1.0
C      1  0.4094590580784  0.2927543212899  0.7487711230874 1.0
C      1  0.4127579471942  0.3833391937279  0.1990557023303 1.0
C      1  0.4190646857863  0.8065868147713  0.5452455488994 1.0
C      1  0.5879108901401  0.6945710760827  0.7395664720366 1.0
C      1  0.5851494248193  0.6147533341273  0.2195400464715 1.0
C      1  0.5925755237109  0.1794162264400  0.5499820420305 1.0
C      1  0.5049019790907  0.3733856369330  0.8052882694770 1.0
C      1  0.5115191826527  0.2980189640592  0.2471295893465 1.0
C      1  0.5160471408568  0.8279565638869  0.4452004313344 1.0
C      1  0.4895513556502  0.6140480802877  0.7965606440757 1.0
C      1  0.4898742722543  0.7094182523120  0.2480188297610 1.0
C      1  0.4951290463512  0.1774946625425  0.4524747591356 1.0
C      1  0.4870489676100  0.6160762355677  0.2131953119856 1.0
C      1  0.4912758075024  0.6866256964747  0.7367975463703 1.0
C      1  0.4943759430004  0.1750682855796  0.5469695114232 1.0
C      1  0.5101129248605  0.3815088593012  0.2029570923623 1.0
C      1  0.5071339706325  0.2920632977425  0.7561196216825 1.0
C      1  0.5153052587201  0.8013087234988  0.5369589153587 1.0
C      1  0.5048727819761  0.5358138629581  0.4065743129096 1.0
END
