TITL C-35678-1752-4 -9.608 3375.00 -1598.35985709 0 0 194 (C1) n - 1
REM
REM Run started: at 2020.12.01 13:27:40 in /rds/project/t2_vol4/rds-t2-cs072/BORA/CARBON/AIRSS/Generating-Clusters/Str-Search/Higher-Symm/C100-200
REM VASP from code version vasp.5.4.4.18Apr17-6-g9f103f2a35 (build Oct 11 2019 16:45:47) gamma-only
REM
REM
REM
REM
REM ./C.cell (533062f00bc710175b3da973d35f2034)
REM AIRSS Version 0.9.1 bugfix July 2018 build 013d7b7c2542+ Fri, 06 Jul 2018 19:26:36 +0100
REM compiler GCC version 4.8.5 20150623 (Red Hat 4.8.5-39)
REM options -cpp -mtune=generic -march=x86-64 -g -O0
REM seed 950302434 -907582794 1322144704 1669505279 1410649068 -1166246892 -2015895541 -1607118416 126326613 -170198119 1451074727 315007200
REM
REM C.POTCAR (d86ddea03c3ceb6dc662c8ad6801f873)
REM 
CELL 1.54180   15.00000   15.00000   15.00000   90.00000   90.00000   90.00000
LATT -1
SFAC C  
C      1  0.5754021434203  0.3859655411768  0.8378800230382 1.0
C      1  0.1549990947377  0.3781374557938  0.3914065406480 1.0
C      1  0.7220711711047  0.3585999345487  0.2733396325602 1.0
C      1  0.6295427678543  0.7420714666206  0.2302974135042 1.0
C      1  0.6661019281740  0.7794199660125  0.7258343445037 1.0
C      1  0.2265993569904  0.7554875952236  0.5083426354592 1.0
C      1  0.8164145936124  0.1632991880092  0.5019073600370 1.0
C      1  0.3149266200080  0.2369108167255  0.7341974887542 1.0
C      1  0.3241896679605  0.1661196679734  0.2187654942724 1.0
C      1  0.2744053558052  0.2978719446303  0.7964592374562 1.0
C      1  0.3249116264873  0.2391650892915  0.1554997838994 1.0
C      1  0.8779149826160  0.2344259752331  0.5168439015389 1.0
C      1  0.4662519300439  0.4201063844540  0.6226662642264 1.0
C      1  0.4214275555877  0.4091003700451  0.4582969404989 1.0
C      1  0.5781729912570  0.4201598720925  0.5008932186728 1.0
C      1  0.7156063462089  0.6237230796096  0.6938880267501 1.0
C      1  0.1914418628193  0.6052704639681  0.5758179837295 1.0
C      1  0.5267086947754  0.5886039555191  0.2543766567848 1.0
C      1  0.2363127750283  0.6564271401821  0.7454509657052 1.0
C      1  0.4539125091046  0.6333306373046  0.1232813219723 1.0
C      1  0.8730599961985  0.6320106088726  0.6111146493002 1.0
C      1  0.1922579000840  0.6198786647876  0.6697309578433 1.0
C      1  0.5447902318995  0.6125239207086  0.1617342968836 1.0
C      1  0.8131245835485  0.6055302011951  0.6776376819329 1.0
C      1  0.4162562842817  0.4882556739181  0.8739852581007 1.0
C      1  0.2658118845774  0.4337352859362  0.2552199366565 1.0
C      1  0.8173343950758  0.4338747581816  0.4170920273471 1.0
C      1  0.6617263351129  0.4134404732285  0.2013693571794 1.0
C      1  0.7270327847229  0.5026780845776  0.8053573060238 1.0
C      1  0.1146589639778  0.4435565061877  0.4753398715095 1.0
C      1  0.2514873628454  0.1544673139024  0.3681331224313 1.0
C      1  0.6986354040286  0.1417211380685  0.3857711571033 1.0
C      1  0.4817060977184  0.2024151868438  0.7100438604575 1.0
C      1  0.8230499044056  0.7638276188520  0.5215391986574 1.0
C      1  0.3488711060235  0.7781399321992  0.7325305504915 1.0
C      1  0.3911692082034  0.7652705402063  0.2088606604630 1.0
C      1  0.3853803424764  0.6769976925338  0.4379970544109 1.0
C      1  0.6201628738529  0.6751721545869  0.4636873375881 1.0
C      1  0.5080047637723  0.7002023307871  0.6192515768973 1.0
C      1  0.6643771244629  0.0818341278974  0.4520157157975 1.0
C      1  0.4264163269032  0.1529246429864  0.5322467339483 1.0
C      1  0.3341206285785  0.1207143240685  0.3940440550601 1.0
C      1  0.2330242682546  0.3750810598796  0.4631701775731 1.0
C      1  0.6328114768277  0.3692424965758  0.3301322944271 1.0
C      1  0.6089740316958  0.3943913680986  0.7447199461410 1.0
C      1  0.1960592488265  0.5070899705839  0.8199317271040 1.0
C      1  0.4377492645042  0.4592948212412  0.1100542694710 1.0
C      1  0.8974851113411  0.4558145650239  0.6149166557131 1.0
C      1  0.5161051876496  0.5257429888415  0.3770332059523 1.0
C      1  0.6149591433050  0.5438438283668  0.6114908795406 1.0
C      1  0.3288507251662  0.5130342252703  0.5763097419295 1.0
C      1  0.1915435366550  0.3424117126971  0.7821123906715 1.0
C      1  0.4158174937081  0.2684411557974  0.1438332859551 1.0
C      1  0.8550405892454  0.2725805928442  0.6017124005131 1.0
C      1  0.5516248500810  0.7834276652884  0.1992209170366 1.0
C      1  0.7369135597432  0.7982730239874  0.6655868828859 1.0
C      1  0.2507239566963  0.7838742676335  0.5945848526435 1.0
C      1  0.6736998458559  0.6196258056313  0.5962223984622 1.0
C      1  0.3694243894424  0.5784273741646  0.6404314510982 1.0
C      1  0.4646291819079  0.5956398904029  0.3198749340741 1.0
C      1  0.1577438136945  0.3593925749044  0.6969955267005 1.0
C      1  0.4677237646435  0.2203400531294  0.2110690753645 1.0
C      1  0.7703356571976  0.2305528239199  0.6318868038265 1.0
C      1  0.6439268996902  0.0131726636487  0.5121957388146 1.0
C      1  0.4542416603616  0.1682717686120  0.6256230052471 1.0
C      1  0.4144638540212  0.1309555120472  0.4428512361957 1.0
C      1  0.9065060637938  0.6078583952402  0.3733632735429 1.0
C      1  0.4035779243278  0.5899516517283  0.8819373170968 1.0
C      1  0.2302549987967  0.5945930514298  0.1642963757768 1.0
C      1  0.8689975692569  0.6322896638096  0.4495245876252 1.0
C      1  0.3846708441258  0.6584031588782  0.8229856225449 1.0
C      1  0.3009120341639  0.6432338187291  0.1890332259787 1.0
C      1  0.3844361908059  0.7697440646776  0.4507931444212 1.0
C      1  0.5980055574950  0.7620295364164  0.4916305586288 1.0
C      1  0.5576064040601  0.7714538029665  0.5721036122152 1.0
C      1  0.2936020220088  0.2191363697705  0.6408825810778 1.0
C      1  0.4136871992348  0.1533430212180  0.2547298482131 1.0
C      1  0.7559503596728  0.1508478633606  0.5761719143265 1.0
C      1  0.5807303269439  0.4250642322291  0.2613483464697 1.0
C      1  0.6930594442796  0.4476317781001  0.7274850578544 1.0
C      1  0.1887549980109  0.4258277282617  0.5410849485707 1.0
C      1  0.2335600343750  0.5152971649791  0.5523380642505 1.0
C      1  0.5780326997072  0.5165255788493  0.2963489650304 1.0
C      1  0.6605916511384  0.5390361610058  0.7049171343585 1.0
C      1  0.3392452745549  0.4240558884086  0.8863449165932 1.0
C      1  0.2789700395547  0.3920446360260  0.1686549137168 1.0
C      1  0.8936904816892  0.3824581842647  0.4528577581430 1.0
C      1  0.4283564373730  0.3583262880912  0.1112220352194 1.0
C      1  0.8934460595311  0.3572985735449  0.6162414918593 1.0
C      1  0.1780827883146  0.4161531970994  0.8409301782541 1.0
C      1  0.7756735815368  0.4403420884280  0.2613420260204 1.0
C      1  0.5846760674346  0.4704594450307  0.8839095757928 1.0
C      1  0.1398465375368  0.4627888488597  0.3462425482556 1.0
C      1  0.1706792457846  0.6135705552405  0.4117423588332 1.0
C      1  0.7175741500046  0.5895395423116  0.2043759896629 1.0
C      1  0.6328412672410  0.6390313986644  0.8382884312637 1.0
C      1  0.2954747683856  0.6728463484925  0.2887654845166 1.0
C      1  0.7677887528738  0.6536296477329  0.4392261104871 1.0
C      1  0.4736872740706  0.7002314646341  0.7958918547944 1.0
C      1  0.3539178749172  0.4145124318245  0.1139039486173 1.0
C      1  0.9233009602794  0.4048183336300  0.5402928896742 1.0
C      1  0.2517692245923  0.4586308651202  0.8812030995224 1.0
C      1  0.3472196832804  0.5971234224839  0.4374603626456 1.0
C      1  0.6655923494722  0.6080952613618  0.4172376779353 1.0
C      1  0.5072803868425  0.6442271995034  0.7045670540874 1.0
C      1  0.7365567079000  0.4210438204289  0.4636152985394 1.0
C      1  0.4388333102543  0.4832896754782  0.7735452435426 1.0
C      1  0.3283148299002  0.4183472777777  0.3233610255426 1.0
C      1  0.4134406229197  0.1235823263529  0.3451313058343 1.0
C      1  0.6909236865893  0.0872771810998  0.5456815050331 1.0
C      1  0.3647053756072  0.1714877810438  0.6007988388713 1.0
C      1  0.1896424313197  0.5745805560761  0.2473745746912 1.0
C      1  0.8485523106586  0.5709516935104  0.3086764841391 1.0
C      1  0.4942750850129  0.6000256841477  0.9117158801614 1.0
C      1  0.4393532800900  0.9046506851975  0.5451556923273 1.0
C      1  0.4992563623477  0.8847624356934  0.3921452424646 1.0
C      1  0.6049380074956  0.9192832682443  0.5176464540309 1.0
C      1  0.2536618058325  0.3010319736754  0.1782666612793 1.0
C      1  0.8817525305749  0.2895754860162  0.4368098427535 1.0
C      1  0.3452846691835  0.3337462271573  0.8563313393731 1.0
C      1  0.5779541597480  0.8681146735603  0.6074229443434 1.0
C      1  0.3685156687015  0.8612456317507  0.4880294117806 1.0
C      1  0.5832377476980  0.8489190284701  0.3633944034578 1.0
C      1  0.3804570675399  0.4523558447867  0.6332910908289 1.0
C      1  0.4620304123138  0.4469039997554  0.3848246909392 1.0
C      1  0.6315215515520  0.4648128628570  0.5622839594737 1.0
C      1  0.1225953229354  0.5238679768672  0.4171209954517 1.0
C      1  0.7211575835799  0.4897561909379  0.1971686417570 1.0
C      1  0.6542800160733  0.5381158493411  0.8547272290132 1.0
C      1  0.8227085583772  0.2450940021852  0.3695307435692 1.0
C      1  0.4255376382537  0.2863299844643  0.8352252967678 1.0
C      1  0.2050908088300  0.2618251510628  0.2578639799748 1.0
C      1  0.7025745896725  0.6339953589064  0.5092376844418 1.0
C      1  0.4388636718723  0.6412860346740  0.6334164243139 1.0
C      1  0.3752507779440  0.6304747939312  0.3476667853071 1.0
C      1  0.4829586600978  0.8924666578405  0.6292509575826 1.0
C      1  0.4063303668745  0.8558989033226  0.3939655074481 1.0
C      1  0.6379296034728  0.8465172566611  0.4481610752039 1.0
C      1  0.8783533374914  0.6845706573394  0.5331659959725 1.0
C      1  0.3140762297053  0.6985066679918  0.7738373785330 1.0
C      1  0.3830112724648  0.6821338405202  0.1577820882564 1.0
C      1  0.4950524176619  0.3748440523742  0.2535259994157 1.0
C      1  0.7345028709751  0.3921825699917  0.6510390950655 1.0
C      1  0.1927623683484  0.3536689541790  0.6150289027165 1.0
C      1  0.7759837676926  0.7541967201233  0.4355615264018 1.0
C      1  0.4404226353498  0.7889623734088  0.7565583269671 1.0
C      1  0.3247274060048  0.7681946900132  0.2774254029688 1.0
C      1  0.4047086262666  0.2249586385708  0.7638436481860 1.0
C      1  0.2491383806528  0.1759844683215  0.2745957463391 1.0
C      1  0.7875927150647  0.1659023271564  0.4128978347596 1.0
C      1  0.7198347834846  0.4244247617355  0.5610500358191 1.0
C      1  0.3726539668822  0.5091531113456  0.7114172798343 1.0
C      1  0.4226300475794  0.4089591406685  0.3048863856259 1.0
C      1  0.8712298818469  0.5401411358927  0.6399431996505 1.0
C      1  0.2001705397424  0.5708753936120  0.7538332996847 1.0
C      1  0.4800897898691  0.5430171028538  0.1116941839935 1.0
C      1  0.2981373878924  0.8062075785176  0.6591223243753 1.0
C      1  0.4728576655304  0.8092001826592  0.2004289881246 1.0
C      1  0.7832042203368  0.8013217263829  0.5970483443796 1.0
C      1  0.5602597221767  0.5512830228070  0.6948443200868 1.0
C      1  0.3104492044201  0.5179947864930  0.4789636922577 1.0
C      1  0.6188379940791  0.5256415101614  0.3855337591189 1.0
C      1  0.1922612571785  0.6648889394307  0.4972433608002 1.0
C      1  0.6427564903634  0.6531622465044  0.1878189205269 1.0
C      1  0.6760371774352  0.6873966619885  0.7652338601720 1.0
C      1  0.5440863184044  0.6641531260004  0.8642198304384 1.0
C      1  0.2053881612281  0.6330717482644  0.3235987589353 1.0
C      1  0.7958725641037  0.6177776407470  0.2478965011809 1.0
C      1  0.3200735243758  0.4250085368328  0.4310521356291 1.0
C      1  0.6418555037690  0.4275906964871  0.4184971397028 1.0
C      1  0.5186468869575  0.4526412130366  0.7084671131326 1.0
C      1  0.1843852178991  0.4838032038973  0.2718144357667 1.0
C      1  0.8191179938936  0.4794215778675  0.3300779145609 1.0
C      1  0.5077297983315  0.5060691930834  0.9212797833252 1.0
C      1  0.6268193635389  0.3007091264899  0.7115430575094 1.0
C      1  0.2337005708020  0.2782531409846  0.4882485376562 1.0
C      1  0.5983024049201  0.2741618418924  0.3144901577399 1.0
C      1  0.6493667624117  0.7946765875234  0.3162556148997 1.0
C      1  0.5946925982179  0.8405360876437  0.7054999366349 1.0
C      1  0.2851244424242  0.8121450769046  0.4488842214156 1.0
C      1  0.1737771157628  0.2912208718951  0.3442046392546 1.0
C      1  0.7522756367710  0.2711059096855  0.3108895930002 1.0
C      1  0.5181797338053  0.3089488670398  0.8258020133530 1.0
C      1  0.5530424493055  0.2545389036525  0.7480020491043 1.0
C      1  0.2111225397024  0.2295577332870  0.4113913738845 1.0
C      1  0.6735060470087  0.2141431306639  0.3269996808845 1.0
C      1  0.5231010791649  0.2792096281266  0.2595555713143 1.0
C      1  0.7106493415334  0.2957797529280  0.6682320882903 1.0
C      1  0.2392474349249  0.2733542939258  0.5836055441197 1.0
C      1  0.4973820546099  0.8498428698159  0.7150773099014 1.0
C      1  0.3243947665267  0.8222024660507  0.3536650411484 1.0
C      1  0.7133243193994  0.8060836392639  0.3917613622952 1.0
C      1  0.5093015537005  0.9198029729885  0.4806769670895 1.0
C      1  0.4876972244606  0.4079735327710  0.5290963362498 1.0
END
