TITL C-36870-3797-1 -2 3375.00 -323.59113988 0 0 41 (C1) n - 1
REM
REM Run started: at 2020.12.04 01:01:51 in /rds/project/t2_vol4/rds-t2-cs072/BORA/CARBON/AIRSS/Generating-Clusters/Str-Search/Higher-Symm/C10-100
REM VASP from code version vasp.5.4.4.18Apr17-6-g9f103f2a35 (build Oct 11 2019 16:45:47) gamma-only
REM
REM
REM
REM
REM ./C.cell (f39ce9773e2efe3fa5bbdf770a4156b8)
REM AIRSS Version 0.9.1 bugfix July 2018 build 013d7b7c2542+ Fri, 06 Jul 2018 19:26:36 +0100
REM compiler GCC version 4.8.5 20150623 (Red Hat 4.8.5-39)
REM options -cpp -mtune=generic -march=x86-64 -g -O0
REM seed 987260133 1575654765 -667458233 -314115644 554498807 -62034450 243620009 -630228890 925092394 935473945 434095632 1310941112
REM
REM C.POTCAR (d86ddea03c3ceb6dc662c8ad6801f873)
REM 
CELL 1.54180   15.00000   15.00000   15.00000   90.00000   90.00000   90.00000
LATT -1
SFAC C  
C      1  0.5182870207694  0.3029521412774  0.4634245669847 1.0
C      1  0.3572127937046  0.3504228763961  0.4635962172701 1.0
C      1  0.3754107953264  0.5446000805366  0.7013632658117 1.0
C      1  0.6066925376985  0.5291294087609  0.6866959450519 1.0
C      1  0.4950452685891  0.5364187522797  0.3677029960457 1.0
C      1  0.5697872811883  0.3130247913630  0.5513987979927 1.0
C      1  0.7139957898412  0.6430744955125  0.4514922712661 1.0
C      1  0.5079530028580  0.3048025376251  0.6247901707625 1.0
C      1  0.3172116304797  0.5708179633897  0.6417390465964 1.0
C      1  0.4403930685181  0.4912423691509  0.6645294502330 1.0
C      1  0.3092368204567  0.5653615393938  0.4671043353417 1.0
C      1  0.3625543011663  0.6488330410680  0.3388181613868 1.0
C      1  0.7211905297071  0.4806601560932  0.4177093290581 1.0
C      1  0.6616280407767  0.6988483761261  0.4896029867433 1.0
C      1  0.6109628332014  0.6219891858799  0.6855497668974 1.0
C      1  0.5332151696450  0.3628634608296  0.3900038238441 1.0
C      1  0.5053190419622  0.6603419026582  0.4962862489274 1.0
C      1  0.4282324526908  0.2894872058826  0.4868510957973 1.0
C      1  0.5323645361786  0.4767016474542  0.6772613939162 1.0
C      1  0.5228626112550  0.5676979250391  0.4594992221769 1.0
C      1  0.3171272791923  0.5047668446791  0.3946620044216 1.0
C      1  0.3663875313286  0.4202258475001  0.4010656636772 1.0
C      1  0.6330312303613  0.3835333244706  0.5549129003905 1.0
C      1  0.4244648061858  0.2981659066297  0.5874198608212 1.0
C      1  0.6008602197139  0.4685711562686  0.6064777769408 1.0
C      1  0.3474786624385  0.6528494868131  0.4366837078757 1.0
C      1  0.3268292156983  0.5381261882910  0.5576929166763 1.0
C      1  0.4051655797986  0.4676546242341  0.5685508865851 1.0
C      1  0.4662246573016  0.4401320622208  0.3930642440638 1.0
C      1  0.5865252352293  0.7016082784604  0.5404990014159 1.0
C      1  0.7428897589000  0.5660405785016  0.4259469841901 1.0
C      1  0.4366616871569  0.5835134673613  0.3152569211089 1.0
C      1  0.4203411392406  0.6815247000221  0.4821061398606 1.0
C      1  0.5740318917224  0.4966349995437  0.5108151288559 1.0
C      1  0.4778207899847  0.4795587033369  0.4955488066575 1.0
C      1  0.6465271029174  0.4348661257950  0.4698248286489 1.0
C      1  0.7026837934946  0.4162899457755  0.3450480552755 1.0
C      1  0.3692190789684  0.3720197806844  0.5589255766314 1.0
C      1  0.6222811269075  0.3898349821050  0.3788448134516 1.0
C      1  0.3440569028837  0.5599709631087  0.3186977655890 1.0
C      1  0.5998366845624  0.6848423774818  0.6325368247583 1.0
END
