TITL C-36985-1669-9 -8.592 3375.00 -1431.81409445 0 0 173 (C1) n - 1
REM
REM Run started: at 2020.12.03 13:43:43 in /rds/project/t2_vol4/rds-t2-cs072/BORA/CARBON/AIRSS/Generating-Clusters/Str-Search/Higher-Symm/C100-200
REM VASP from code version vasp.5.4.4.18Apr17-6-g9f103f2a35 (build Oct 11 2019 16:45:47) gamma-only
REM
REM
REM
REM
REM ./C.cell (533062f00bc710175b3da973d35f2034)
REM AIRSS Version 0.9.1 bugfix July 2018 build 013d7b7c2542+ Fri, 06 Jul 2018 19:26:36 +0100
REM compiler GCC version 4.8.5 20150623 (Red Hat 4.8.5-39)
REM options -cpp -mtune=generic -march=x86-64 -g -O0
REM seed -1804654184 572553118 978587405 720083361 -2005373498 -905461286 -1986266243 -2083609025 -179200002 -1058838939 -40106890 -1752312393
REM
REM C.POTCAR (d86ddea03c3ceb6dc662c8ad6801f873)
REM 
CELL 1.54180   15.00000   15.00000   15.00000   90.00000   90.00000   90.00000
LATT -1
SFAC C  
C      1  0.2384860202023  0.6778633093377  0.3108939844490 1.0
C      1  0.1667126525854  0.4383816410484  0.3224230677147 1.0
C      1  0.2632471340399  0.2856927783710  0.3336974456574 1.0
C      1  0.4546939435235  0.2193673299858  0.3113676655432 1.0
C      1  0.6283292098647  0.2057286806004  0.3408958395372 1.0
C      1  0.7864108462966  0.3872180510997  0.3055705373650 1.0
C      1  0.8565771246337  0.6204118997853  0.3030449025295 1.0
C      1  0.6585986238483  0.7743398298112  0.3215053230783 1.0
C      1  0.4223803582289  0.8397218438666  0.3218913997749 1.0
C      1  0.4232880359172  0.3883094635690  0.8415899059740 1.0
C      1  0.5164222116582  0.3617492255742  0.8470248490076 1.0
C      1  0.6037144279490  0.4039264283558  0.8438040274572 1.0
C      1  0.6418506356466  0.4915584844280  0.8408564939491 1.0
C      1  0.6136480106996  0.5834120197486  0.8400885540513 1.0
C      1  0.5333656035079  0.6377910363260  0.8404495637023 1.0
C      1  0.4368109762615  0.6316937927700  0.8400945902943 1.0
C      1  0.3713274135488  0.5621503988067  0.8363472367329 1.0
C      1  0.3745325651486  0.4680273412359  0.8275196242882 1.0
C      1  0.4149977003358  0.6084414331062  0.1915176985249 1.0
C      1  0.3662936542806  0.5312839318651  0.1769803419890 1.0
C      1  0.3853914521161  0.4399952182039  0.1487686935690 1.0
C      1  0.4587682768724  0.3795534866698  0.1423927882885 1.0
C      1  0.5542986702973  0.3860899095233  0.1334358235467 1.0
C      1  0.6312205068047  0.4418869228343  0.1554847531291 1.0
C      1  0.6502112569480  0.5316425994756  0.1749159144593 1.0
C      1  0.5997686350574  0.6174044881123  0.1869855124455 1.0
C      1  0.5109761995231  0.6443309633319  0.1916050892018 1.0
C      1  0.2712926023522  0.2555171937024  0.4997976175171 1.0
C      1  0.4476498706010  0.1839195141592  0.4918764242528 1.0
C      1  0.6510984871749  0.2000547037530  0.5092139983192 1.0
C      1  0.8091309871283  0.3776480317317  0.4835813788440 1.0
C      1  0.8279134318193  0.6556929737017  0.5025466421607 1.0
C      1  0.6481363773264  0.7913724087801  0.4889273531636 1.0
C      1  0.4287630705060  0.8437953785236  0.5014620876232 1.0
C      1  0.2430341109066  0.7153547468635  0.4839548143474 1.0
C      1  0.1356515989831  0.4624438409250  0.5075570320522 1.0
C      1  0.4314093911800  0.3942405863190  0.6201011190852 1.0
C      1  0.5316644745304  0.3718314180166  0.6302783482040 1.0
C      1  0.6153726714711  0.4137307159329  0.6226273228304 1.0
C      1  0.6477804726539  0.5011817226554  0.6181270707874 1.0
C      1  0.6078729151899  0.5825840022938  0.6321117454080 1.0
C      1  0.5275295574585  0.6586154272259  0.5575798320898 1.0
C      1  0.4092536073264  0.6139756693403  0.6313919061230 1.0
C      1  0.3467361220266  0.5462856192958  0.6228524054716 1.0
C      1  0.3499668466248  0.4528906595986  0.6545577362521 1.0
C      1  0.4919745495342  0.0932999155469  0.4877465068409 1.0
C      1  0.7496350004354  0.0804416557235  0.5173792012825 1.0
C      1  0.8461233915456  0.2909796794228  0.4861851517322 1.0
C      1  0.8675885073948  0.7444317751483  0.5293224229301 1.0
C      1  0.6614859107169  0.8899307234366  0.4979054873393 1.0
C      1  0.4002136997483  0.9370345817876  0.5041106910548 1.0
C      1  0.2394762520933  0.8124789474497  0.4799628848201 1.0
C      1  0.0545716945375  0.3374947618270  0.5271077701108 1.0
C      1  0.2500881257665  0.1544402418398  0.5015169154893 1.0
C      1  0.6635602581736  0.3456298964667  0.7923188555389 1.0
C      1  0.7253709155061  0.4855822626579  0.7874446390789 1.0
C      1  0.6811943514121  0.6325897114210  0.7874905344616 1.0
C      1  0.5536618896889  0.7167524486049  0.7870925061711 1.0
C      1  0.3986333912053  0.7062423888817  0.7889044524538 1.0
C      1  0.2911811820052  0.5952806583698  0.7882502937439 1.0
C      1  0.3059848263852  0.4458571793460  0.7587415564641 1.0
C      1  0.3752000421282  0.3162800388468  0.7941087104303 1.0
C      1  0.5240454915981  0.2783286636984  0.7989564271262 1.0
C      1  0.7318480655144  0.5720455199331  0.2068458029267 1.0
C      1  0.6892508518543  0.6579532903078  0.2166771126774 1.0
C      1  0.4704620275980  0.7290551074643  0.2236013203583 1.0
C      1  0.3821860226530  0.6943107248315  0.2255187806873 1.0
C      1  0.2747975253498  0.5001855254023  0.2061168470324 1.0
C      1  0.2946632436988  0.4127261978053  0.1740281120595 1.0
C      1  0.4352357844608  0.2960333599993  0.1755813674116 1.0
C      1  0.6057409954099  0.3055860379310  0.1537783339567 1.0
C      1  0.6829573590868  0.3601211711672  0.1793511311082 1.0
C      1  0.7746548174888  0.4135109122940  0.5742486979502 1.0
C      1  0.7623176184157  0.6120048512823  0.5744754758521 1.0
C      1  0.6318675320118  0.7538398723884  0.5784669627511 1.0
C      1  0.4291759012085  0.7812219154957  0.5797319810548 1.0
C      1  0.2658123798595  0.6744500869918  0.5746764548375 1.0
C      1  0.2017247270615  0.4797226179758  0.5840837917933 1.0
C      1  0.2961997244552  0.3068128022250  0.5829570732694 1.0
C      1  0.4612991309069  0.2332840285330  0.5792999815348 1.0
C      1  0.6490285100106  0.2584421280674  0.5890008762891 1.0
C      1  0.6126635715969  0.2715974037725  0.7596575856475 1.0
C      1  0.7352687387627  0.3976178108034  0.7499631449811 1.0
C      1  0.7463630309375  0.5711992062149  0.7482469008450 1.0
C      1  0.6416055155859  0.7115348634808  0.7499057349065 1.0
C      1  0.4727105500277  0.7520764849606  0.7479514000212 1.0
C      1  0.3117773414050  0.6835313504197  0.7513585284367 1.0
C      1  0.2435184961507  0.5244882621860  0.7470940088043 1.0
C      1  0.2964241172101  0.3463527287567  0.7509401048537 1.0
C      1  0.4397258270118  0.2543406966182  0.7574951317619 1.0
C      1  0.5861740759174  0.8145044913667  0.2912172845557 1.0
C      1  0.3380356925285  0.8165931815191  0.3005491251363 1.0
C      1  0.1919480951152  0.6087554522838  0.2773429507694 1.0
C      1  0.2004564322411  0.3555038563447  0.2935872673357 1.0
C      1  0.2998655995716  0.2606379910017  0.2508130827267 1.0
C      1  0.5450039807074  0.2040655631073  0.2882044039271 1.0
C      1  0.6792524427773  0.2420307199281  0.2696919897837 1.0
C      1  0.8245846843348  0.4570959294807  0.2639014968311 1.0
C      1  0.8087997863515  0.6969799280666  0.3143179485961 1.0
C      1  0.6751957146448  0.7360436175709  0.6626554921977 1.0
C      1  0.4806262387345  0.7877385389246  0.6616985406542 1.0
C      1  0.2923529918395  0.7159573980542  0.6624867555566 1.0
C      1  0.1952317368298  0.5370956669592  0.6646055944681 1.0
C      1  0.2521563134427  0.3280726674146  0.6696753093097 1.0
C      1  0.4186301366696  0.2289091269812  0.6687584776491 1.0
C      1  0.6118421958601  0.2320417151100  0.6743588607577 1.0
C      1  0.7658101068186  0.3682190023208  0.6631565960184 1.0
C      1  0.7875265622171  0.5703416106379  0.6621526380896 1.0
C      1  0.4895938258406  0.3183175059857  0.4248351475482 1.0
C      1  0.5816720066115  0.3210824660310  0.4284071704472 1.0
C      1  0.7232345605325  0.4964656255996  0.4076305971624 1.0
C      1  0.7367256937512  0.5865223844446  0.4012351612095 1.0
C      1  0.6576943820917  0.6393378074214  0.4145731877581 1.0
C      1  0.4282989871496  0.7103165058177  0.4107038651979 1.0
C      1  0.2912336587626  0.5635437352653  0.4144585300796 1.0
C      1  0.2598605996764  0.4749994138763  0.4192506943964 1.0
C      1  0.3274694022090  0.4056602659124  0.4122608350596 1.0
C      1  0.3823354734634  0.5518752276809  0.4021227511753 1.0
C      1  0.4041901568135  0.4571812440554  0.4014089279199 1.0
C      1  0.4666403549432  0.4402141720782  0.5383850976249 1.0
C      1  0.4803621622599  0.4136051362421  0.4432812659913 1.0
C      1  0.5792701317979  0.4155857980836  0.4269100799325 1.0
C      1  0.6299548624257  0.4887905623361  0.4200579785761 1.0
C      1  0.5938719739322  0.5771118203787  0.4289012186824 1.0
C      1  0.5146030490495  0.5973495486475  0.4783619815068 1.0
C      1  0.4398182641277  0.6241430377622  0.4197781800120 1.0
C      1  0.6570635058587  0.1011374229239  0.5118658275817 1.0
C      1  0.8536142882287  0.2097354988492  0.5001843311244 1.0
C      1  0.9204562821719  0.6674482335199  0.5369750712553 1.0
C      1  0.7555384091347  0.8795592313555  0.5146866877577 1.0
C      1  0.4920956853224  0.9210226601775  0.5030902380355 1.0
C      1  0.2541384750894  0.8943886299893  0.4892444779524 1.0
C      1  0.0446000785540  0.4315375662520  0.5315813408450 1.0
C      1  0.1781456019506  0.2159003070081  0.5007756785266 1.0
C      1  0.4015424042617  0.0990401624523  0.4954740425806 1.0
C      1  0.5803551094686  0.0497601773902  0.4998526304209 1.0
C      1  0.8179482279007  0.1282911850062  0.5124954414299 1.0
C      1  0.9712501221119  0.5904572954148  0.5473677332590 1.0
C      1  0.8215271369186  0.8259084770935  0.5265275400125 1.0
C      1  0.5831454329366  0.9505091474770  0.5006437590980 1.0
C      1  0.3116036125459  0.9731431877768  0.4987135949276 1.0
C      1  0.9899983011124  0.5071810365906  0.5442231000587 1.0
C      1  0.1027738664615  0.2678344976592  0.5160913123954 1.0
C      1  0.3085804391653  0.0738723817229  0.4996865328980 1.0
C      1  0.3199738542062  0.2983715060888  0.4161121325508 1.0
C      1  0.4240924280304  0.2491025996800  0.4086109727502 1.0
C      1  0.6343383186506  0.2402157411296  0.4307248358068 1.0
C      1  0.7797566166946  0.4167296526912  0.4037594626202 1.0
C      1  0.8173185208146  0.6374993218994  0.3984772357931 1.0
C      1  0.6525420206919  0.7384067321893  0.4147529979955 1.0
C      1  0.4275450874813  0.7977362866410  0.4141601150076 1.0
C      1  0.2509022802392  0.6561690476558  0.4100092939555 1.0
C      1  0.1668421093324  0.4574547386752  0.4226096438568 1.0
C      1  0.3941520362545  0.2468370915684  0.2384379345198 1.0
C      1  0.6000196233104  0.2333978846942  0.2092610572105 1.0
C      1  0.7307353493899  0.3234792089869  0.2529864152030 1.0
C      1  0.8164354049956  0.5466991293347  0.2488371440056 1.0
C      1  0.7260654248914  0.7244791120320  0.2703638384824 1.0
C      1  0.4999449212968  0.8107673997585  0.2658575403190 1.0
C      1  0.3045337182920  0.7379016690496  0.2666933947324 1.0
C      1  0.2014618685382  0.5180433090932  0.2659391415496 1.0
C      1  0.2538862211355  0.3398725667702  0.2140189923505 1.0
C      1  0.6748694553758  0.6570578263484  0.6047417445985 1.0
C      1  0.5314938178638  0.7474015188869  0.5893006571297 1.0
C      1  0.3685343524337  0.7023737124530  0.6022816042372 1.0
C      1  0.2572787442912  0.5749968934956  0.5948533812124 1.0
C      1  0.2676723817248  0.4051591691578  0.6091677276679 1.0
C      1  0.3920397662483  0.3012817498495  0.6063118804176 1.0
C      1  0.5467457642734  0.2737792536941  0.6112874206189 1.0
C      1  0.6899802647712  0.3502246534461  0.6032628343128 1.0
C      1  0.7454759910378  0.5095399933109  0.5943788547890 1.0
C      1  0.5065831493708  0.5883560474759  0.6226054862578 1.0
C      1  0.4888118704672  0.5276929621494  0.5460859235783 1.0
END
