TITL C-36030-9145-2 -8.772 3375.00 -1606.76200183 0 0 194 (C1) n - 1
REM
REM Run started: at 2020.12.04 05:03:51 in /rds/project/t2_vol4/rds-t2-cs072/BORA/CARBON/AIRSS/Generating-Clusters/Str-Search/Higher-Symm/C100-200
REM VASP from code version vasp.5.4.4.18Apr17-6-g9f103f2a35 (build Oct 11 2019 16:45:47) gamma-only
REM
REM
REM
REM
REM ./C.cell (533062f00bc710175b3da973d35f2034)
REM AIRSS Version 0.9.1 bugfix July 2018 build 013d7b7c2542+ Fri, 06 Jul 2018 19:26:36 +0100
REM compiler GCC version 4.8.5 20150623 (Red Hat 4.8.5-39)
REM options -cpp -mtune=generic -march=x86-64 -g -O0
REM seed -1277611476 -104020586 1856504443 -1537935677 -1698319762 2043406823 1362022223 1579825768 1397275680 -1102780983 -746636115 184733756
REM
REM C.POTCAR (d86ddea03c3ceb6dc662c8ad6801f873)
REM 
CELL 1.54180   15.00000   15.00000   15.00000   90.00000   90.00000   90.00000
LATT -1
SFAC C  
C      1  0.3343977051508  0.5274807134410  0.3063128597944 1.0
C      1  0.4737945657229  0.3355412657826  0.3492422164394 1.0
C      1  0.6892661619999  0.4217568984535  0.3128019754731 1.0
C      1  0.5965030973921  0.6318315592225  0.3266701993724 1.0
C      1  0.3974219951983  0.6581699385387  0.2818768931927 1.0
C      1  0.3888499526779  0.2175742453508  0.2285841548522 1.0
C      1  0.7753048219066  0.3743064751465  0.2907419449794 1.0
C      1  0.7210353643079  0.6911363072842  0.2866300743941 1.0
C      1  0.3890918022944  0.7981341141727  0.3024431300514 1.0
C      1  0.1885528838838  0.5352258943855  0.3086806726481 1.0
C      1  0.9138528607175  0.6930032085289  0.5600288393914 1.0
C      1  0.4842675709226  0.0146422014816  0.4114769934641 1.0
C      1  0.0206928047979  0.5309059934462  0.5608691818104 1.0
C      1  0.2976849559228  0.1779268623903  0.5587327298592 1.0
C      1  0.7589562748939  0.2351900915873  0.5232840273900 1.0
C      1  0.4445132298413  0.2587071310850  0.5871921996825 1.0
C      1  0.7701251450623  0.3363279579148  0.5065973759875 1.0
C      1  0.7126552342325  0.6402903453054  0.5788661987729 1.0
C      1  0.4275944636132  0.8009991375077  0.5436113519088 1.0
C      1  0.2483675877708  0.4899048255168  0.5936666054963 1.0
C      1  0.5952879675139  0.7717644630975  0.7282659813293 1.0
C      1  0.2354650474498  0.6005259129805  0.7856962632690 1.0
C      1  0.2617143856534  0.2782022756100  0.7593965742319 1.0
C      1  0.6351514180165  0.1330890871235  0.7264533123830 1.0
C      1  0.7968980519313  0.4863418032759  0.7628226986973 1.0
C      1  0.6082800756815  0.4300736079191  0.6407776621360 1.0
C      1  0.5413260362919  0.5918970197514  0.6234002313523 1.0
C      1  0.3840154353644  0.5594876303106  0.6658597036178 1.0
C      1  0.3860600354298  0.4719812833650  0.6881736547107 1.0
C      1  0.5442394828548  0.3928586404299  0.7091577938565 1.0
C      1  0.7582529498438  0.4964493704382  0.5440473209911 1.0
C      1  0.5910685681861  0.7856506408730  0.5361502067590 1.0
C      1  0.3153192844886  0.6206294305939  0.6267028913407 1.0
C      1  0.2906869423793  0.3200454074181  0.5659445712732 1.0
C      1  0.6078178997446  0.2518727735342  0.5646762858411 1.0
C      1  0.6746685143911  0.4476291945212  0.4119734084920 1.0
C      1  0.6131989985946  0.6513851507084  0.4321240352475 1.0
C      1  0.4133991863927  0.6380921947276  0.4830810515941 1.0
C      1  0.3581114881407  0.4483956982447  0.4781318846596 1.0
C      1  0.5110730332819  0.3366325229581  0.4485028076739 1.0
C      1  0.5550951000644  0.5751470912076  0.3984065376704 1.0
C      1  0.4546812034520  0.5732861953828  0.4166116170578 1.0
C      1  0.4370512533011  0.4817777108791  0.4465406513268 1.0
C      1  0.5144488153989  0.4337685093767  0.4418564152524 1.0
C      1  0.5840272278268  0.4836124375774  0.4151440366915 1.0
C      1  0.1431491904069  0.3528000812527  0.6268472832620 1.0
C      1  0.5658039966306  0.0520787679645  0.4151357105948 1.0
C      1  0.8781379398417  0.4254950774429  0.5637612475063 1.0
C      1  0.6939446633024  0.9095241115436  0.5609360952472 1.0
C      1  0.2568627567491  0.7821628299102  0.5630032240727 1.0
C      1  0.8047719498593  0.5496792706904  0.6943317593562 1.0
C      1  0.5341212645297  0.8247991469719  0.6777766048067 1.0
C      1  0.1748170307225  0.5658909001914  0.7200994849440 1.0
C      1  0.3278933425496  0.2323602417886  0.7211146326801 1.0
C      1  0.7054186078169  0.1802318639216  0.6834776971193 1.0
C      1  0.5558487068712  0.3487472423661  0.1275181213641 1.0
C      1  0.6427761357674  0.5381822661364  0.1122958774962 1.0
C      1  0.5048224443196  0.6712839320416  0.1064553285015 1.0
C      1  0.3424338213754  0.5764941360023  0.1118026752974 1.0
C      1  0.3692518859504  0.3897202424308  0.1461225803976 1.0
C      1  0.3058040823278  0.5152118638334  0.5194267865759 1.0
C      1  0.4364846778337  0.3085751329595  0.5067563748255 1.0
C      1  0.6799155601297  0.3583219026466  0.4613481809176 1.0
C      1  0.7061270832105  0.6242669731181  0.4720880899284 1.0
C      1  0.4617556150152  0.7145099062682  0.4995772950447 1.0
C      1  0.4035199398087  0.6100141849924  0.8875698354019 1.0
C      1  0.3823206206397  0.4434949075497  0.9085049237288 1.0
C      1  0.4910057409792  0.3172354597935  0.8692353019630 1.0
C      1  0.5965837587550  0.4377951812264  0.9148504996343 1.0
C      1  0.5671640408690  0.6014600263956  0.8896420186223 1.0
C      1  0.3497127617899  0.2448676154037  0.6207877436799 1.0
C      1  0.6896084468676  0.2164545091466  0.5918633566940 1.0
C      1  0.7906491386134  0.5736424756643  0.6000658550911 1.0
C      1  0.5191362266854  0.8413181217433  0.5822593137251 1.0
C      1  0.2134808923104  0.5814704623681  0.6296340026051 1.0
C      1  0.3407885627633  0.7081473664290  0.6759282496390 1.0
C      1  0.2922035863259  0.4401643552142  0.6823890606524 1.0
C      1  0.5378210681544  0.2925607041984  0.7180382775975 1.0
C      1  0.6959694873540  0.3985179589241  0.6524314167652 1.0
C      1  0.6386808301354  0.5967301880014  0.6343004726427 1.0
C      1  0.5581582823032  0.7191515859568  0.4822536151852 1.0
C      1  0.3378637129818  0.6035174561920  0.5289127804597 1.0
C      1  0.3569174820954  0.3558763045886  0.5040096459886 1.0
C      1  0.6046571963489  0.3078167202050  0.4817472016668 1.0
C      1  0.7220117639146  0.5209785831879  0.4657256103026 1.0
C      1  0.4318640074847  0.6949944780720  0.7303756711805 1.0
C      1  0.2377876822651  0.4453105734025  0.7821505798774 1.0
C      1  0.4799834381776  0.2560458852946  0.7914387114960 1.0
C      1  0.7012726247827  0.3630759482307  0.7419578241377 1.0
C      1  0.6634338556689  0.6183376276170  0.7364906211008 1.0
C      1  0.4560242093723  0.7336221856418  0.2527600714031 1.0
C      1  0.2630757374144  0.5777928140494  0.2545320078925 1.0
C      1  0.3932619185882  0.3607417236335  0.3040113703014 1.0
C      1  0.6204557477608  0.3681741627545  0.2673030629240 1.0
C      1  0.6799239433408  0.6007811737151  0.2610896404952 1.0
C      1  0.5773610034516  0.5316246238449  0.0479607392939 1.0
C      1  0.4949940504954  0.5904836638756  0.0393027761956 1.0
C      1  0.4154772061116  0.5312206377475  0.0708088277643 1.0
C      1  0.4253663741224  0.4359667380987  0.0843121885242 1.0
C      1  0.5136222461729  0.3973673025127  0.0614932111274 1.0
C      1  0.1397139330077  0.2686059386739  0.5708466055334 1.0
C      1  0.6334314622078  0.0442113220561  0.4854987207007 1.0
C      1  0.9334870053646  0.5120142929168  0.5645164779583 1.0
C      1  0.6217043142837  0.9738525156160  0.5459963224541 1.0
C      1  0.1792348568934  0.7243871215292  0.5556115351376 1.0
C      1  0.4822243734265  0.1534907672332  0.7821609916178 1.0
C      1  0.7890077273245  0.3089876503701  0.7556811212487 1.0
C      1  0.7068140111076  0.7322260486318  0.6226519243413 1.0
C      1  0.3801147542871  0.6686052942543  0.8138268703866 1.0
C      1  0.1290930560180  0.3828972722850  0.7219198900133 1.0
C      1  0.7839314784799  0.3966853450399  0.7903666422649 1.0
C      1  0.6704495612451  0.7194763323822  0.7114887715507 1.0
C      1  0.2976236736959  0.6743534196516  0.7713902573806 1.0
C      1  0.2067643307742  0.3458466854961  0.7762982492718 1.0
C      1  0.5615666056016  0.1095970177558  0.7580441635282 1.0
C      1  0.6528571004191  0.7634232654676  0.2817965797835 1.0
C      1  0.2950180520412  0.7656427593966  0.2789434067610 1.0
C      1  0.2122469290951  0.4456265343853  0.3294570041945 1.0
C      1  0.4780936665786  0.1992770554688  0.2012446380378 1.0
C      1  0.8161498160130  0.4572573555864  0.2732885003453 1.0
C      1  0.8813018733666  0.4593016071645  0.3401095252314 1.0
C      1  0.6736882937860  0.8342355114137  0.3368744745602 1.0
C      1  0.2265777014220  0.7950808005276  0.3284529220144 1.0
C      1  0.1614383938132  0.3964371250258  0.3889974688045 1.0
C      1  0.5423602093547  0.1403694314296  0.2286637079747 1.0
C      1  0.4201777985794  0.3705615700121  0.9015554992354 1.0
C      1  0.5750645353178  0.3579446962978  0.8638164851330 1.0
C      1  0.6179845425399  0.5251354119814  0.8774875667714 1.0
C      1  0.4867887153033  0.6124922078806  0.9379307219075 1.0
C      1  0.3464581078974  0.5290716327590  0.8893543370154 1.0
C      1  0.4695445469260  0.9506252065632  0.4793184986251 1.0
C      1  0.0782117212430  0.5915133433783  0.5256965317275 1.0
C      1  0.2790131198756  0.1809409267760  0.4684139663887 1.0
C      1  0.7557917958010  0.1793444590631  0.4473169572863 1.0
C      1  0.8682290649434  0.6675536133220  0.4885462797311 1.0
C      1  0.5304428246441  0.2548934798189  0.6248105052317 1.0
C      1  0.7711804718404  0.4075932360354  0.5840999029111 1.0
C      1  0.6836323322972  0.8095395060629  0.5623569198025 1.0
C      1  0.3396404584830  0.7816030689645  0.6020162598747 1.0
C      1  0.2387892469690  0.3910502777398  0.6136862996635 1.0
C      1  0.3104847962041  0.1799089949770  0.3809640991888 1.0
C      1  0.7833795956016  0.2235767266195  0.3678355761977 1.0
C      1  0.7937883131751  0.6673866270763  0.4287164691278 1.0
C      1  0.4188160192336  0.8677378029144  0.4626421146606 1.0
C      1  0.0884321747448  0.5931932080666  0.4314336105221 1.0
C      1  0.3487489366267  0.6655858217577  0.1473257557239 1.0
C      1  0.3061889569283  0.4394318848140  0.1914188843768 1.0
C      1  0.5019265953162  0.2984528971699  0.1947889474010 1.0
C      1  0.6796199935776  0.4662616513920  0.1625482254196 1.0
C      1  0.5768485712704  0.6740663556174  0.1675568618353 1.0
C      1  0.4334497107131  0.7084742088040  0.1518710128364 1.0
C      1  0.2859518732119  0.5275785032163  0.1695608473038 1.0
C      1  0.4031963546573  0.3202964287193  0.2102127179503 1.0
C      1  0.6334550287673  0.3846940375440  0.1718714231912 1.0
C      1  0.6427728742801  0.6128269465104  0.1701798597270 1.0
C      1  0.4745777192402  0.4575974258324  0.7339572899092 1.0
C      1  0.6105377686139  0.3428988297558  0.7736947916349 1.0
C      1  0.5905448211616  0.5742037140935  0.7953804835010 1.0
C      1  0.4662030766208  0.6065783779347  0.6910085921711 1.0
C      1  0.2703328947679  0.5254248801642  0.8358095564608 1.0
C      1  0.7958714182573  0.2890552944204  0.3194984568190 1.0
C      1  0.7894319474618  0.6922878634772  0.3440319330419 1.0
C      1  0.4045082476749  0.8403407307497  0.3789463974305 1.0
C      1  0.1227073480039  0.5783619920645  0.3582973401532 1.0
C      1  0.3390844867485  0.1864222023143  0.3025586786442 1.0
C      1  0.5625328870786  0.7126542712904  0.2608165694320 1.0
C      1  0.3063299989128  0.6726586390555  0.2388657508028 1.0
C      1  0.3105622776437  0.4294436110283  0.2941959116354 1.0
C      1  0.5422682551832  0.3249217392584  0.2821429523582 1.0
C      1  0.7214799071515  0.5012744569482  0.2520979711943 1.0
C      1  0.4046851135411  0.1942420614699  0.7689413944295 1.0
C      1  0.7677080843831  0.2273949231445  0.7323977398941 1.0
C      1  0.7494343100100  0.5727860045400  0.7623220772246 1.0
C      1  0.5013916086172  0.7626550411984  0.7344554184842 1.0
C      1  0.1519017597445  0.4726910687114  0.7432224992738 1.0
C      1  0.6929549884820  0.1055181261151  0.4342751691433 1.0
C      1  0.8803448684157  0.5976317921067  0.5625548849211 1.0
C      1  0.5327293550459  0.9351832003345  0.5475239451850 1.0
C      1  0.1536223761913  0.6377142717254  0.5709314652302 1.0
C      1  0.2264501427467  0.2393865692996  0.5335655260668 1.0
C      1  0.1941598241671  0.7928350127570  0.4912291805352 1.0
C      1  0.0967140083303  0.3415186547844  0.5376149242118 1.0
C      1  0.6307606489083  0.1016488401183  0.3606621268130 1.0
C      1  0.8681706268034  0.3792198857008  0.4835875461869 1.0
C      1  0.7336436647025  0.8648762535649  0.4920024225953 1.0
C      1  0.7202506551595  0.8624086992066  0.4010369323760 1.0
C      1  0.1930091006973  0.8109138900582  0.4038834737397 1.0
C      1  0.1142916069283  0.3756243628376  0.4533926912377 1.0
C      1  0.6108250406913  0.1247383620344  0.2744936870473 1.0
C      1  0.9071362818100  0.4147513887372  0.4067474976976 1.0
C      1  0.5676474800773  0.4486824101862  0.0002224420863 1.0
C      1  0.5912906068505  0.5160922094682  0.6077259467228 1.0
C      1  0.5100340602439  0.5412030555970  0.7501586566757 1.0
C      1  0.4035527562581  0.5819537723061  0.3324280110582 1.0
END
