TITL C-36870-3797-21 -4.727 3375.00 -818.79978874 0 0 99 (C1) n - 1
REM
REM Run started: at 2020.12.04 08:17:09 in /rds/project/t2_vol4/rds-t2-cs072/BORA/CARBON/AIRSS/Generating-Clusters/Str-Search/Higher-Symm/C10-100
REM VASP from code version vasp.5.4.4.18Apr17-6-g9f103f2a35 (build Oct 11 2019 16:45:47) gamma-only
REM
REM
REM
REM
REM ./C.cell (f39ce9773e2efe3fa5bbdf770a4156b8)
REM AIRSS Version 0.9.1 bugfix July 2018 build 013d7b7c2542+ Fri, 06 Jul 2018 19:26:36 +0100
REM compiler GCC version 4.8.5 20150623 (Red Hat 4.8.5-39)
REM options -cpp -mtune=generic -march=x86-64 -g -O0
REM seed 704541060 2037243182 -1148264283 -861700429 1465848291 -1076845945 2058723959 -958183971 -1152721444 1051296625 477949080 1028642410
REM
REM C.POTCAR (d86ddea03c3ceb6dc662c8ad6801f873)
REM 
CELL 1.54180   15.00000   15.00000   15.00000   90.00000   90.00000   90.00000
LATT -1
SFAC C  
C      1  0.5510980788498  0.5481311606770  0.1829043061884 1.0
C      1  0.5643405876476  0.1976295674510  0.6232753570612 1.0
C      1  0.5639677726837  0.7544887445334  0.7072261770661 1.0
C      1  0.5500826410300  0.4521644718929  0.1850321572765 1.0
C      1  0.5641077541190  0.8011524982728  0.6223851287099 1.0
C      1  0.5630043275942  0.2453572439561  0.7065219475122 1.0
C      1  0.6669962738155  0.6619093653160  0.4629452297566 1.0
C      1  0.6675600934548  0.3914557126186  0.3743510033446 1.0
C      1  0.6518761239872  0.4518744694317  0.6525479889474 1.0
C      1  0.6619856277346  0.3435520632917  0.4695476779522 1.0
C      1  0.6685500186367  0.6114991373952  0.3688292652415 1.0
C      1  0.6546082947305  0.5568003194077  0.6529126100225 1.0
C      1  0.6173410471261  0.6589003526284  0.2925299707924 1.0
C      1  0.6182464428190  0.2505170827662  0.4687645514781 1.0
C      1  0.6155288113394  0.5969781341750  0.7386249614681 1.0
C      1  0.6143208618155  0.3444440676835  0.2992056944162 1.0
C      1  0.6212654169155  0.7543751530652  0.4637778105584 1.0
C      1  0.6111135140887  0.4062848125441  0.7351658083037 1.0
C      1  0.3937779505746  0.5968628510797  0.5167205019186 1.0
C      1  0.4375214778943  0.4497510454800  0.4535028453831 1.0
C      1  0.3729649036310  0.4399611390404  0.5977388554507 1.0
C      1  0.3842326629313  0.3953975418689  0.5160102362555 1.0
C      1  0.4386989018784  0.5481795419236  0.4492475834569 1.0
C      1  0.4065990944125  0.5368291130273  0.6037491940335 1.0
C      1  0.6337809091553  0.6916767266027  0.7271155350025 1.0
C      1  0.6264823359292  0.5985379846178  0.2168155126534 1.0
C      1  0.6347316580756  0.2133953593734  0.5583787601714 1.0
C      1  0.6310238145055  0.3112261004039  0.7251747667995 1.0
C      1  0.6241149568023  0.4019523616015  0.2216929488843 1.0
C      1  0.6333315843845  0.7883804879284  0.5555329361706 1.0
C      1  0.2274999429965  0.5407027135410  0.3552271510436 1.0
C      1  0.2038392620732  0.3620496072850  0.5249601237127 1.0
C      1  0.2102712933973  0.5950284673022  0.6011785487382 1.0
C      1  0.2255517644101  0.4590072964292  0.3569129384680 1.0
C      1  0.2133689279478  0.6305394443943  0.5252583922638 1.0
C      1  0.2006569024497  0.4001444658738  0.5991350595026 1.0
C      1  0.7032090910891  0.4512268939408  0.2355208806671 1.0
C      1  0.7099900946396  0.3039350931591  0.6757769972070 1.0
C      1  0.7096370325437  0.7453131307853  0.5894511530489 1.0
C      1  0.7068228342173  0.5493389842054  0.2287538119597 1.0
C      1  0.7147593981837  0.7025184782372  0.6772519435659 1.0
C      1  0.7120187218798  0.2544519806142  0.5917936359291 1.0
C      1  0.4635349023339  0.2120970443054  0.4480469582573 1.0
C      1  0.4568222275280  0.5946624736203  0.7842807845630 1.0
C      1  0.4614182734093  0.7050700639995  0.2723746825410 1.0
C      1  0.4671074128483  0.7854653875854  0.4461925683616 1.0
C      1  0.4565331858814  0.4021810581473  0.7834084297135 1.0
C      1  0.4600931374015  0.2963935805231  0.2752738754104 1.0
C      1  0.3932799103362  0.7462584420039  0.4086114929485 1.0
C      1  0.3815264622020  0.2728609633731  0.3216098160002 1.0
C      1  0.3797009507928  0.4522393323943  0.7717339032436 1.0
C      1  0.3892547378205  0.2490947001318  0.4087235139120 1.0
C      1  0.3830454203367  0.7269897737978  0.3206887032143 1.0
C      1  0.3803186986682  0.5425450712946  0.7738235037013 1.0
C      1  0.4548582490967  0.5510254547887  0.2043587147862 1.0
C      1  0.4670086063334  0.2120805344122  0.6135776429896 1.0
C      1  0.4668625325031  0.7348840932677  0.6957740569152 1.0
C      1  0.4538934732677  0.4507718532126  0.2061852214280 1.0
C      1  0.4680245973879  0.7846191384519  0.6127666294208 1.0
C      1  0.4655275739327  0.2597314670925  0.6980579621391 1.0
C      1  0.2687819177062  0.6237994068985  0.3641186391562 1.0
C      1  0.2599870244164  0.3336592959673  0.4576494876482 1.0
C      1  0.2577897567800  0.5466489945878  0.6614056251463 1.0
C      1  0.2648681940218  0.3748153838263  0.3652307854440 1.0
C      1  0.2670980839660  0.6618186312064  0.4581893830153 1.0
C      1  0.2536066553979  0.4459005585895  0.6601222519244 1.0
C      1  0.7327748082502  0.5487915458269  0.3220285794251 1.0
C      1  0.7301477888387  0.3389987845903  0.5426436601234 1.0
C      1  0.7255283295005  0.6218575131820  0.6228381531791 1.0
C      1  0.7368118334828  0.4488309661436  0.3264351138595 1.0
C      1  0.7357502062013  0.6661438430824  0.5372771480958 1.0
C      1  0.7238966543141  0.3874042124791  0.6239592628837 1.0
C      1  0.5414907425116  0.4498042578415  0.7799308800175 1.0
C      1  0.5512710803041  0.7695749856938  0.4022044827419 1.0
C      1  0.5442432540357  0.2842618199926  0.3201310836097 1.0
C      1  0.5423250245750  0.5504628602900  0.7782238994870 1.0
C      1  0.5483784312633  0.2342373239340  0.4076549641683 1.0
C      1  0.5468782913151  0.7185925247662  0.3147281144736 1.0
C      1  0.5905639916092  0.5468738770343  0.3809160544730 1.0
C      1  0.5769588876276  0.3879425075506  0.5121546799497 1.0
C      1  0.5757251633230  0.5790432286045  0.5867133604806 1.0
C      1  0.5897398458761  0.4557981337826  0.3847103355810 1.0
C      1  0.5805154563539  0.6214626819065  0.5045092379056 1.0
C      1  0.5676513097638  0.4381922918952  0.5912220283441 1.0
C      1  0.3529118556499  0.2970375408163  0.4882483369273 1.0
C      1  0.3519165596069  0.5837999196962  0.6892669772013 1.0
C      1  0.3315802736682  0.6508138888352  0.2982134941337 1.0
C      1  0.3603465080822  0.6967506915362  0.4894318393340 1.0
C      1  0.3435973000515  0.4039691666303  0.6926336658083 1.0
C      1  0.3303781834415  0.3500833048237  0.3005758369832 1.0
C      1  0.4099179904988  0.3795323549764  0.2437955548981 1.0
C      1  0.4191263860329  0.3312486421528  0.7269957022379 1.0
C      1  0.4279664805039  0.7683404751043  0.5338331671774 1.0
C      1  0.4112146696495  0.6231400900441  0.2399838077387 1.0
C      1  0.4208654700740  0.6619059799745  0.7230016794256 1.0
C      1  0.4238526387906  0.2261569626029  0.5357324711049 1.0
C      1  0.5225831972394  0.5877601810268  0.4328417365742 1.0
C      1  0.5214214589646  0.4150267662543  0.4383571235221 1.0
C      1  0.5063098398415  0.5166268076305  0.6071545778720 1.0
END
