TITL C-36870-3797-9 -4.516 3375.00 -784.53055176 0 0 98 (C1) n - 1
REM
REM Run started: at 2020.12.04 04:21:08 in /rds/project/t2_vol4/rds-t2-cs072/BORA/CARBON/AIRSS/Generating-Clusters/Str-Search/Higher-Symm/C10-100
REM VASP from code version vasp.5.4.4.18Apr17-6-g9f103f2a35 (build Oct 11 2019 16:45:47) gamma-only
REM
REM
REM
REM
REM ./C.cell (f39ce9773e2efe3fa5bbdf770a4156b8)
REM AIRSS Version 0.9.1 bugfix July 2018 build 013d7b7c2542+ Fri, 06 Jul 2018 19:26:36 +0100
REM compiler GCC version 4.8.5 20150623 (Red Hat 4.8.5-39)
REM options -cpp -mtune=generic -march=x86-64 -g -O0
REM seed -331634445 800480382 1200459048 1886310857 -611125290 130376294 1235189737 -251113878 1951638902 477379176 -616010034 623349823
REM
REM C.POTCAR (d86ddea03c3ceb6dc662c8ad6801f873)
REM 
CELL 1.54180   15.00000   15.00000   15.00000   90.00000   90.00000   90.00000
LATT -1
SFAC C  
C      1  0.3403837306749  0.6836732135617  0.6400461541654 1.0
C      1  0.3362928311368  0.7066732909502  0.3779700554955 1.0
C      1  0.3264534666077  0.4475345675570  0.2732299452123 1.0
C      1  0.3400443045818  0.2597491419321  0.4848748750195 1.0
C      1  0.3506338812891  0.4003309723765  0.7188671511578 1.0
C      1  0.4981680171556  0.8338926705739  0.5256199192722 1.0
C      1  0.4805197282956  0.5903620801426  0.2161791375722 1.0
C      1  0.5042807551345  0.2631531662674  0.2915710834383 1.0
C      1  0.4972041006735  0.2078788503245  0.6803601623217 1.0
C      1  0.5144794065986  0.5730708784034  0.7968327603359 1.0
C      1  0.2976182277835  0.5495120230654  0.6562454566783 1.0
C      1  0.2476734264815  0.6227487859400  0.5022080570531 1.0
C      1  0.2472538083892  0.5454466621118  0.3841439839664 1.0
C      1  0.2586452601878  0.3993671186151  0.4343775460993 1.0
C      1  0.2641367824252  0.4074226662712  0.5753158031103 1.0
C      1  0.4692116663769  0.4562808737952  0.5658970850130 1.0
C      1  0.4667020222956  0.5556561205689  0.5626414114110 1.0
C      1  0.4729320141117  0.5866255233761  0.4686790601434 1.0
C      1  0.4750227560462  0.5066170597695  0.4116287809532 1.0
C      1  0.4726743378148  0.4274933250710  0.4707910431445 1.0
C      1  0.4403704772989  0.2549327756266  0.3650046077221 1.0
C      1  0.4174160598444  0.2427051316384  0.7182036083673 1.0
C      1  0.4431319891353  0.6135030366575  0.7465487577878 1.0
C      1  0.4412075672133  0.7919527984386  0.4619874788296 1.0
C      1  0.3955016857303  0.5628152721741  0.1925743664170 1.0
C      1  0.7549521313576  0.4345719205463  0.2918561484688 1.0
C      1  0.7103980783609  0.2680766700382  0.4418307035636 1.0
C      1  0.7362139466946  0.2962258979971  0.6176453208920 1.0
C      1  0.7080383651993  0.6906628910452  0.6608368342526 1.0
C      1  0.7477929478311  0.7702467624809  0.5063026766077 1.0
C      1  0.5451035606466  0.5122511671723  0.2433158869829 1.0
C      1  0.5216735093025  0.2622813501017  0.4293030427036 1.0
C      1  0.5591964085582  0.3547066168553  0.7038584005177 1.0
C      1  0.5152331049991  0.6647428483063  0.6977822060361 1.0
C      1  0.5269652237209  0.7505927065205  0.4172218127507 1.0
C      1  0.6079708426591  0.5909485588405  0.3824766047939 1.0
C      1  0.6109725019783  0.4228252342984  0.3819603550825 1.0
C      1  0.6073214099097  0.3719607111080  0.5386078814532 1.0
C      1  0.5980454376599  0.5105599701628  0.6417356590378 1.0
C      1  0.5997665171202  0.6486254776973  0.5466344611911 1.0
C      1  0.2764471621015  0.4546022887969  0.3555082888776 1.0
C      1  0.2911044554348  0.3373986416671  0.5059887327935 1.0
C      1  0.2966096375015  0.4526084333950  0.6547418058146 1.0
C      1  0.2802058149194  0.6263908071307  0.5898663596848 1.0
C      1  0.2779648403680  0.6368441044380  0.4048575452974 1.0
C      1  0.3557924066044  0.2519182817386  0.3907301416918 1.0
C      1  0.3669793419659  0.3083314182354  0.7087702812482 1.0
C      1  0.3611007970746  0.6089422542978  0.7028990038560 1.0
C      1  0.3570586100017  0.7702739427756  0.4455528219540 1.0
C      1  0.3262507000570  0.5202696783314  0.2110449181901 1.0
C      1  0.6903335974478  0.5977422425151  0.5295160486416 1.0
C      1  0.6919781283820  0.5605185475983  0.4344647756916 1.0
C      1  0.6922330890956  0.4617136837855  0.4385901850543 1.0
C      1  0.6903998229431  0.4323551807858  0.5338959219756 1.0
C      1  0.6875054566111  0.5158420872627  0.5902958792387 1.0
C      1  0.6975674097677  0.5921732821796  0.3394059361270 1.0
C      1  0.6825225404344  0.3687141311597  0.3222760672505 1.0
C      1  0.6611662530118  0.2810822431951  0.5371851391945 1.0
C      1  0.6823303730916  0.5290478119806  0.6886755601303 1.0
C      1  0.6447574815931  0.7310503519332  0.5958266811508 1.0
C      1  0.4924531109122  0.4283094007711  0.2249474105289 1.0
C      1  0.4930843182599  0.2055591286331  0.5048410914809 1.0
C      1  0.5093646096648  0.3954409907280  0.7755012861744 1.0
C      1  0.4803079740814  0.7525008414099  0.6731322728780 1.0
C      1  0.4939735857058  0.7381075050766  0.3238917060621 1.0
C      1  0.5773486464022  0.2616359255515  0.6859265452738 1.0
C      1  0.5850674969358  0.6311815959097  0.7624636569348 1.0
C      1  0.5797717603071  0.8186276693202  0.4785964734470 1.0
C      1  0.6389969990034  0.5115542942775  0.2075360412427 1.0
C      1  0.5803444068963  0.2458114020580  0.3475685319057 1.0
C      1  0.7558120148323  0.3534595322366  0.5438590103299 1.0
C      1  0.7525246189488  0.6682742987793  0.5755054251295 1.0
C      1  0.8196940696366  0.7262289105321  0.5323583531640 1.0
C      1  0.7599406409998  0.4071955662275  0.3854760995949 1.0
C      1  0.7808950395832  0.3304863154564  0.4512307489824 1.0
C      1  0.4049272586836  0.7143546352007  0.3099812327187 1.0
C      1  0.4070021236065  0.3996819101968  0.2481430188785 1.0
C      1  0.4053787161261  0.2055270708250  0.5319400863003 1.0
C      1  0.4209029028784  0.4285069512568  0.7763860958041 1.0
C      1  0.3916398151771  0.7601763029384  0.6429050945798 1.0
C      1  0.5406490271197  0.5982693789146  0.6160213535905 1.0
C      1  0.5506109077826  0.6538642527841  0.4507679618660 1.0
C      1  0.5541079930597  0.5076583951343  0.3490692045787 1.0
C      1  0.5499847678429  0.3650387148050  0.4519795523367 1.0
C      1  0.5577697015856  0.4151755714876  0.6231814275718 1.0
C      1  0.4755369482523  0.1799620255002  0.5938865348711 1.0
C      1  0.4946416371829  0.4813580196001  0.8071135401817 1.0
C      1  0.4653936155843  0.8199028244978  0.6130283282968 1.0
C      1  0.4738088316091  0.6708534811373  0.2605763027170 1.0
C      1  0.4804153601779  0.3378667269121  0.2419086093374 1.0
C      1  0.6578266623149  0.2509357675026  0.6304862239058 1.0
C      1  0.6716847830086  0.6197869807410  0.7171833242392 1.0
C      1  0.6598020934339  0.7964011100603  0.5259059183938 1.0
C      1  0.7064292949520  0.5194592405977  0.2748713370131 1.0
C      1  0.6684778784967  0.2739469637376  0.3550468387254 1.0
C      1  0.2114854075386  0.5397133886201  0.4734558462671 1.0
C      1  0.5376705857768  0.5073290632447  0.4992724614118 1.0
C      1  0.2212741879528  0.4545098457563  0.5040729744022 1.0
END
