TITL C-36870-3797-16 -3.367 3375.00 -566.84038670 0 0 70 (C1) n - 1
REM
REM Run started: at 2020.12.04 06:54:18 in /rds/project/t2_vol4/rds-t2-cs072/BORA/CARBON/AIRSS/Generating-Clusters/Str-Search/Higher-Symm/C10-100
REM VASP from code version vasp.5.4.4.18Apr17-6-g9f103f2a35 (build Oct 11 2019 16:45:47) gamma-only
REM
REM
REM
REM
REM ./C.cell (f39ce9773e2efe3fa5bbdf770a4156b8)
REM AIRSS Version 0.9.1 bugfix July 2018 build 013d7b7c2542+ Fri, 06 Jul 2018 19:26:36 +0100
REM compiler GCC version 4.8.5 20150623 (Red Hat 4.8.5-39)
REM options -cpp -mtune=generic -march=x86-64 -g -O0
REM seed -1291262396 1576372094 -1559025419 2318866 -1096748758 1170480832 641281610 2120536971 -1599020291 1775192117 -2136903492 -2112085600
REM
REM C.POTCAR (d86ddea03c3ceb6dc662c8ad6801f873)
REM 
CELL 1.54180   15.00000   15.00000   15.00000   90.00000   90.00000   90.00000
LATT -1
SFAC C  
C      1  0.5991012733676  0.6886228230161  0.5324080325657 1.0
C      1  0.3677974122981  0.6562613558962  0.5443731563859 1.0
C      1  0.3222725543097  0.4137920886490  0.5472750041044 1.0
C      1  0.5286573674841  0.2843672361929  0.5352640181057 1.0
C      1  0.6917364708912  0.4600078020434  0.5425788450361 1.0
C      1  0.6830715569609  0.2680640816788  0.4919328448764 1.0
C      1  0.7597583404918  0.5968290863751  0.5034708217226 1.0
C      1  0.4945279389906  0.8033181083859  0.4881685870219 1.0
C      1  0.2275168237514  0.5865532423023  0.5079133957392 1.0
C      1  0.3450193928340  0.2636196278247  0.5043401540458 1.0
C      1  0.4631062881320  0.3555858713980  0.7604665024724 1.0
C      1  0.6160692503805  0.4605033527765  0.7447164142124 1.0
C      1  0.6059178144142  0.5600404023620  0.7437267836218 1.0
C      1  0.4340751696292  0.6308413974250  0.7543313977830 1.0
C      1  0.3444248874694  0.4765577172127  0.7749338199987 1.0
C      1  0.7001678506774  0.4015144608536  0.3719881254709 1.0
C      1  0.6565925785449  0.6636683657727  0.3676141610141 1.0
C      1  0.3953850809386  0.7003333555821  0.3714857827868 1.0
C      1  0.2824657287143  0.4606609247040  0.3787513074699 1.0
C      1  0.4713234322939  0.2729791283655  0.3684725372393 1.0
C      1  0.3351569390171  0.5539223675525  0.2848628502447 1.0
C      1  0.3970441096850  0.3594486866325  0.2814364436643 1.0
C      1  0.6019187612179  0.3589250688615  0.2776936669479 1.0
C      1  0.6668944462407  0.5517964457256  0.2789634306974 1.0
C      1  0.5005599019706  0.6714945810671  0.2786469193375 1.0
C      1  0.5891936599913  0.4068820989131  0.6713464155239 1.0
C      1  0.5718146453362  0.6062311519802  0.6690461607063 1.0
C      1  0.4789521507571  0.6411808510651  0.6751408590520 1.0
C      1  0.3245789933698  0.4849265654858  0.6942732157102 1.0
C      1  0.5036239969829  0.3561620298640  0.6785391704363 1.0
C      1  0.3230734053360  0.3115942212841  0.4272827846885 1.0
C      1  0.6261313433475  0.2615872263547  0.4168369929992 1.0
C      1  0.7550469881117  0.5443909001724  0.4255213886087 1.0
C      1  0.5404498733736  0.7682850736249  0.4136170544603 1.0
C      1  0.2689442594224  0.6183988960412  0.4289560239765 1.0
C      1  0.6454870256381  0.4544686425977  0.3028922693845 1.0
C      1  0.5886773449594  0.6231036209548  0.3025141307949 1.0
C      1  0.4095794707858  0.6213301018098  0.3069756912783 1.0
C      1  0.3568874799046  0.4506629014970  0.3080100807032 1.0
C      1  0.5024107668252  0.3469356557095  0.3040751840817 1.0
C      1  0.4830987093907  0.4171080437512  0.8273635134851 1.0
C      1  0.5697135097722  0.4573604821681  0.8294434903214 1.0
C      1  0.5587154902727  0.5550581467979  0.8279866240821 1.0
C      1  0.4653344278006  0.5736599146177  0.8206918702108 1.0
C      1  0.4172059452753  0.4884429251677  0.8308413060732 1.0
C      1  0.3723483796972  0.3288445830051  0.5668748459181 1.0
C      1  0.6243185968756  0.3089258633761  0.5514770880473 1.0
C      1  0.6977575543168  0.5576617688912  0.5620099507932 1.0
C      1  0.5124692223147  0.7348682237131  0.5490071081138 1.0
C      1  0.3018247425180  0.5829873697790  0.5646314389897 1.0
C      1  0.6188358121304  0.7117926415296  0.4392389155465 1.0
C      1  0.3458063749105  0.6773141075812  0.4486823352993 1.0
C      1  0.2945139584025  0.4032355219615  0.4531604933939 1.0
C      1  0.5296879141148  0.2563707279197  0.4404472840898 1.0
C      1  0.7254992378089  0.4526258505874  0.4490931405660 1.0
C      1  0.7192364933026  0.5906871201507  0.3490896966915 1.0
C      1  0.4814765495818  0.7383003073275  0.3437596930335 1.0
C      1  0.2716484513689  0.5549066552180  0.3561352197781 1.0
C      1  0.3780594896191  0.2959417565728  0.3502527785323 1.0
C      1  0.6562089583945  0.3185493251733  0.3453108380036 1.0
C      1  0.5770122172085  0.4767572588396  0.3698651700899 1.0
C      1  0.5462831414437  0.5652470609281  0.3709421846115 1.0
C      1  0.4537691133591  0.5623237508151  0.3728954947471 1.0
C      1  0.4280862442261  0.4723427630202  0.3725486814193 1.0
C      1  0.5041045320944  0.4188929524924  0.3720369289990 1.0
C      1  0.6409431300960  0.3951660856880  0.5912825162893 1.0
C      1  0.6249015726757  0.6173554964953  0.5898091293055 1.0
C      1  0.4443790309189  0.6823866093655  0.5931385805489 1.0
C      1  0.3161247613982  0.4918509555064  0.6042169922989 1.0
C      1  0.4652235638648  0.3171885155508  0.5969232657522 1.0
END
