TITL C-36870-3797-2 -3.85 3375.00 -619.52893818 0 0 77 (C1) n - 1
REM
REM Run started: at 2020.12.04 01:53:09 in /rds/project/t2_vol4/rds-t2-cs072/BORA/CARBON/AIRSS/Generating-Clusters/Str-Search/Higher-Symm/C10-100
REM VASP from code version vasp.5.4.4.18Apr17-6-g9f103f2a35 (build Oct 11 2019 16:45:47) gamma-only
REM
REM
REM
REM
REM ./C.cell (f39ce9773e2efe3fa5bbdf770a4156b8)
REM AIRSS Version 0.9.1 bugfix July 2018 build 013d7b7c2542+ Fri, 06 Jul 2018 19:26:36 +0100
REM compiler GCC version 4.8.5 20150623 (Red Hat 4.8.5-39)
REM options -cpp -mtune=generic -march=x86-64 -g -O0
REM seed 853044562 -1172905032 346065240 1412127709 641554128 -1686305874 1043831886 855881982 1140166245 -1833538276 -72036146 325473489
REM
REM C.POTCAR (d86ddea03c3ceb6dc662c8ad6801f873)
REM 
CELL 1.54180   15.00000   15.00000   15.00000   90.00000   90.00000   90.00000
LATT -1
SFAC C  
C      1  0.5449251431977  0.3652397681048  0.4101003140400 1.0
C      1  0.4559469423574  0.3911259157882  0.5185798333048 1.0
C      1  0.3911716879207  0.4646059824220  0.3881641247972 1.0
C      1  0.3810435405835  0.5373393571460  0.5423878195139 1.0
C      1  0.4709180106026  0.5931125399060  0.4451106781164 1.0
C      1  0.5623180304195  0.5768656542669  0.5757881370707 1.0
C      1  0.6054716535936  0.5145038164515  0.4264961678235 1.0
C      1  0.6089221817115  0.4336933837691  0.5661882269357 1.0
C      1  0.3886955622149  0.7205989368579  0.6407990826518 1.0
C      1  0.5674090568365  0.7475178241467  0.3944081569012 1.0
C      1  0.7604931100066  0.6239974641994  0.6055353317761 1.0
C      1  0.7708323359460  0.4112627049015  0.3913432287249 1.0
C      1  0.5959197346600  0.2753889947531  0.5831604183822 1.0
C      1  0.4075265244008  0.2158740004054  0.3970610126977 1.0
C      1  0.2939337059710  0.3984886604800  0.5914998560172 1.0
C      1  0.2940705849994  0.5957916891177  0.3923217090088 1.0
C      1  0.4745329012530  0.5802812685070  0.5359741915037 1.0
C      1  0.5518120462618  0.5895548963895  0.3913011913197 1.0
C      1  0.6131353916365  0.5174404974419  0.5182594073151 1.0
C      1  0.6141962231160  0.4286325443976  0.3823873137051 1.0
C      1  0.5530767270218  0.3606979109355  0.5259046408195 1.0
C      1  0.4553431421114  0.4037632037084  0.4286784306461 1.0
C      1  0.3893075554705  0.4407026141188  0.5702711339353 1.0
C      1  0.3800661820282  0.5512390285387  0.4371404566264 1.0
C      1  0.4649774333316  0.2990857399072  0.6925577136514 1.0
C      1  0.3155070959825  0.3451354307345  0.3255261393158 1.0
C      1  0.3552392056089  0.5325031879433  0.6963204284052 1.0
C      1  0.4004285129656  0.6767772637005  0.2560009967050 1.0
C      1  0.5325853712601  0.6728386460419  0.6927981495097 1.0
C      1  0.6868393588423  0.6336127449536  0.3288237630533 1.0
C      1  0.7311517475021  0.4680267961308  0.6669189420681 1.0
C      1  0.6517330402709  0.2871918432589  0.3350007517930 1.0
C      1  0.8251726785530  0.5522755550594  0.4662671009727 1.0
C      1  0.7583273553124  0.3139899574821  0.5303848298595 1.0
C      1  0.5451950986134  0.1672560054151  0.4670577280287 1.0
C      1  0.3351455104835  0.2371683932480  0.5531509236815 1.0
C      1  0.2119049323560  0.4706595013238  0.4583367152842 1.0
C      1  0.2651080542276  0.6898596076214  0.5321501357118 1.0
C      1  0.4433772701235  0.7838811615630  0.4923645311753 1.0
C      1  0.6682158535563  0.7399099676181  0.5322678717511 1.0
C      1  0.6862561051355  0.6830716023747  0.6042373076636 1.0
C      1  0.7899607460128  0.5066276997257  0.3913470686191 1.0
C      1  0.6909287906711  0.3150794342163  0.5937568714117 1.0
C      1  0.5020696083806  0.2057341241170  0.3923738549839 1.0
C      1  0.3206510571807  0.3044513059269  0.6177751398036 1.0
C      1  0.2464349880895  0.5042443169543  0.3769411756546 1.0
C      1  0.3124729711346  0.6742003295993  0.6121502661759 1.0
C      1  0.4733891531104  0.7613470789319  0.4048824147043 1.0
C      1  0.5846836740686  0.1920407710518  0.5345202882030 1.0
C      1  0.3627720793415  0.2064468764593  0.4816098450586 1.0
C      1  0.2273518277343  0.4339797271744  0.5316418355412 1.0
C      1  0.2531571366327  0.6514544518306  0.4608276129584 1.0
C      1  0.4228725196524  0.7771172226587  0.5722879632758 1.0
C      1  0.6253191667103  0.7668362319839  0.4663220420616 1.0
C      1  0.8158159777400  0.6032430904978  0.5312855953822 1.0
C      1  0.7901726008406  0.3544728723390  0.4636229377005 1.0
C      1  0.3583243209201  0.4342029360796  0.6662769687189 1.0
C      1  0.3426096890386  0.6584711512409  0.3284212968596 1.0
C      1  0.4442494324145  0.6703831933312  0.7070718868644 1.0
C      1  0.5989423454546  0.6610465408738  0.3545770388664 1.0
C      1  0.7527710018129  0.5470641454783  0.6594168670433 1.0
C      1  0.6856471959533  0.3782601122733  0.3513707181789 1.0
C      1  0.5391933603907  0.2787792498724  0.6640719642660 1.0
C      1  0.3593404669551  0.2772974559273  0.3436853692063 1.0
C      1  0.6764762524267  0.4047386441038  0.6271345514051 1.0
C      1  0.5647867572935  0.2776826009975  0.3620906379938 1.0
C      1  0.3781756378261  0.3344990953399  0.6862281036509 1.0
C      1  0.3142062949506  0.4379433735709  0.3451192469720 1.0
C      1  0.3303452506129  0.5792776523253  0.6196219336301 1.0
C      1  0.4120406092047  0.7183577469518  0.3421254837359 1.0
C      1  0.5975688491087  0.6454375110927  0.6380744886226 1.0
C      1  0.7381534445197  0.5691791958285  0.3415675290294 1.0
C      1  0.4102439827670  0.5860674966159  0.7558143000069 1.0
C      1  0.4306641710907  0.6602117581202  0.1730459394677 1.0
C      1  0.4592471890234  0.6515752596815  0.0934189777056 1.0
C      1  0.4526181744281  0.5545936827176  0.8299183935714 1.0
C      1  0.5022559780619  0.5177184029810  0.8892815004074 1.0
END
