TITL C-36030-9145-5 -6.96 3375.00 -1201.50925495 0 0 147 (C1) n - 1
REM
REM Run started: at 2020.12.04 08:34:06 in /rds/project/t2_vol4/rds-t2-cs072/BORA/CARBON/AIRSS/Generating-Clusters/Str-Search/Higher-Symm/C100-200
REM VASP from code version vasp.5.4.4.18Apr17-6-g9f103f2a35 (build Oct 11 2019 16:45:47) gamma-only
REM
REM
REM
REM
REM ./C.cell (533062f00bc710175b3da973d35f2034)
REM AIRSS Version 0.9.1 bugfix July 2018 build 013d7b7c2542+ Fri, 06 Jul 2018 19:26:36 +0100
REM compiler GCC version 4.8.5 20150623 (Red Hat 4.8.5-39)
REM options -cpp -mtune=generic -march=x86-64 -g -O0
REM seed 1481020887 -516375376 -1638032555 1560506632 -523021698 -1108927628 -592690940 395203335 -483115980 2063680388 1452413639 660437775
REM
REM C.POTCAR (d86ddea03c3ceb6dc662c8ad6801f873)
REM 
CELL 1.54180   15.00000   15.00000   15.00000   90.00000   90.00000   90.00000
LATT -1
SFAC C  
C      1  0.4591874089769  0.4356939198435  0.3873242478534 1.0
C      1  0.5578518185605  0.4275083186415  0.3542236490791 1.0
C      1  0.6251540645708  0.4128624876120  0.4364343721536 1.0
C      1  0.5833245592620  0.4482140378667  0.5921281912526 1.0
C      1  0.5058952643442  0.4447315737918  0.6518788997679 1.0
C      1  0.4341815253128  0.4632010102609  0.5847192708580 1.0
C      1  0.3123574010915  0.4098089315889  0.4718775542717 1.0
C      1  0.7737969890681  0.3870412041537  0.6208899032786 1.0
C      1  0.5819300168610  0.3843235646245  0.7804754232965 1.0
C      1  0.3324209793966  0.4187208326082  0.7469399120958 1.0
C      1  0.1723836900319  0.4389006228074  0.5525118184651 1.0
C      1  0.2805983829795  0.4214884430405  0.2440639968134 1.0
C      1  0.5236348665095  0.4321324636920  0.1930565397581 1.0
C      1  0.7423147041137  0.3739997955997  0.3255713856529 1.0
C      1  0.7447586241221  0.4067783852867  0.7112503496693 1.0
C      1  0.5903963062287  0.3659223564550  0.8814343558497 1.0
C      1  0.2499440311543  0.4374079493931  0.6961016612470 1.0
C      1  0.1571180409020  0.4400790179202  0.4530727974976 1.0
C      1  0.1872962954994  0.4562533440204  0.2199665838568 1.0
C      1  0.5670733449473  0.4244684085898  0.1048976781866 1.0
C      1  0.8433685209606  0.3647157726107  0.3014616724421 1.0
C      1  0.6498542389486  0.2174424740906  0.4835193082097 1.0
C      1  0.6568834159019  0.2911234859106  0.6572413371551 1.0
C      1  0.4034317012583  0.2824927434842  0.6593841260409 1.0
C      1  0.3750498845441  0.2277511386567  0.4965052724565 1.0
C      1  0.3281595931635  0.2876547096897  0.3308157622410 1.0
C      1  0.4591690205676  0.2803173076710  0.2215383394299 1.0
C      1  0.6246325026926  0.2534680018343  0.3031164283943 1.0
C      1  0.1218206592259  0.5753504610032  0.5217238803968 1.0
C      1  0.2815867444582  0.5755679594755  0.2611389907649 1.0
C      1  0.5807134882787  0.5744455338106  0.1496821599932 1.0
C      1  0.8004236646757  0.5077311713888  0.2711144204869 1.0
C      1  0.8401423899021  0.5156563183771  0.6512676045292 1.0
C      1  0.6020508052854  0.5157069878848  0.8613409381010 1.0
C      1  0.2812062194343  0.5611033776415  0.7976651921109 1.0
C      1  0.7121654926170  0.2866422047690  0.5061439298024 1.0
C      1  0.6631456444118  0.3546867455855  0.7264556041040 1.0
C      1  0.3955236865917  0.3531433355805  0.7279604391142 1.0
C      1  0.2305041414360  0.3924907875324  0.6109039482861 1.0
C      1  0.2650882598193  0.3625934408067  0.3287312709746 1.0
C      1  0.4392553633371  0.3730309772319  0.1866866141057 1.0
C      1  0.6681191661507  0.3316181834074  0.2691363835830 1.0
C      1  0.2256759185168  0.5299985871664  0.7189530269134 1.0
C      1  0.1105717455548  0.5236416924601  0.4374128665617 1.0
C      1  0.1888508441498  0.5421908486950  0.2481307525813 1.0
C      1  0.5930985940426  0.5121393330627  0.0781694780595 1.0
C      1  0.8758903602508  0.4408907536697  0.2698486667867 1.0
C      1  0.7889728077779  0.4876018792528  0.7339103663526 1.0
C      1  0.6067546948327  0.4444879836605  0.9241381414002 1.0
C      1  0.6072448207749  0.5633053848631  0.6999393239080 1.0
C      1  0.4147637355504  0.5564624143312  0.7187503583567 1.0
C      1  0.2875298716508  0.5563012048656  0.5654788710448 1.0
C      1  0.3678519374544  0.5676621874938  0.4168881251555 1.0
C      1  0.4927189168774  0.5748299200943  0.3113338416847 1.0
C      1  0.6712737972433  0.5438101222197  0.3559371379656 1.0
C      1  0.7764652868879  0.5151195739139  0.5002094043881 1.0
C      1  0.7010395769448  0.7813172934881  0.6361920910550 1.0
C      1  0.6247196943652  0.8261284155060  0.6707979680581 1.0
C      1  0.4681496620670  0.8263067536192  0.7312510906986 1.0
C      1  0.2903142764495  0.8553879330675  0.5136290197371 1.0
C      1  0.3668015585977  0.8271140895838  0.4556732334689 1.0
C      1  0.3916869908291  0.8636448833557  0.3244276636540 1.0
C      1  0.6099451463288  0.8683365002328  0.4084234931511 1.0
C      1  0.4993434496060  0.3609391290770  0.7210835492814 1.0
C      1  0.2995002301908  0.3550056111106  0.5580010103993 1.0
C      1  0.2307844496799  0.3966244882657  0.4096971435376 1.0
C      1  0.3466399570387  0.3644686339997  0.1950256357389 1.0
C      1  0.5757603915940  0.3734151199503  0.2623717124365 1.0
C      1  0.6985753393231  0.3350241426129  0.4162469157247 1.0
C      1  0.7265956223464  0.3122320671418  0.5916390332164 1.0
C      1  0.2709106826376  0.6554806147519  0.5896392998584 1.0
C      1  0.3855735061830  0.6679981268621  0.4013283198457 1.0
C      1  0.4819429859431  0.6729652480983  0.3479048140725 1.0
C      1  0.7028889654162  0.6413544211797  0.3464580104649 1.0
C      1  0.7877698800112  0.6100445574073  0.5074626363551 1.0
C      1  0.6761878756032  0.6224294527044  0.7516218779235 1.0
C      1  0.4114906232476  0.6552071972426  0.7182577676504 1.0
C      1  0.3099616043332  0.7152511739826  0.3492555212194 1.0
C      1  0.4918047521190  0.7464231119918  0.2694079949429 1.0
C      1  0.7840052661371  0.6620977122958  0.3100899873769 1.0
C      1  0.8073486005704  0.6580781818735  0.5893384942691 1.0
C      1  0.6615414283782  0.6541663578381  0.8498979159300 1.0
C      1  0.3620508575358  0.7094829497724  0.7761817988699 1.0
C      1  0.2040236818198  0.7085075807708  0.5264201075735 1.0
C      1  0.6290541689987  0.5309171383921  0.6073521263922 1.0
C      1  0.5110539686331  0.5245190315595  0.7136724959246 1.0
C      1  0.3734459839219  0.5233419951314  0.6185398079679 1.0
C      1  0.3185192960616  0.5198412386624  0.4770643139128 1.0
C      1  0.4142004293740  0.5162963422421  0.3436036618172 1.0
C      1  0.5769972014575  0.5227096961194  0.3232455172862 1.0
C      1  0.6793316150469  0.5061050231990  0.4536700338272 1.0
C      1  0.6975266959718  0.6620664992575  0.5027180898274 1.0
C      1  0.6773274954492  0.7165367850838  0.7882832406210 1.0
C      1  0.4292657123213  0.6968695880404  0.6316038696679 1.0
C      1  0.3607665660196  0.6981846417814  0.5725777322874 1.0
C      1  0.4007368359756  0.7289511748486  0.4837433255608 1.0
C      1  0.5470421151689  0.6938142510883  0.4263684366877 1.0
C      1  0.6521573881153  0.7000504626419  0.4154913139497 1.0
C      1  0.7300277694029  0.4758140545491  0.3129893552779 1.0
C      1  0.8121190683305  0.4641539192876  0.5762173182869 1.0
C      1  0.5795228283650  0.4896365722228  0.7743682020534 1.0
C      1  0.3574426849547  0.5077946180578  0.7874471306394 1.0
C      1  0.1826019734607  0.5295969531053  0.5742562873992 1.0
C      1  0.3372016424066  0.5051672948023  0.2760840798988 1.0
C      1  0.5387140938620  0.5301874557702  0.2277502355785 1.0
C      1  0.7324635212212  0.7185481885269  0.5794924669839 1.0
C      1  0.6865548441331  0.7933923094643  0.7316030819946 1.0
C      1  0.3980519048597  0.7971275634672  0.7657041421820 1.0
C      1  0.2313764307548  0.7947729465109  0.5171706130009 1.0
C      1  0.3255613176242  0.8058579664557  0.3639534996560 1.0
C      1  0.4474322905756  0.8246040877459  0.2655660958992 1.0
C      1  0.6540321301083  0.7983693073959  0.4059863304483 1.0
C      1  0.8390332069375  0.5945107261547  0.2765772448431 1.0
C      1  0.8291404033599  0.6083606786041  0.6649454868861 1.0
C      1  0.6332087938493  0.5862156508091  0.9118289133988 1.0
C      1  0.2801666906080  0.6550491596202  0.7738053716198 1.0
C      1  0.1405049925249  0.6559171361723  0.4789259335190 1.0
C      1  0.2549578789465  0.6602077069895  0.2972658436213 1.0
C      1  0.5504761385411  0.7194358917554  0.2036988394623 1.0
C      1  0.9078260103911  0.5318586230893  0.2682477114467 1.0
C      1  0.7649301799200  0.5795016136783  0.7359635876275 1.0
C      1  0.6246396419761  0.5198896776947  0.9893782874036 1.0
C      1  0.2411072734596  0.6265976785938  0.6894310954938 1.0
C      1  0.1244602325049  0.6086208744319  0.3899895057271 1.0
C      1  0.1646847826916  0.6197170253019  0.3049075714618 1.0
C      1  0.5933659691403  0.6652666557470  0.1582884755193 1.0
C      1  0.6513913396402  0.2469318970410  0.3929653807123 1.0
C      1  0.5776207158566  0.2443092207831  0.6277955631140 1.0
C      1  0.4992533091717  0.2747982004690  0.6695875526417 1.0
C      1  0.3583656999600  0.2815055320376  0.5760220856569 1.0
C      1  0.3751861838586  0.2774810212457  0.4166653322755 1.0
C      1  0.3653479933484  0.2814668214124  0.2456506516271 1.0
C      1  0.5391218094083  0.2799516838928  0.2633946775276 1.0
C      1  0.5849208473040  0.1872962989317  0.5485250921679 1.0
C      1  0.4666056347752  0.0673478612948  0.4743908564988 1.0
C      1  0.4313766132629  0.8973121305261  0.4109318924981 1.0
C      1  0.4214617032930  0.1438862941835  0.5029022524574 1.0
C      1  0.5318300902522  0.9154905539749  0.4199601406174 1.0
C      1  0.5016549863156  0.7249855818201  0.5000798736526 1.0
C      1  0.4006070202096  0.3729249377454  0.4377775330960 1.0
C      1  0.5640803072130  0.4050224697191  0.5132951892387 1.0
C      1  0.4745486257227  0.9827313392851  0.4374048951595 1.0
C      1  0.5123148589345  0.1341015091736  0.5239523739794 1.0
C      1  0.5063260003356  0.7453067958155  0.5979607218896 1.0
C      1  0.5317853045637  0.8124242896711  0.6616680300999 1.0
C      1  0.4664321329005  0.4167775368598  0.4990269371019 1.0
C      1  0.6524665517936  0.5723359002956  0.5280458136339 1.0
END
