TITL C-38459-2082-3 -7.986 3375.00 -1347.37776543 0 0 165 (C1) n - 1
REM
REM Run started: at 2020.11.21 04:32:11 in /rds/project/t2_vol4/rds-t2-cs072/BORA/CARBON/AIRSS/Generating-Clusters/Str-Search/Higher-Symm
REM VASP from code version vasp.5.4.4.18Apr17-6-g9f103f2a35 (build Oct 11 2019 16:45:47) gamma-only
REM
REM
REM
REM
REM ./C.cell (e5ae0387ce4d49c7c0135a1433873289)
REM AIRSS Version 0.9.1 bugfix July 2018 build 013d7b7c2542+ Fri, 06 Jul 2018 19:26:36 +0100
REM compiler GCC version 4.8.5 20150623 (Red Hat 4.8.5-39)
REM options -cpp -mtune=generic -march=x86-64 -g -O0
REM seed 2128945093 -779713582 1561888727 -599024606 1531478785 -812833068 10897344 -1362001777 1202409394 -1270228999 1106877634 1712860664
REM
REM C.POTCAR (d86ddea03c3ceb6dc662c8ad6801f873)
REM 
CELL 1.54180   15.00000   15.00000   15.00000   90.00000   90.00000   90.00000
LATT -1
SFAC C  
C      1  0.6741862329755  0.6708274083022  0.2312644944149 1.0
C      1  0.3899796977946  0.5243783095901  0.1822762423121 1.0
C      1  0.7832483356464  0.3084300988226  0.4525233274295 1.0
C      1  0.7208852442354  0.5764265692832  0.5250950174266 1.0
C      1  0.5876925701116  0.0717187840955  0.5305056291400 1.0
C      1  0.7248515564315  0.6821505532145  0.7176469482646 1.0
C      1  0.5026400008151  0.7340390244045  0.8254787245706 1.0
C      1  0.6339717155466  0.4536061237793  0.1588031325225 1.0
C      1  0.4576478038011  0.3860970143758  0.1531632247302 1.0
C      1  0.3311048999248  0.8736655220732  0.5159343379071 1.0
C      1  0.4615338557024  0.2738840931222  0.5741753675513 1.0
C      1  0.6070754701085  0.5123793771976  0.8739731210698 1.0
C      1  0.4062191261222  0.4670681808342  0.4566562401248 1.0
C      1  0.3197942330628  0.3349342637968  0.5418876382394 1.0
C      1  0.5954478583605  0.2481008215992  0.6903717208901 1.0
C      1  0.6923229966808  0.3934403478440  0.2320408660672 1.0
C      1  0.6011654917268  0.3946687116169  0.7779934364253 1.0
C      1  0.6543015527973  0.4963438353601  0.5551419201227 1.0
C      1  0.8101088976997  0.2675228623115  0.6035433921799 1.0
C      1  0.3220948577839  0.3060161798210  0.6347442192557 1.0
C      1  0.7778273217816  0.4269164125126  0.2936852424694 1.0
C      1  0.7304571973316  0.1501407779083  0.5327618348271 1.0
C      1  0.6045820394357  0.3000174068053  0.4341391010737 1.0
C      1  0.3458921471863  0.5042594199510  0.6067955040190 1.0
C      1  0.3684612770680  0.6648365837123  0.4077714213521 1.0
C      1  0.8898288927571  0.6367525996886  0.3764249522839 1.0
C      1  0.3694796070031  0.6737372367810  0.5669027737901 1.0
C      1  0.2284583581980  0.4545627294974  0.7174481060044 1.0
C      1  0.4507070020763  0.5768245017465  0.8986530218144 1.0
C      1  0.5702270245151  0.3617131203169  0.3665580159573 1.0
C      1  0.7248420192174  0.6079546359710  0.7715918622462 1.0
C      1  0.4043784023504  0.5862469121609  0.6199459644684 1.0
C      1  0.3595798466207  0.4373442502553  0.5334077948678 1.0
C      1  0.6729892880615  0.5387860917703  0.1531330892469 1.0
C      1  0.6112995895940  0.7156683553729  0.5016166185145 1.0
C      1  0.7266381135721  0.3719957323622  0.6935004601327 1.0
C      1  0.5969431531165  0.4651224589443  0.7066255493988 1.0
C      1  0.1979370524728  0.6115927030430  0.5612081277452 1.0
C      1  0.2281498144908  0.3368177023421  0.5066440940383 1.0
C      1  0.3924516593228  0.2767110662866  0.5034495304753 1.0
C      1  0.8710294118106  0.6071419360684  0.4587717962617 1.0
C      1  0.3791243274610  0.1857255931702  0.7769808837441 1.0
C      1  0.3358743183127  0.8718086959973  0.5995938641711 1.0
C      1  0.6146152136997  0.1475800179088  0.6591927009296 1.0
C      1  0.1510242598101  0.6431058172766  0.3240935470891 1.0
C      1  0.5539904879538  0.7596679445463  0.6600759672077 1.0
C      1  0.4254101730326  0.1340980826571  0.7249013385649 1.0
C      1  0.6793823380362  0.4369664556950  0.4760894007808 1.0
C      1  0.6613128034799  0.4467964733651  0.6464081604643 1.0
C      1  0.3640192967358  0.7235254165921  0.6627713090968 1.0
C      1  0.2417630081355  0.7000429396023  0.3027130562916 1.0
C      1  0.1789006637773  0.4012687930615  0.5564873547618 1.0
C      1  0.5276250502963  0.6026972321931  0.4258555699288 1.0
C      1  0.4743969727743  0.2302716333544  0.2558236745018 1.0
C      1  0.5477601415059  0.0943390042838  0.6152482460343 1.0
C      1  0.9762755970301  0.6609266384729  0.3446860979106 1.0
C      1  0.6403867405535  0.2326413663343  0.2268761364637 1.0
C      1  0.2312877130311  0.5411679301555  0.2068972095040 1.0
C      1  0.2939712208471  0.2996207450573  0.3677584525172 1.0
C      1  0.3692090279049  0.8305980758083  0.2628860712735 1.0
C      1  0.3811815094360  0.6276221361004  0.7996796297033 1.0
C      1  0.4170515626044  0.5361387713444  0.2873224747478 1.0
C      1  0.3533463945237  0.4629324252622  0.8425751542744 1.0
C      1  0.5476629240859  0.5503827214453  0.7010495929076 1.0
C      1  0.4477720963265  0.3348698876765  0.8173200938854 1.0
C      1  0.1714287283239  0.4231284069745  0.3946373992336 1.0
C      1  0.1666179692734  0.5569202229383  0.2787969953640 1.0
C      1  0.5469982008484  0.7167136195284  0.7475232956271 1.0
C      1  0.4885856959691  0.8239974229705  0.6268030268899 1.0
C      1  0.4195950531796  0.3518102856587  0.3042351578037 1.0
C      1  0.2980406513427  0.3903519337298  0.2141245970627 1.0
C      1  0.4879272116320  0.6117818362381  0.2777746523463 1.0
C      1  0.3228290009547  0.6701867053281  0.2426419606268 1.0
C      1  0.5489361107117  0.2600743179030  0.3635420385713 1.0
C      1  0.3960712251702  0.8142001455957  0.6453735474392 1.0
C      1  0.5728616571283  0.6196674695759  0.7548297541235 1.0
C      1  0.2690769072020  0.6824431907359  0.4058877313828 1.0
C      1  0.7012141641670  0.3898260275222  0.7900049862260 1.0
C      1  0.6405728668712  0.8144788712003  0.4729192829232 1.0
C      1  0.3731841284623  0.4284926322504  0.1634277679809 1.0
C      1  0.5635494269161  0.8733178942122  0.4724308534022 1.0
C      1  0.5579745411823  0.2710889513683  0.5933142920819 1.0
C      1  0.2670207415222  0.6750303615129  0.5683265241206 1.0
C      1  0.5063008096554  0.5004738833257  0.8891265990419 1.0
C      1  0.8020595301458  0.6177174995499  0.3247190312646 1.0
C      1  0.7672810220796  0.6486282024519  0.2289743601324 1.0
C      1  0.5237354659588  0.4516272917418  0.3844027432479 1.0
C      1  0.7903870334617  0.5488270121057  0.7352975865369 1.0
C      1  0.6195728537886  0.6182656120872  0.1699776836479 1.0
C      1  0.2723340279672  0.5222919829668  0.6636392131260 1.0
C      1  0.4681412390312  0.8824453764799  0.4600592576224 1.0
C      1  0.1713597178575  0.4661218487737  0.3093469858563 1.0
C      1  0.4524012482369  0.6669101787592  0.8592844339040 1.0
C      1  0.2502233648328  0.3113571151223  0.6895519711941 1.0
C      1  0.8401453519960  0.3912294801890  0.4526321954026 1.0
C      1  0.3347275507893  0.8339913438183  0.3535512583845 1.0
C      1  0.2334784873872  0.6132744888333  0.6518929240379 1.0
C      1  0.0559729664855  0.6698017370175  0.3264365725393 1.0
C      1  0.7044399906994  0.1496761030849  0.6263092494964 1.0
C      1  0.5436623945018  0.3144881544565  0.7588602434890 1.0
C      1  0.6608479945896  0.0960654583728  0.4952872617366 1.0
C      1  0.4034028887941  0.8351201330058  0.1726509058739 1.0
C      1  0.1568673205256  0.4664541446471  0.4831454459496 1.0
C      1  0.7186312480182  0.6500594043596  0.3801229325361 1.0
C      1  0.4483905963762  0.2633710022006  0.3511535216167 1.0
C      1  0.4294728167885  0.4491590771151  0.3495977197970 1.0
C      1  0.8129843800563  0.3577788406237  0.6395606943115 1.0
C      1  0.5276139843183  0.6090260523030  0.1831756258775 1.0
C      1  0.1720939855841  0.5620280493603  0.4859073867793 1.0
C      1  0.3082179423979  0.5864991509714  0.1858166346507 1.0
C      1  0.7195379512263  0.8285562871410  0.5177093347024 1.0
C      1  0.8448618871864  0.4598471522733  0.5172936143703 1.0
C      1  0.4545796242108  0.3152126117393  0.2171571072229 1.0
C      1  0.6707427482836  0.4678770624844  0.3914455701496 1.0
C      1  0.4649264664024  0.0921047986925  0.6594401956472 1.0
C      1  0.6882294593372  0.6479899508908  0.4710579127185 1.0
C      1  0.7588309060143  0.7920196021694  0.5843461961159 1.0
C      1  0.6129453926026  0.2982734050131  0.5274109505837 1.0
C      1  0.6460068182448  0.6650224680030  0.3197987402702 1.0
C      1  0.5492130998071  0.5183552143340  0.5482870261317 1.0
C      1  0.1979467652886  0.3901530836370  0.6551536895782 1.0
C      1  0.3737378187877  0.2591089041282  0.4144491983562 1.0
C      1  0.7951641627991  0.2265988289655  0.5170659022275 1.0
C      1  0.7131701613863  0.7289107369711  0.6424797201335 1.0
C      1  0.7947716930913  0.5198264791713  0.2764741294186 1.0
C      1  0.3754551504136  0.8733961420167  0.4329207358681 1.0
C      1  0.7513876958316  0.2210456916023  0.6645473334464 1.0
C      1  0.4605840893335  0.3422805305447  0.7207891680341 1.0
C      1  0.6883369449153  0.2982015862492  0.2163020055080 1.0
C      1  0.2273496616374  0.4461620080110  0.2295738069223 1.0
C      1  0.6192259384823  0.7230031223907  0.6033524810834 1.0
C      1  0.8120521798826  0.3709327233137  0.3675468759581 1.0
C      1  0.6363713495034  0.4120224052629  0.3136088933063 1.0
C      1  0.5021362279915  0.5558298226177  0.6166029661980 1.0
C      1  0.4162607081995  0.3040679084474  0.6518126488353 1.0
C      1  0.2875774474633  0.3244042463470  0.7811554017270 1.0
C      1  0.8458056134723  0.4409226729772  0.6109511758960 1.0
C      1  0.4982345159881  0.5115284588693  0.4629958657552 1.0
C      1  0.5689772690509  0.6014364710283  0.3375567311824 1.0
C      1  0.3913412764239  0.6405848801702  0.7071416914199 1.0
C      1  0.4862419034547  0.5346564947060  0.1459090506305 1.0
C      1  0.6389908002830  0.5850196986070  0.8216147370685 1.0
C      1  0.8133512676663  0.5535685321116  0.5019147398144 1.0
C      1  0.2834344032300  0.4175063191583  0.7918741709117 1.0
C      1  0.8327678317553  0.5094316397379  0.6758970859777 1.0
C      1  0.2614136948545  0.7081446569059  0.6606708435360 1.0
C      1  0.5975809225214  0.5033419328137  0.3387566750526 1.0
C      1  0.5339117518175  0.4510898819949  0.1420003678137 1.0
C      1  0.4414539614959  0.4263795460100  0.8613502343469 1.0
C      1  0.3633480882322  0.5549020356922  0.8573641010783 1.0
C      1  0.2204831310137  0.3410690013215  0.4129516578981 1.0
C      1  0.1915738055700  0.6227675125424  0.4136031850987 1.0
C      1  0.6899282226313  0.3371637188182  0.4797714558361 1.0
C      1  0.3648978562572  0.2711400059395  0.8088871491365 1.0
C      1  0.5051877996676  0.8714994334538  0.5454220210792 1.0
C      1  0.4201892902687  0.6864578677600  0.4834094710658 1.0
C      1  0.3252987147815  0.3319391753422  0.2841430992419 1.0
C      1  0.6899291518060  0.2802586895626  0.6940895946390 1.0
C      1  0.3616024496922  0.7566909197476  0.2101795036777 1.0
C      1  0.2625270670595  0.7732454901830  0.3622602466382 1.0
C      1  0.5649260638568  0.2120012179021  0.2776361400459 1.0
C      1  0.3943027122212  0.6348927084672  0.3135150076089 1.0
C      1  0.6541681105202  0.4290211894766  0.8554013924628 1.0
C      1  0.5184153244509  0.6806775771070  0.4728925836891 1.0
C      1  0.7593086017898  0.5596249679081  0.1974441672408 1.0
END
