TITL C-38145-5306-4 -0.451 3375.00 -65.12153880 0 0 9 (C1) n - 1
REM
REM Run started: at 2020.11.20 05:05:12 in /rds/project/t2_vol4/rds-t2-cs072/BORA/CARBON/AIRSS/Generating-Clusters/Str-Search/Higher-Symm
REM VASP from code version vasp.5.4.4.18Apr17-6-g9f103f2a35 (build Oct 11 2019 16:45:47) gamma-only
REM
REM
REM
REM
REM ./C.cell (e5ae0387ce4d49c7c0135a1433873289)
REM AIRSS Version 0.9.1 bugfix July 2018 build 013d7b7c2542+ Fri, 06 Jul 2018 19:26:36 +0100
REM compiler GCC version 4.8.5 20150623 (Red Hat 4.8.5-39)
REM options -cpp -mtune=generic -march=x86-64 -g -O0
REM seed -889441979 721021508 -1784270778 -502949688 260083509 1464776937 -15779567 -346146511 -523164838 887911889 352891367 -805995056
REM
REM C.POTCAR (d86ddea03c3ceb6dc662c8ad6801f873)
REM 
CELL 1.54180   15.00000   15.00000   15.00000   90.00000   90.00000   90.00000
LATT -1
SFAC C  
C      1  0.5163777942552  0.6212081087696  0.4159075408698 1.0
C      1  0.5218486445729  0.5548672584900  0.5466223025168 1.0
C      1  0.5101097214438  0.4123373308375  0.5786324458568 1.0
C      1  0.5002315640255  0.4715383310680  0.4067823018934 1.0
C      1  0.4968479090222  0.5500385214840  0.3683280513759 1.0
C      1  0.4833030605221  0.5027619766577  0.6164941494309 1.0
C      1  0.5294944876661  0.3287701411582  0.5973008011991 1.0
C      1  0.5208681380802  0.6354342816096  0.5010306665532 1.0
C      1  0.5165526804120  0.4668107499253  0.4975081403041 1.0
END
