TITL C-39728-6214-4 -6.387 3375.00 -1161.62432024 0 0 142 (C1) n - 1
REM
REM Run started: at 2020.12.17 09:50:12 in /rds/project/t2_vol4/rds-t2-cs072/BORA/CARBON/AIRSS/Generating-Clusters/Str-Search/Higher-Symm/C100-200
REM VASP from code version vasp.5.4.4.18Apr17-6-g9f103f2a35 (build Oct 11 2019 16:45:47) gamma-only
REM
REM
REM
REM
REM ./C.cell (533062f00bc710175b3da973d35f2034)
REM AIRSS Version 0.9.1 bugfix July 2018 build 013d7b7c2542+ Fri, 06 Jul 2018 19:26:36 +0100
REM compiler GCC version 4.8.5 20150623 (Red Hat 4.8.5-39)
REM options -cpp -mtune=generic -march=x86-64 -g -O0
REM seed 639157214 -1821118325 1904850760 -485701774 176422940 -135820246 -162380490 1564345993 537002574 850917344 683494466 2113444176
REM
REM C.POTCAR (d86ddea03c3ceb6dc662c8ad6801f873)
REM 
CELL 1.54180   15.00000   15.00000   15.00000   90.00000   90.00000   90.00000
LATT -1
SFAC C  
C      1  0.4476462252055  0.7168601676476  0.4263592987909 1.0
C      1  0.6160018142752  0.5323048126326  0.5511005774306 1.0
C      1  0.5741615992892  0.3766590441599  0.5371326212880 1.0
C      1  0.4118743119863  0.3937848284944  0.4957259130372 1.0
C      1  0.3620861787076  0.5162644869026  0.4322936326894 1.0
C      1  0.6735222880804  0.4438434656735  0.2410489561320 1.0
C      1  0.5568546251848  0.3606712672553  0.1782815364509 1.0
C      1  0.3775431048142  0.3761094803346  0.1789431264798 1.0
C      1  0.4101956296688  0.6371493099302  0.1818330666004 1.0
C      1  0.5845843312653  0.6608015922012  0.2357157123287 1.0
C      1  0.3773433144064  0.4933579086519  0.2750746884364 1.0
C      1  0.4607392968351  0.6213247968092  0.3129351621685 1.0
C      1  0.6396254503840  0.5341318401746  0.2742176844605 1.0
C      1  0.6667258117185  0.3694580885638  0.2941610767977 1.0
C      1  0.5899747219109  0.3155148419914  0.2593551384620 1.0
C      1  0.7390257124784  0.7251708310318  0.4163526249158 1.0
C      1  0.8129050686188  0.3522393771170  0.4902175221335 1.0
C      1  0.4839993482772  0.1594857558124  0.4337970052087 1.0
C      1  0.1798488739735  0.4408891482569  0.3338673680894 1.0
C      1  0.3061350159522  0.7884336794275  0.3393677884555 1.0
C      1  0.4681335828835  0.2042702346979  0.3397287232577 1.0
C      1  0.2290429289305  0.4526029930054  0.2489996484318 1.0
C      1  0.3430764269755  0.7635226653704  0.2527582717083 1.0
C      1  0.7367642910365  0.6765278014463  0.3316508295655 1.0
C      1  0.7568824577657  0.3126272046563  0.4233390248342 1.0
C      1  0.6158648580315  0.4342748178016  0.1615095525256 1.0
C      1  0.4646239719251  0.3731078045560  0.1550299462487 1.0
C      1  0.4193346178905  0.5358608444537  0.1903615664403 1.0
C      1  0.4864704218093  0.6898321593253  0.2386265811831 1.0
C      1  0.6101301314541  0.5821897042312  0.1921363167366 1.0
C      1  0.7368774596205  0.6143981754714  0.6748334603764 1.0
C      1  0.6553473476697  0.2973876019100  0.7287920250737 1.0
C      1  0.3576425179470  0.2788984343377  0.6882560894067 1.0
C      1  0.2208067556221  0.5780338931464  0.6145232792211 1.0
C      1  0.4671445411032  0.7719591105029  0.6223915163036 1.0
C      1  0.7576827984209  0.2321828130543  0.4739579231822 1.0
C      1  0.3958875373427  0.2344142318032  0.3978978719363 1.0
C      1  0.2328130924096  0.5311509122882  0.3059492959260 1.0
C      1  0.4356588111086  0.7787661673990  0.2714830755190 1.0
C      1  0.8085538322213  0.6301513487908  0.3744948447938 1.0
C      1  0.5258664724650  0.4295777330378  0.7519076644414 1.0
C      1  0.3536915604970  0.4247989746735  0.7513533383474 1.0
C      1  0.3706083663765  0.5819341011584  0.8011943327434 1.0
C      1  0.5152858378145  0.6407760936902  0.8132809130585 1.0
C      1  0.6411735653958  0.5438459664352  0.8194627172595 1.0
C      1  0.2101737030386  0.2777810868785  0.5142366967913 1.0
C      1  0.2365237722875  0.7504377474289  0.3967217744746 1.0
C      1  0.6078717784135  0.8946659766735  0.4808080147638 1.0
C      1  0.8893217996742  0.5123830814940  0.5983685892649 1.0
C      1  0.6121574852930  0.1812561935142  0.5532454179216 1.0
C      1  0.3577285069489  0.6342445557242  0.3265582578586 1.0
C      1  0.6089552974953  0.6294205034419  0.4166095597886 1.0
C      1  0.7149182860792  0.4675233864334  0.4458694488166 1.0
C      1  0.5800249236623  0.2657358500939  0.4109972274947 1.0
C      1  0.3121358371446  0.3606780971583  0.3522113747018 1.0
C      1  0.6000628926807  0.7948257796206  0.5143674647863 1.0
C      1  0.8019050234090  0.4654928303040  0.6084348765475 1.0
C      1  0.5684403998255  0.1765162759882  0.6360120839574 1.0
C      1  0.2051546254732  0.3612699277797  0.4815482637783 1.0
C      1  0.2856128468653  0.7118506426138  0.4762393139575 1.0
C      1  0.5571965079272  0.7641025647228  0.5979141864306 1.0
C      1  0.7396421093666  0.5241469290707  0.6665157705536 1.0
C      1  0.5924364303367  0.2311350064813  0.7170850283936 1.0
C      1  0.3083353513562  0.3639069679382  0.6870320996012 1.0
C      1  0.2362228865453  0.6654597878589  0.6463370509082 1.0
C      1  0.3246084665404  0.7460406848445  0.5591704346482 1.0
C      1  0.6858312209065  0.6905888428959  0.5624443731153 1.0
C      1  0.7586865544006  0.3890679268730  0.6610351527031 1.0
C      1  0.4742091622653  0.1801933102335  0.6610303393751 1.0
C      1  0.2347699608566  0.4393844976253  0.5371533561102 1.0
C      1  0.1943565374987  0.5362932648988  0.5318824599635 1.0
C      1  0.4041932505688  0.7957859174716  0.5524490431656 1.0
C      1  0.7672144213397  0.6697350123115  0.5961170316910 1.0
C      1  0.7378657486127  0.3003084139816  0.6751359689211 1.0
C      1  0.3857682616219  0.2052728503409  0.6313821764197 1.0
C      1  0.6485161517066  0.5421078211730  0.4666601656130 1.0
C      1  0.5955633074966  0.3622974102829  0.4382204533293 1.0
C      1  0.3808130204201  0.3280695892653  0.4155103381283 1.0
C      1  0.3247898948867  0.5448768965093  0.3407885589942 1.0
C      1  0.5025346976900  0.6324184268388  0.4047963155765 1.0
C      1  0.7694507459587  0.2387866753686  0.6085678917406 1.0
C      1  0.3445129077231  0.1826056257615  0.5477602685994 1.0
C      1  0.1750764205471  0.5804806838812  0.4487420092296 1.0
C      1  0.4471787262715  0.8121374712539  0.4606607945234 1.0
C      1  0.8418800140995  0.6598554364177  0.5348217103318 1.0
C      1  0.5649536925830  0.1930308599759  0.4693685092394 1.0
C      1  0.2277328592113  0.3751597789004  0.3866295514530 1.0
C      1  0.3571369229766  0.6893070676781  0.4117879797013 1.0
C      1  0.6556242707787  0.7142942330019  0.4724065153480 1.0
C      1  0.7773342829093  0.4384163713693  0.5112260842827 1.0
C      1  0.6417451612568  0.4545343247554  0.8435284659379 1.0
C      1  0.4381741293847  0.3848152528414  0.7716489311897 1.0
C      1  0.3225291012617  0.5155682133733  0.7463389682728 1.0
C      1  0.4347461526352  0.6568354758959  0.7702339344450 1.0
C      1  0.6108851517595  0.6288012248245  0.7864848048348 1.0
C      1  0.6089589051095  0.6836659577901  0.6253414614841 1.0
C      1  0.6795517127656  0.4430919726846  0.6816082224184 1.0
C      1  0.4977922144746  0.2319822457217  0.7379081246041 1.0
C      1  0.2574695518088  0.4244916740149  0.6344635015857 1.0
C      1  0.3317371084438  0.6821358391724  0.6366529052269 1.0
C      1  0.5336714221938  0.8535257362070  0.4621498075480 1.0
C      1  0.8942924944145  0.5853964060025  0.5592962886453 1.0
C      1  0.7054897916493  0.1963099868674  0.5466070111593 1.0
C      1  0.2595871286321  0.2130653246901  0.5336512023340 1.0
C      1  0.2007090702641  0.6748435522051  0.4412759843248 1.0
C      1  0.8270127932266  0.6921724481170  0.4473674472227 1.0
C      1  0.8274699983120  0.2677406016336  0.5379370787718 1.0
C      1  0.3952869964288  0.1666162271780  0.4663828656996 1.0
C      1  0.1588105596363  0.5313879353721  0.3657267015636 1.0
C      1  0.4064004178639  0.8009092082797  0.3673893755909 1.0
C      1  0.3334469691818  0.6710842774167  0.2275711235278 1.0
C      1  0.6474116546027  0.6325798386219  0.3187881629011 1.0
C      1  0.6886784631408  0.3791230143793  0.3936234139830 1.0
C      1  0.5464640039892  0.2590701121833  0.3204195756229 1.0
C      1  0.3245797773581  0.4064659976314  0.2596739472173 1.0
C      1  0.6538260348271  0.6543872606401  0.7096631849168 1.0
C      1  0.6282168977742  0.3934875235962  0.7573432972128 1.0
C      1  0.4308073875384  0.2935081730432  0.7521310251900 1.0
C      1  0.2611855487166  0.5129306343291  0.6732171669672 1.0
C      1  0.4194498171059  0.7032104002141  0.6831360786903 1.0
C      1  0.3309420954013  0.4547390139670  0.5018940638461 1.0
C      1  0.4102692170897  0.6166107602230  0.6242649778584 1.0
C      1  0.5573948938912  0.5993587491217  0.5932228571753 1.0
C      1  0.6079786414974  0.4472993652527  0.6024005905099 1.0
C      1  0.4866804452690  0.3841714170748  0.5663519478858 1.0
C      1  0.5459847105765  0.5726269324167  0.9655302461126 1.0
C      1  0.5510486547363  0.4938669605088  0.8290663063081 1.0
C      1  0.4115924913132  0.4549366023379  0.1236880577909 1.0
C      1  0.5714018367235  0.5443600869727  0.0374953767472 1.0
C      1  0.5355018022598  0.4338038967188  0.3849168697317 1.0
C      1  0.3874374438728  0.4733774317690  0.0330871300351 1.0
C      1  0.4032720052702  0.5476470043903  0.8822846322403 1.0
C      1  0.5998595085893  0.5212268933588  0.1213854868910 1.0
C      1  0.4572293696710  0.4624283628851  0.4352969937416 1.0
C      1  0.4518255897251  0.5601556530069  0.4618400073933 1.0
C      1  0.4712979236281  0.5267493304628  0.2770366327593 1.0
C      1  0.4678219342052  0.5953242053013  0.5507304766363 1.0
C      1  0.5123598822718  0.4513898208924  0.6459225422866 1.0
C      1  0.4830000931183  0.5465525591265  0.6367444247748 1.0
C      1  0.5008674394346  0.5667449655969  0.8812484812322 1.0
C      1  0.5537341341958  0.4900687774369  0.3137797393361 1.0
C      1  0.3724234000624  0.4996720008117  0.9564437077478 1.0
END
