TITL C-39728-6214-3 -8.629 3375.00 -1458.18003045 0 0 182 (C1) n - 1
REM
REM Run started: at 2020.12.17 07:59:00 in /rds/project/t2_vol4/rds-t2-cs072/BORA/CARBON/AIRSS/Generating-Clusters/Str-Search/Higher-Symm/C100-200
REM VASP from code version vasp.5.4.4.18Apr17-6-g9f103f2a35 (build Oct 11 2019 16:45:47) gamma-only
REM
REM
REM
REM
REM ./C.cell (533062f00bc710175b3da973d35f2034)
REM AIRSS Version 0.9.1 bugfix July 2018 build 013d7b7c2542+ Fri, 06 Jul 2018 19:26:36 +0100
REM compiler GCC version 4.8.5 20150623 (Red Hat 4.8.5-39)
REM options -cpp -mtune=generic -march=x86-64 -g -O0
REM seed -1950933545 -1444918963 83804398 -1694641656 -486735693 1047320761 -248908567 2075037465 -326791264 1055646586 -206938724 1557037967
REM
REM C.POTCAR (d86ddea03c3ceb6dc662c8ad6801f873)
REM 
CELL 1.54180   15.00000   15.00000   15.00000   90.00000   90.00000   90.00000
LATT -1
SFAC C  
C      1  0.7187014318952  0.6437795635200  0.2144744762461 1.0
C      1  0.7184404772920  0.8147866442531  0.4332636729442 1.0
C      1  0.7071577148723  0.7483557230184  0.7020779141180 1.0
C      1  0.6999899547790  0.4966716968197  0.8141904107106 1.0
C      1  0.7127842463980  0.2499945309439  0.6940227076970 1.0
C      1  0.7090332291923  0.1902048647626  0.4227796816108 1.0
C      1  0.7082446730454  0.3658409337404  0.2093228499762 1.0
C      1  0.4834611719598  0.6243756162004  0.0852814888159 1.0
C      1  0.4837204517312  0.9034973685023  0.3358452721916 1.0
C      1  0.4724059722452  0.8829384543023  0.6979052558216 1.0
C      1  0.4572212187545  0.5776286095311  0.9067920420490 1.0
C      1  0.4788604972696  0.2031368767831  0.8185101216398 1.0
C      1  0.4793615212759  0.0705140220263  0.4907752415876 1.0
C      1  0.4642342873887  0.2508033212106  0.1563501083562 1.0
C      1  0.1612805099427  0.4232033287996  0.7818175445735 1.0
C      1  0.2032416263348  0.2380154271659  0.5857916135844 1.0
C      1  0.1902568058318  0.2572004437922  0.3718214202536 1.0
C      1  0.1709175101211  0.4323449421918  0.2365444719786 1.0
C      1  0.1776966414744  0.6684383719767  0.2784447768736 1.0
C      1  0.1913657652956  0.7789012178990  0.5388508979196 1.0
C      1  0.1898351142248  0.6553580632621  0.7144058166390 1.0
C      1  0.6861355031194  0.3487905732850  0.8219463108136 1.0
C      1  0.6974122758819  0.1544585985607  0.5806428060436 1.0
C      1  0.6881043555188  0.2225190581465  0.2792000757114 1.0
C      1  0.6953742425249  0.4974136096316  0.1405743189816 1.0
C      1  0.7006574770261  0.7787081801409  0.2761027534593 1.0
C      1  0.6968679680948  0.8493128249410  0.5766917751245 1.0
C      1  0.6826153532454  0.6561982838262  0.8161170134870 1.0
C      1  0.6256649066536  0.8881073322387  0.5203707936713 1.0
C      1  0.6103377478929  0.7231973416728  0.8098079461526 1.0
C      1  0.6092499952143  0.3932624281679  0.8658899811091 1.0
C      1  0.6234595755448  0.1442440693304  0.6456128807464 1.0
C      1  0.6142483354034  0.1660473632185  0.3126995838038 1.0
C      1  0.6202010375529  0.4380882924184  0.1166703410982 1.0
C      1  0.6279261043986  0.7598773890664  0.2122216027343 1.0
C      1  0.8232701325074  0.5758468518851  0.5944922191243 1.0
C      1  0.8220818020137  0.4747245342493  0.6165022052468 1.0
C      1  0.8247796433221  0.3936397366958  0.5511685894301 1.0
C      1  0.8246490589806  0.3917708047114  0.4469458733841 1.0
C      1  0.8255004245051  0.4724716416044  0.3821028612768 1.0
C      1  0.8281959362410  0.5742160946937  0.4062244979948 1.0
C      1  0.8271811165714  0.6205657183599  0.5003518067324 1.0
C      1  0.4080772240544  0.7239075632229  0.6527099202123 1.0
C      1  0.4071328503223  0.4749281058977  0.7729653863252 1.0
C      1  0.4021551725078  0.2918454376100  0.6834484564256 1.0
C      1  0.4039502551868  0.2318651807445  0.4345071987908 1.0
C      1  0.4115958843390  0.3844365192383  0.2640431927897 1.0
C      1  0.4206543153933  0.6332579826031  0.2554483335728 1.0
C      1  0.4235930613485  0.7833731390155  0.4541754915416 1.0
C      1  0.8044813441005  0.6046001922647  0.2339800645570 1.0
C      1  0.8060246667730  0.7786182050229  0.4200996835491 1.0
C      1  0.7966658615463  0.7361160243289  0.6697814094159 1.0
C      1  0.7891424485119  0.5173973957567  0.7857236416613 1.0
C      1  0.7989681690496  0.2936511569774  0.6936497366562 1.0
C      1  0.7975215688377  0.2148999915076  0.4494993367151 1.0
C      1  0.7967041324679  0.3598527216066  0.2460622603818 1.0
C      1  0.7456345666376  0.2323713953345  0.6033680461347 1.0
C      1  0.7386948570726  0.2534005126678  0.3535552528710 1.0
C      1  0.7396977870035  0.4594248046378  0.2162035877039 1.0
C      1  0.7485862473271  0.6979656845082  0.2903872235771 1.0
C      1  0.7463877913640  0.7872860108842  0.5237573528236 1.0
C      1  0.7347040771620  0.6605106277966  0.7365805455531 1.0
C      1  0.7337986341768  0.4143193729319  0.7721650301110 1.0
C      1  0.6173983940200  0.4866197479335  0.8648353968218 1.0
C      1  0.6319239269694  0.2025993360859  0.7178408911152 1.0
C      1  0.6270681187893  0.1424862496272  0.4026018617378 1.0
C      1  0.6272233271907  0.3531667275045  0.1562309447081 1.0
C      1  0.6385220736297  0.6763590522157  0.1708400916690 1.0
C      1  0.6381604506146  0.8687486693344  0.4297209324880 1.0
C      1  0.6252427228240  0.7839249251311  0.7402023428445 1.0
C      1  0.5603242937653  0.8460649343862  0.3650276417301 1.0
C      1  0.5499576652100  0.8212376989780  0.6786384949732 1.0
C      1  0.5385881196063  0.5548676932485  0.8522937426490 1.0
C      1  0.5506728854409  0.2465429049616  0.7637324403100 1.0
C      1  0.5520710092107  0.1365862310143  0.4737508959741 1.0
C      1  0.5466764955851  0.2967048276385  0.1954948179749 1.0
C      1  0.5596692223624  0.6133349460226  0.1486707413392 1.0
C      1  0.6096014849156  0.5293468435263  0.1250845925071 1.0
C      1  0.6138375930489  0.8111471275777  0.2870191458287 1.0
C      1  0.6085488100209  0.8593951428964  0.6057091768174 1.0
C      1  0.5936234267320  0.6373165042577  0.8369328824550 1.0
C      1  0.5999677602830  0.3135255869199  0.8212980378296 1.0
C      1  0.6094642852473  0.1353723104913  0.5560139584382 1.0
C      1  0.6008195694667  0.2289991376261  0.2471225354726 1.0
C      1  0.5324393690504  0.5136016320529  0.6844045521399 1.0
C      1  0.5324943710295  0.3589851481943  0.6277464261967 1.0
C      1  0.5389868986369  0.3085736123863  0.4665911907125 1.0
C      1  0.5491301835587  0.4070346442088  0.3290853770313 1.0
C      1  0.5520439008158  0.5720190947448  0.3174121264052 1.0
C      1  0.5489835349265  0.6873602350336  0.4398904659268 1.0
C      1  0.5414917570875  0.6614347598727  0.6029219809521 1.0
C      1  0.4700307291999  0.4180160198322  0.5662688016603 1.0
C      1  0.4611265797284  0.3828245088165  0.4683390785398 1.0
C      1  0.4888162933023  0.4503191432364  0.3996901853212 1.0
C      1  0.4879245356871  0.5417484243042  0.3927743178487 1.0
C      1  0.4856859155259  0.6081869598359  0.4621937479522 1.0
C      1  0.4812740540697  0.5918401128284  0.5528469992622 1.0
C      1  0.4756942885960  0.5062430731563  0.5971165623761 1.0
C      1  0.2474533797718  0.8533179149728  0.5783576856664 1.0
C      1  0.2527825718657  0.6375487845951  0.7857151175928 1.0
C      1  0.2715231178183  0.3270459323418  0.8621275272720 1.0
C      1  0.2638575346957  0.1614066227440  0.5841722310769 1.0
C      1  0.2512077921371  0.2278649713893  0.2982521433379 1.0
C      1  0.2932710849639  0.4870829923431  0.1473878651251 1.0
C      1  0.2921706224691  0.7782798386868  0.2680963847734 1.0
C      1  0.3027082372221  0.5760362568512  0.8336431699472 1.0
C      1  0.3201050426172  0.2620829247094  0.8246855378136 1.0
C      1  0.3243116776771  0.1222812080774  0.5237731159109 1.0
C      1  0.3087618623836  0.2584877546336  0.2301440052018 1.0
C      1  0.3313977937085  0.5666734988869  0.1371461734309 1.0
C      1  0.3318486272521  0.8293912931371  0.3278490517169 1.0
C      1  0.3113995840606  0.8577338772836  0.6486869785264 1.0
C      1  0.3076943288066  0.4785804190792  0.8055170842352 1.0
C      1  0.3133328342560  0.2664049966595  0.7209032413250 1.0
C      1  0.3268513427923  0.1707608027069  0.4401290648931 1.0
C      1  0.3187446766057  0.3569314433738  0.2473603913003 1.0
C      1  0.3304154458452  0.6276429737794  0.2192922065369 1.0
C      1  0.3284647272973  0.8061562946904  0.4302493930866 1.0
C      1  0.3192023949277  0.7612449396537  0.6727560410187 1.0
C      1  0.2531855504059  0.8327377154460  0.4884668714453 1.0
C      1  0.2593807332953  0.7135305962814  0.7326579916613 1.0
C      1  0.2398600181450  0.4062606647863  0.8340812968497 1.0
C      1  0.2550347247560  0.2137710207623  0.6605763887512 1.0
C      1  0.2548141682432  0.1885980954948  0.3821264375559 1.0
C      1  0.2581888431287  0.4258138257489  0.2023076413449 1.0
C      1  0.2618721983609  0.6969462665165  0.2447076986159 1.0
C      1  0.5877584221562  0.4335799880841  0.6643907034934 1.0
C      1  0.5877525474276  0.3289608030336  0.5502199405315 1.0
C      1  0.5968875299498  0.3517474391688  0.3966507894175 1.0
C      1  0.6064989312890  0.4879104707251  0.3162722174223 1.0
C      1  0.6045885839459  0.6338549062646  0.3759912238240 1.0
C      1  0.6011703169916  0.6791899616717  0.5254361979841 1.0
C      1  0.5895013691376  0.5891895659113  0.6529577092443 1.0
C      1  0.6521038032661  0.3934448342807  0.5332333935788 1.0
C      1  0.6563012146793  0.4090253509943  0.4393547866682 1.0
C      1  0.6624923513124  0.4914423500182  0.3909182312193 1.0
C      1  0.6618617436930  0.5801424123191  0.4259385183478 1.0
C      1  0.6596653797407  0.6079006707299  0.5172420272387 1.0
C      1  0.6531969096838  0.5534014113123  0.5954283212471 1.0
C      1  0.6525382317016  0.4580058349881  0.6034596201189 1.0
C      1  0.1553150823082  0.6921663414211  0.5514503727190 1.0
C      1  0.1473320689860  0.6385031180418  0.6346814549370 1.0
C      1  0.1379057404041  0.4436254990240  0.7051387420606 1.0
C      1  0.1627710940969  0.3044730249636  0.5352676785575 1.0
C      1  0.1546096608025  0.3141375848988  0.4361485057701 1.0
C      1  0.1286874256763  0.4561741974281  0.3025826251024 1.0
C      1  0.1402915662683  0.6313963554465  0.3414213417133 1.0
C      1  0.8034617625302  0.4466242820180  0.2921038845699 1.0
C      1  0.8082185160859  0.6271432836161  0.3294840294001 1.0
C      1  0.8074936624362  0.7137645862173  0.4942164838077 1.0
C      1  0.7990879690192  0.6380245014690  0.6633637876067 1.0
C      1  0.7976022689409  0.4581525868810  0.7079989601140 1.0
C      1  0.8034852015092  0.3136226862226  0.5978042901973 1.0
C      1  0.8010320948036  0.3058875420290  0.4119199921778 1.0
C      1  0.4048270454390  0.8902997904822  0.3147956870579 1.0
C      1  0.3958218728855  0.8961532613198  0.6661526229496 1.0
C      1  0.3797520486037  0.5972529444418  0.8831610027859 1.0
C      1  0.4019373491390  0.2168448495309  0.8456500368394 1.0
C      1  0.4067983758020  0.0770975194482  0.5315927442431 1.0
C      1  0.3893457510012  0.2303496977618  0.1888281201111 1.0
C      1  0.4065366089135  0.5937221974073  0.0852811834333 1.0
C      1  0.3589717786656  0.5977842965505  0.3166607292705 1.0
C      1  0.3599551485425  0.7263229760687  0.4943255524969 1.0
C      1  0.3458765561983  0.7072452015674  0.5833738426086 1.0
C      1  0.3402146158458  0.4416235103925  0.7174885855783 1.0
C      1  0.3339376135929  0.3572997080632  0.6830912091588 1.0
C      1  0.3863119052029  0.3303301375381  0.4204851073235 1.0
C      1  0.3569734443411  0.3725773195660  0.3412863619175 1.0
C      1  0.1258291566867  0.4654581389373  0.6131223144122 1.0
C      1  0.1322951640892  0.3975539686710  0.5464810435889 1.0
C      1  0.1247516538314  0.4068922479895  0.4499100366552 1.0
C      1  0.1144139423182  0.4799159896835  0.3921060173749 1.0
C      1  0.1198756438179  0.5757356565020  0.4146951820292 1.0
C      1  0.1271008877771  0.6076017628608  0.5023855722250 1.0
C      1  0.1239342641128  0.5580562975138  0.5870204641938 1.0
C      1  0.4870196922410  0.5154302320555  0.7715559904982 1.0
C      1  0.4920567805492  0.2939361165425  0.6911696504279 1.0
C      1  0.4933874356253  0.2213179749557  0.4576527966361 1.0
C      1  0.4999288256838  0.3650005028433  0.2552982162274 1.0
C      1  0.5072566238370  0.6088256125209  0.2374699785800 1.0
C      1  0.5060969314615  0.7744795296759  0.4177642605491 1.0
C      1  0.4975617445784  0.7367743063155  0.6488925746565 1.0
END
