TITL C-39589-1783-19 -2.993 3375.00 -485.86694576 0 0 62 (C1) n - 1
REM
REM Run started: at 2020.12.01 02:17:31 in /rds/project/t2_vol4/rds-t2-cs072/BORA/CARBON/AIRSS/Generating-Clusters/Str-Search/Higher-Symm/C10-100
REM VASP from code version vasp.5.4.4.18Apr17-6-g9f103f2a35 (build Oct 11 2019 16:45:47) gamma-only
REM
REM
REM
REM
REM ./C.cell (f39ce9773e2efe3fa5bbdf770a4156b8)
REM AIRSS Version 0.9.1 bugfix July 2018 build 013d7b7c2542+ Fri, 06 Jul 2018 19:26:36 +0100
REM compiler GCC version 4.8.5 20150623 (Red Hat 4.8.5-39)
REM options -cpp -mtune=generic -march=x86-64 -g -O0
REM seed 416950899 -1604305141 2066543586 1602828349 -1879112004 -1535551422 -1953533060 -401891039 1299341843 -637819236 -1204882706 -186042078
REM
REM C.POTCAR (d86ddea03c3ceb6dc662c8ad6801f873)
REM 
CELL 1.54180   15.00000   15.00000   15.00000   90.00000   90.00000   90.00000
LATT -1
SFAC C  
C      1  0.4630923249505  0.3958669793825  0.6886606285247 1.0
C      1  0.6890334237551  0.4565199886350  0.4024751345244 1.0
C      1  0.3840724894025  0.7014170074071  0.4349135269743 1.0
C      1  0.5384956511995  0.5981157168461  0.6873530352835 1.0
C      1  0.5448957245562  0.3989440452679  0.3172457818940 1.0
C      1  0.4549853359642  0.5910637493286  0.3226251470369 1.0
C      1  0.3014800996486  0.5676866299325  0.3898219889193 1.0
C      1  0.3181451721426  0.4505568503666  0.6047960652141 1.0
C      1  0.6859686731592  0.5342844076883  0.6006121452362 1.0
C      1  0.5987321025367  0.3138649634314  0.4603182267416 1.0
C      1  0.6020987262735  0.6746098334014  0.5475334558873 1.0
C      1  0.4000308208549  0.3089863665029  0.5442537030560 1.0
C      1  0.4470116964661  0.3946961671775  0.3093961778765 1.0
C      1  0.6922858733455  0.4380577122048  0.5940541213988 1.0
C      1  0.4077213627078  0.6708380292982  0.5377857169861 1.0
C      1  0.5626793177801  0.6062020850477  0.3080598571268 1.0
C      1  0.5622177872890  0.4030054838896  0.6896711466137 1.0
C      1  0.4391859622308  0.5971693943875  0.6908597398155 1.0
C      1  0.3065070064473  0.5483896617965  0.6035898332277 1.0
C      1  0.3238574058774  0.4633199370291  0.4134245199319 1.0
C      1  0.6940879316089  0.5540653387148  0.4037057990683 1.0
C      1  0.5992094751721  0.3058546111743  0.5567612633632 1.0
C      1  0.5993945790630  0.6857989578117  0.4487358131028 1.0
C      1  0.4048066449668  0.3112606788794  0.4455475873297 1.0
C      1  0.7553424082835  0.5858540501054  0.5591196523224 1.0
C      1  0.5423929757579  0.7285024275292  0.5914598555982 1.0
C      1  0.5841865206977  0.5586724254258  0.7627025657839 1.0
C      1  0.2609348855620  0.4079811604026  0.5455958434831 1.0
C      1  0.2382242774938  0.5939689602961  0.4563285962588 1.0
C      1  0.7626894447402  0.4040763836476  0.4385762510828 1.0
C      1  0.4484947575352  0.2395388663138  0.5864842998740 1.0
C      1  0.4524126798865  0.7633305226254  0.4144528533461 1.0
C      1  0.5600207304603  0.2419596946915  0.4083759235521 1.0
C      1  0.4209115834134  0.4528021361454  0.7471073639207 1.0
C      1  0.4196416445255  0.5420480282438  0.2425887402917 1.0
C      1  0.5886645202165  0.4510324492850  0.2533011284513 1.0
C      1  0.7479092598529  0.5795466511051  0.4752903802214 1.0
C      1  0.5340050875242  0.7452868157641  0.4193943824262 1.0
C      1  0.5899627970018  0.5351028551001  0.2551578125929 1.0
C      1  0.2489914319648  0.4188440869081  0.4628216731008 1.0
C      1  0.2456967856042  0.5782184090581  0.5377098829268 1.0
C      1  0.7441622717677  0.4115285458210  0.5210631820505 1.0
C      1  0.4778441457204  0.2603732315569  0.4177871295646 1.0
C      1  0.4600337186252  0.7466075324248  0.5788843148665 1.0
C      1  0.5316979423839  0.2479461550954  0.5857509808689 1.0
C      1  0.4167547931770  0.4597629441221  0.2481603649472 1.0
C      1  0.4104368027078  0.5354871213204  0.7597202362454 1.0
C      1  0.5897236811819  0.4775920750878  0.7389950067882 1.0
C      1  0.5974522343285  0.4058082034528  0.4090833592250 1.0
C      1  0.3673067174371  0.6336667823226  0.3678663183138 1.0
C      1  0.4099210410932  0.3971131821353  0.6003079411986 1.0
C      1  0.6213336127461  0.3773652334177  0.6190279276620 1.0
C      1  0.3761681124947  0.6137744502045  0.6207463052382 1.0
C      1  0.6237269024601  0.6201243381839  0.3818086369960 1.0
C      1  0.5952491619293  0.5840496590919  0.5978265976425 1.0
C      1  0.3840383814967  0.3814732535854  0.3811330013819 1.0
C      1  0.5367659367633  0.4709074508575  0.4596081433671 1.0
C      1  0.4004442141514  0.5041838208139  0.4707153931663 1.0
C      1  0.4573848838627  0.5895545705319  0.4956110032316 1.0
C      1  0.4638816057673  0.4528642358141  0.5322812422884 1.0
C      1  0.4727412837352  0.5365301534365  0.4088628739858 1.0
C      1  0.5284123782520  0.5314519424751  0.5413698206049 1.0
END
