TITL C-40473-6035-3 -10.559 3375.00 -1918.29542605 0 0 232 (C1) n - 1
REM
REM Run started: at 2020.11.28 04:06:30 in /rds/project/t2_vol4/rds-t2-cs072/BORA/CARBON/AIRSS/Generating-Clusters/Str-Search/Higher-Symm
REM VASP from code version vasp.5.4.4.18Apr17-6-g9f103f2a35 (build Oct 11 2019 16:45:47) gamma-only
REM
REM
REM
REM
REM ./C.cell (e5ae0387ce4d49c7c0135a1433873289)
REM AIRSS Version 0.9.1 bugfix July 2018 build 013d7b7c2542+ Fri, 06 Jul 2018 19:26:36 +0100
REM compiler GCC version 4.8.5 20150623 (Red Hat 4.8.5-39)
REM options -cpp -mtune=generic -march=x86-64 -g -O0
REM seed 1845050639 -653908040 924885332 1965022266 -1027434380 -314428952 -1544955118 725264699 -465386990 -1816895404 -1119983350 1363245320
REM
REM C.POTCAR (d86ddea03c3ceb6dc662c8ad6801f873)
REM 
CELL 1.54180   15.00000   15.00000   15.00000   90.00000   90.00000   90.00000
LATT -1
SFAC C  
C      1  0.5408891180051  0.8960442068550  0.4668677546498 1.0
C      1  0.2175589811775  0.7759065796772  0.4701611861584 1.0
C      1  0.1072014195965  0.4340283887005  0.4725075754080 1.0
C      1  0.2955071343066  0.1833173339063  0.4688840848236 1.0
C      1  0.6462699256704  0.1483589638429  0.4803767062788 1.0
C      1  0.8596472386739  0.3646028730401  0.4695908647713 1.0
C      1  0.8366006371375  0.7119155477270  0.4742547141912 1.0
C      1  0.2909643306521  0.1816207634117  0.3696592909762 1.0
C      1  0.6219154247546  0.1468104245223  0.3879328829437 1.0
C      1  0.8540246198886  0.3615794842459  0.3710199060000 1.0
C      1  0.8348978558210  0.6883853362036  0.3796630930969 1.0
C      1  0.5589899363388  0.8763792451800  0.3735812083247 1.0
C      1  0.2385512957463  0.7805042853862  0.3750993939170 1.0
C      1  0.1257683948750  0.4565047458075  0.3815385948047 1.0
C      1  0.8145269938344  0.3698529031932  0.7552729277425 1.0
C      1  0.7978194896285  0.6616852573136  0.7480076139557 1.0
C      1  0.5506778550893  0.8003116935334  0.7204191893517 1.0
C      1  0.2815369930140  0.7393510424385  0.7389647363035 1.0
C      1  0.1603575182779  0.4801556883046  0.7647244826312 1.0
C      1  0.3084090852444  0.2277940181608  0.7521380300184 1.0
C      1  0.5971683966401  0.1752271132143  0.7586356891961 1.0
C      1  0.6234432123138  0.8819293031797  0.6203921778060 1.0
C      1  0.2782591894549  0.8280614570107  0.6207793105694 1.0
C      1  0.1172285026300  0.5291464597944  0.6185611331027 1.0
C      1  0.2308172790888  0.2155422217719  0.6236389975069 1.0
C      1  0.5604315678573  0.1121345754777  0.6245858551418 1.0
C      1  0.8405048406295  0.2940886018181  0.6273365427301 1.0
C      1  0.8793011587424  0.6390544641423  0.6243387636137 1.0
C      1  0.8187452247916  0.5738423763763  0.2564827272023 1.0
C      1  0.6455025455755  0.7905788905010  0.2595651116583 1.0
C      1  0.3549656801162  0.7977157229038  0.2526410492296 1.0
C      1  0.1755497641537  0.5675211126700  0.2619928041817 1.0
C      1  0.2478541950015  0.2813143405692  0.2305455497870 1.0
C      1  0.5090148114341  0.1681274612544  0.2615906417523 1.0
C      1  0.7606360120334  0.3022352992087  0.2350927856161 1.0
C      1  0.4143189975091  0.5685801315241  0.3537065096855 1.0
C      1  0.3915162200923  0.4796009304814  0.3869392625694 1.0
C      1  0.4417581582540  0.4063147634022  0.3444994267442 1.0
C      1  0.5268452492677  0.4004945769827  0.3870569317935 1.0
C      1  0.5920671772083  0.4673765254485  0.3549487559895 1.0
C      1  0.5796688607825  0.5655712940613  0.3649018579296 1.0
C      1  0.4950057644390  0.6103393408306  0.3929060900467 1.0
C      1  0.4489082438257  0.8595379042315  0.5979112127300 1.0
C      1  0.1887511278658  0.6824087341919  0.6062511465325 1.0
C      1  0.1414666723096  0.3515174772223  0.6326765188115 1.0
C      1  0.3946740145508  0.1681284405569  0.6049911938865 1.0
C      1  0.7198918718774  0.1806845670508  0.6393658559801 1.0
C      1  0.8600321521106  0.4652628539051  0.6072432075708 1.0
C      1  0.7531499133500  0.7630923436301  0.6060782139132 1.0
C      1  0.1651136529317  0.7038309282967  0.4998558925690 1.0
C      1  0.1628399518085  0.3592048378174  0.5320090253761 1.0
C      1  0.3762686915440  0.1451873495120  0.5007164392994 1.0
C      1  0.7086297044938  0.2098792840556  0.5411092306059 1.0
C      1  0.8820567771009  0.4510131641165  0.5009076900022 1.0
C      1  0.7777180547978  0.7792238345543  0.5016930938042 1.0
C      1  0.4507968628840  0.8932655535985  0.4941873359330 1.0
C      1  0.7109102932326  0.7827269076910  0.4080149378069 1.0
C      1  0.4044734368474  0.8483436768070  0.3999491096984 1.0
C      1  0.1703833487807  0.6395497570827  0.4071778990922 1.0
C      1  0.2154356659207  0.3209050895827  0.3635360081985 1.0
C      1  0.4435127422843  0.1556108587570  0.4081295043949 1.0
C      1  0.7276448333536  0.2645565657096  0.3674101122932 1.0
C      1  0.8475262096220  0.5159976983639  0.4065110769482 1.0
C      1  0.7827153647858  0.2364629720177  0.6829481613505 1.0
C      1  0.8752658226170  0.5515793689219  0.6664226131002 1.0
C      1  0.6924023727973  0.8259146958119  0.6628427634767 1.0
C      1  0.3650868870867  0.8477782257623  0.6619533464910 1.0
C      1  0.1464792873574  0.6054139245737  0.6639882513660 1.0
C      1  0.1836229353343  0.2823851974638  0.6791278757977 1.0
C      1  0.4760752638838  0.1359998354142  0.6644268623992 1.0
C      1  0.4118271685098  0.2684354720526  0.5742557717507 1.0
C      1  0.6370117032488  0.2827425564149  0.5569862937787 1.0
C      1  0.7594840611668  0.4639521619063  0.5808446756833 1.0
C      1  0.6932365686899  0.6806058186892  0.5834052065597 1.0
C      1  0.4802281267536  0.7639583424793  0.5702048892486 1.0
C      1  0.2816426472119  0.6447443507254  0.5809401897785 1.0
C      1  0.2437188669745  0.4234117103842  0.5390336606661 1.0
C      1  0.3228908429722  0.6421374700598  0.2614926931043 1.0
C      1  0.2884233602001  0.4510290045017  0.2592879862870 1.0
C      1  0.3985155931388  0.2973022751254  0.2555962793326 1.0
C      1  0.5862056187882  0.3055658227476  0.2631331490782 1.0
C      1  0.7085079653600  0.4450645720192  0.2605521569040 1.0
C      1  0.6754428448132  0.6287653603436  0.2729019788391 1.0
C      1  0.5017628330333  0.7194557595797  0.2597513757183 1.0
C      1  0.7679746573687  0.4309079766636  0.8143089624830 1.0
C      1  0.7233425023163  0.6628400731911  0.8104887705186 1.0
C      1  0.5082443190518  0.7604941433914  0.7995854004736 1.0
C      1  0.2933953057985  0.6717339619751  0.8090189859083 1.0
C      1  0.2287555308322  0.4455377521842  0.8241112202635 1.0
C      1  0.3775582214802  0.2608475754444  0.8105344989922 1.0
C      1  0.6153025132880  0.2495727979548  0.8177978234740 1.0
C      1  0.3930714172812  0.3376130542779  0.6375538926854 1.0
C      1  0.5749230444443  0.3020468758671  0.6314246526281 1.0
C      1  0.7009412406693  0.4233020716383  0.6452971487191 1.0
C      1  0.6902213630768  0.6061149579951  0.6462239776148 1.0
C      1  0.5358397334510  0.7233012057782  0.6420473020573 1.0
C      1  0.3578365409619  0.6581870766050  0.6398937533732 1.0
C      1  0.2451749362726  0.4512963719947  0.6376851578023 1.0
C      1  0.7115495213475  0.7242415615545  0.2681238448504 1.0
C      1  0.4487663940900  0.8095155047755  0.2574129686916 1.0
C      1  0.2196006060410  0.6519143875795  0.2631936248086 1.0
C      1  0.2178790673014  0.3733922388253  0.2569065187916 1.0
C      1  0.4181320763100  0.1948226855336  0.2621344573831 1.0
C      1  0.6772049290293  0.2557251779925  0.2649000567085 1.0
C      1  0.8047948290090  0.4818487982820  0.2634978408287 1.0
C      1  0.3834494381698  0.6729871149812  0.8418219389962 1.0
C      1  0.2881731975044  0.5168089961578  0.8518767075225 1.0
C      1  0.3556900569465  0.3468849622547  0.8461025057970 1.0
C      1  0.5324006831422  0.2923677102588  0.8435964384702 1.0
C      1  0.6858687107274  0.3917501185101  0.8470076528034 1.0
C      1  0.7022837111093  0.5747731181857  0.8431366478827 1.0
C      1  0.5664959639558  0.6952495616787  0.8351639619229 1.0
C      1  0.4984969626590  0.6170079191558  0.2218786495196 1.0
C      1  0.4100317347215  0.5674484949044  0.2540527071351 1.0
C      1  0.3858996874615  0.4747918482924  0.2160282928568 1.0
C      1  0.4496817576925  0.3980721313387  0.2476978865260 1.0
C      1  0.5462199392915  0.3972267218338  0.2162158770501 1.0
C      1  0.6039815055190  0.4759829461850  0.2530990584836 1.0
C      1  0.5834354327460  0.5795164660812  0.2639940940836 1.0
C      1  0.5006342540103  0.1684675528930  0.7499973180371 1.0
C      1  0.7705757848460  0.2859432403988  0.7648427760884 1.0
C      1  0.8315204499860  0.5702449233659  0.7486814983797 1.0
C      1  0.6476564257113  0.7899749949885  0.7369661009641 1.0
C      1  0.3610178423276  0.7964182318375  0.7406704047876 1.0
C      1  0.1723118238658  0.5731489700376  0.7539675168880 1.0
C      1  0.2348665559240  0.2869634755873  0.7620431289035 1.0
C      1  0.4639660458181  0.2616339581908  0.4100716600352 1.0
C      1  0.6661659989144  0.3366001111050  0.4053769024290 1.0
C      1  0.7368741781210  0.5166112566306  0.4169731678512 1.0
C      1  0.6591746115160  0.6925555276433  0.4255241743740 1.0
C      1  0.4380737023662  0.7527459023369  0.4152457291159 1.0
C      1  0.2704120814577  0.6128344764087  0.4210442161266 1.0
C      1  0.3004462368600  0.3627188371699  0.4002189380014 1.0
C      1  0.6865901672649  0.1858795634534  0.3314894665321 1.0
C      1  0.8547838978202  0.4467369530732  0.3371760552052 1.0
C      1  0.7716151984428  0.7432438684200  0.3390773857193 1.0
C      1  0.4757133738618  0.8656629240832  0.3293201754328 1.0
C      1  0.1931614915922  0.7072756335374  0.3346659024291 1.0
C      1  0.1523123520854  0.3833058345595  0.3267091192734 1.0
C      1  0.3740961457316  0.1572139258276  0.3370104372925 1.0
C      1  0.8050628790324  0.3004747838602  0.3184584934405 1.0
C      1  0.8533256102370  0.6032956339567  0.3437465196009 1.0
C      1  0.6393597479816  0.8348687783415  0.3452833761464 1.0
C      1  0.3177522000285  0.8209424799645  0.3398281944198 1.0
C      1  0.1395518805640  0.5499668376896  0.3485598611204 1.0
C      1  0.2376437825603  0.2379386559209  0.3152284003947 1.0
C      1  0.5326406141045  0.1344603707506  0.3500514631964 1.0
C      1  0.6538090385048  0.3621609655968  0.5027131945477 1.0
C      1  0.7127761048119  0.5263939272043  0.5147369726259 1.0
C      1  0.6188995765394  0.6851135079361  0.5147988941555 1.0
C      1  0.4291375642826  0.7093332437115  0.5041697944403 1.0
C      1  0.2950178503534  0.5762343095665  0.5119121619918 1.0
C      1  0.3259100415112  0.3885446341526  0.4974110333807 1.0
C      1  0.4785322699112  0.2959158931729  0.5029980889034 1.0
C      1  0.5832799241257  0.4340387597676  0.5148753892396 1.0
C      1  0.6114955014911  0.5197678008769  0.5192603223558 1.0
C      1  0.5583746264297  0.6048351768962  0.5358898628625 1.0
C      1  0.4698786770613  0.6151773990397  0.4889498987041 1.0
C      1  0.4009731167728  0.5494336719406  0.5285223777624 1.0
C      1  0.4067695306969  0.4551452986997  0.4867464234164 1.0
C      1  0.4958115922287  0.3993525737158  0.4864144242627 1.0
C      1  0.1250757716105  0.5169155802256  0.5238243309156 1.0
C      1  0.2489501361791  0.2500755571667  0.5347547695872 1.0
C      1  0.5698464569796  0.1516205667214  0.5411792555960 1.0
C      1  0.8043040539054  0.3061710390442  0.5371920663843 1.0
C      1  0.8421896292358  0.6401431576811  0.5390193956790 1.0
C      1  0.6031284839208  0.8587336515896  0.5313790524656 1.0
C      1  0.2877723585819  0.8012050800299  0.5318548211100 1.0
C      1  0.5648138503909  0.3129072863557  0.3648217928633 1.0
C      1  0.6872691561902  0.4346137431138  0.3656140983155 1.0
C      1  0.6736309017061  0.6069530571159  0.3762748065382 1.0
C      1  0.4947689220669  0.7048267567475  0.3598492150479 1.0
C      1  0.3357823583018  0.6291587307235  0.3596895716795 1.0
C      1  0.3015416504966  0.4541281742832  0.3573121195505 1.0
C      1  0.3911773117969  0.3204367208698  0.3594640322125 1.0
C      1  0.6855176921738  0.3992939114254  0.1076638753762 1.0
C      1  0.6914243156903  0.5754462835807  0.1274349215542 1.0
C      1  0.5733061249137  0.7067389446534  0.1202632392787 1.0
C      1  0.3726632228646  0.6728086952077  0.1202410184651 1.0
C      1  0.2738077082840  0.5241216043478  0.1177767311548 1.0
C      1  0.3636050027546  0.3391225558603  0.1075143518301 1.0
C      1  0.5303863864861  0.2760724720467  0.1169754216045 1.0
C      1  0.5469409280350  0.2483892081253  0.5527452030578 1.0
C      1  0.7319953015346  0.3744697160534  0.5605689428110 1.0
C      1  0.7492732601085  0.6043581508844  0.5607515803999 1.0
C      1  0.5747118093486  0.7635786766334  0.5514705651280 1.0
C      1  0.3450455023268  0.7157229272027  0.5562680293099 1.0
C      1  0.2209486049393  0.5124768117989  0.5146358062727 1.0
C      1  0.3296353265991  0.3142163750817  0.5595220849419 1.0
C      1  0.2453941386317  0.5955499843725  0.8145841170765 1.0
C      1  0.2628546525381  0.3594720039962  0.8201122303891 1.0
C      1  0.4642435025152  0.2345977578895  0.8092841074947 1.0
C      1  0.6926718421644  0.2990032339053  0.8200065716279 1.0
C      1  0.7756635035416  0.5213532841969  0.8113593361986 1.0
C      1  0.6541062287165  0.7214766498597  0.8035135937305 1.0
C      1  0.4191981803946  0.7537057411535  0.8052139264248 1.0
C      1  0.6118948356397  0.5400506964054  0.8630526304491 1.0
C      1  0.5371938749767  0.6064913020368  0.8614564988775 1.0
C      1  0.4369020391834  0.5937800096914  0.8635748131209 1.0
C      1  0.3842975482509  0.5090148325132  0.8688156332134 1.0
C      1  0.4216032596390  0.4157850211591  0.8663099087966 1.0
C      1  0.5183844071460  0.3863668877619  0.8649079055346 1.0
C      1  0.6033541303026  0.4405084856963  0.8650801647125 1.0
C      1  0.3455222924197  0.7159277773732  0.1956570711133 1.0
C      1  0.2329269575004  0.5148440563088  0.1981979781053 1.0
C      1  0.3293332107326  0.2973651273646  0.1795491023995 1.0
C      1  0.5460370586952  0.2383176658584  0.1986036646896 1.0
C      1  0.7278645910568  0.3776055567280  0.1830293744729 1.0
C      1  0.7396507713339  0.6007363205737  0.2000769464037 1.0
C      1  0.5791260485023  0.7501087941393  0.1992472348926 1.0
C      1  0.6082796350164  0.4449606122634  0.0882135928573 1.0
C      1  0.6074324888699  0.5463863699577  0.0998091488446 1.0
C      1  0.5242371009196  0.6152503381106  0.1190964442485 1.0
C      1  0.4210192074626  0.5982741144575  0.0963265209948 1.0
C      1  0.3759774218678  0.5000675751127  0.1135888581061 1.0
C      1  0.4233851157471  0.4049225250799  0.0893540620249 1.0
C      1  0.5283677880947  0.3811760436895  0.1125738155933 1.0
C      1  0.5468845049802  0.3859016537877  0.6640639644171 1.0
C      1  0.6185209059917  0.4554939785720  0.6717870805198 1.0
C      1  0.6138480205747  0.5573105188183  0.6701730312419 1.0
C      1  0.5312739775468  0.6159720663027  0.6365997741374 1.0
C      1  0.4282814717924  0.5807953731208  0.6330296883211 1.0
C      1  0.3153499468204  0.4808909222213  0.6788107246840 1.0
C      1  0.4495096502266  0.4048379674906  0.6664228650510 1.0
C      1  0.6398891001893  0.1411300703449  0.6803866017142 1.0
C      1  0.8613275410085  0.3765661351522  0.6684300390930 1.0
C      1  0.8266469738812  0.7102350665311  0.6695084858213 1.0
C      1  0.5347292578709  0.8798961069887  0.6592594373838 1.0
C      1  0.2224495964889  0.7631394281356  0.6660832543601 1.0
C      1  0.1474243326867  0.4455963962429  0.6716590137470 1.0
C      1  0.3081623494987  0.1816578623867  0.6649998860657 1.0
C      1  0.4030967203796  0.4925954602463  0.6759722066230 1.0
END
