TITL C-400154-9216-9 -4.137 3375.00 -693.16540909 0 0 86 (C1) n - 1
REM
REM Run started: at 2020.11.21 07:39:47 in /rds/project/t2_vol4/rds-t2-cs072/BORA/CARBON/AIRSS/Generating-Clusters/Str-Search/Higher-Symm
REM VASP from code version vasp.5.4.4.18Apr17-6-g9f103f2a35 (build Oct 11 2019 16:45:47) gamma-only
REM
REM
REM
REM
REM ./C.cell (e5ae0387ce4d49c7c0135a1433873289)
REM AIRSS Version 0.9.1 bugfix July 2018 build 013d7b7c2542+ Fri, 06 Jul 2018 19:26:36 +0100
REM compiler GCC version 4.8.5 20150623 (Red Hat 4.8.5-39)
REM options -cpp -mtune=generic -march=x86-64 -g -O0
REM seed -462210568 825632138 1643011237 1128498464 2065406150 717170769 -1273773049 1841186458 -1654393437 1395983558 1696727920 2145277000
REM
REM C.POTCAR (d86ddea03c3ceb6dc662c8ad6801f873)
REM 
CELL 1.54180   15.00000   15.00000   15.00000   90.00000   90.00000   90.00000
LATT -1
SFAC C  
C      1  0.6267801816102  0.6992126685637  0.6513952459676 1.0
C      1  0.3455089346897  0.6316375602418  0.6098499223668 1.0
C      1  0.5992401747258  0.2572437083652  0.3711108533881 1.0
C      1  0.5961444197139  0.3935696294116  0.7138837614701 1.0
C      1  0.2893557043338  0.7034551138747  0.4283155408509 1.0
C      1  0.4397409425813  0.2581492729569  0.5624205401801 1.0
C      1  0.5276371500444  0.2325273043100  0.4272946869823 1.0
C      1  0.5991337963714  0.7860143753178  0.4658500144373 1.0
C      1  0.4524934073848  0.6869521459515  0.7511079028289 1.0
C      1  0.4216738205441  0.4413928653702  0.4508188440722 1.0
C      1  0.6172439245768  0.6273920631397  0.2976471317571 1.0
C      1  0.2787289726827  0.2324870493158  0.5464124531231 1.0
C      1  0.6919658877485  0.6400021896294  0.6275501206478 1.0
C      1  0.6446826401053  0.3163059857391  0.3344526118090 1.0
C      1  0.6000350620755  0.3187243497856  0.5652329177637 1.0
C      1  0.7688709113309  0.5369462091908  0.5310226792856 1.0
C      1  0.5038448061549  0.5597886235707  0.2143605288228 1.0
C      1  0.4322774947308  0.7211957058488  0.5092947644897 1.0
C      1  0.2354780954925  0.4678760172729  0.4559618804801 1.0
C      1  0.6854142607750  0.5565096848012  0.2984739746682 1.0
C      1  0.3448600988252  0.3051788954403  0.7513157684263 1.0
C      1  0.7427013203183  0.4017870472835  0.6397789308666 1.0
C      1  0.5290491560680  0.7274834115403  0.4742595531606 1.0
C      1  0.1795027248627  0.4420789789246  0.5940179861046 1.0
C      1  0.7483876071778  0.4164579718100  0.4060600670945 1.0
C      1  0.5503320429398  0.5887174192719  0.3638860432167 1.0
C      1  0.6891986188311  0.3986840476160  0.3282796928635 1.0
C      1  0.5853660481153  0.4676999220844  0.4809440356981 1.0
C      1  0.5637850970894  0.7633842240489  0.6568081711440 1.0
C      1  0.7631712120421  0.5034865220674  0.4414616938326 1.0
C      1  0.3031466636789  0.3235212646012  0.3658689976002 1.0
C      1  0.3172068387907  0.4026912338157  0.7396165368416 1.0
C      1  0.4975534176436  0.5280967224334  0.7275230402276 1.0
C      1  0.6713879390690  0.5020350994899  0.7407061169297 1.0
C      1  0.2736612854909  0.5861769771880  0.5805258066289 1.0
C      1  0.3145810428657  0.3610876648005  0.8264828651660 1.0
C      1  0.4884012594630  0.3985942472591  0.2345987606665 1.0
C      1  0.7620427926883  0.4956334157724  0.6161695223123 1.0
C      1  0.3833091952548  0.5833814914292  0.4196612346745 1.0
C      1  0.7164637228992  0.5569927878890  0.6762340882251 1.0
C      1  0.2977795835194  0.6108646389409  0.4045436881095 1.0
C      1  0.2290350210165  0.5096269536199  0.5502237278307 1.0
C      1  0.1730760963108  0.3590094367372  0.5808051971204 1.0
C      1  0.5764823701631  0.4809357511394  0.7510172832862 1.0
C      1  0.5510317915330  0.4730742711323  0.2449138657967 1.0
C      1  0.6068869686028  0.5521358549567  0.4370773460286 1.0
C      1  0.7075334130266  0.5710398768473  0.3967817819587 1.0
C      1  0.6293927984585  0.3869601531371  0.4990737346555 1.0
C      1  0.4420835509959  0.6138387162143  0.4913459278825 1.0
C      1  0.4095131000221  0.5025286992635  0.3674094334342 1.0
C      1  0.4003793622075  0.3521012101340  0.5862090522592 1.0
C      1  0.6049555649795  0.8582813750215  0.5282387167972 1.0
C      1  0.4589138328276  0.5055826995622  0.6404381627331 1.0
C      1  0.4109640308567  0.3719913812515  0.2464831831693 1.0
C      1  0.3467906941188  0.3470176707774  0.6675110267733 1.0
C      1  0.2572534132934  0.5199104090537  0.3826823391755 1.0
C      1  0.5542320481294  0.6386876172438  0.2142291095271 1.0
C      1  0.4736203217417  0.6090172210172  0.7663739184882 1.0
C      1  0.5338913095678  0.6304054892441  0.4513370202813 1.0
C      1  0.5800561400247  0.7189941906657  0.2461228449030 1.0
C      1  0.5907724848043  0.8413518428571  0.6092262176010 1.0
C      1  0.7305026765062  0.6279081711741  0.5357650269540 1.0
C      1  0.2224177141506  0.3035587646750  0.5245612082218 1.0
C      1  0.4201272576136  0.5719156640769  0.5844160288544 1.0
C      1  0.4649530937921  0.7398789086212  0.6738481510312 1.0
C      1  0.7174841203712  0.3598214117175  0.4783649663934 1.0
C      1  0.5544636054249  0.3656714450919  0.6389490788830 1.0
C      1  0.3604039455531  0.2096765555570  0.5441263757350 1.0
C      1  0.7117289980508  0.3399472605098  0.5709309670128 1.0
C      1  0.2682079243837  0.3672562646012  0.4561883875373 1.0
C      1  0.6495880792134  0.4722624017700  0.2780472618428 1.0
C      1  0.3304754529779  0.3837842937563  0.2983066444760 1.0
C      1  0.4903639235088  0.5321878304451  0.3117293183104 1.0
C      1  0.4051861954946  0.7172883519930  0.6065298614801 1.0
C      1  0.3223579463646  0.4743195830511  0.3252065165366 1.0
C      1  0.6397420647964  0.7204798954474  0.3197518920219 1.0
C      1  0.6929504625284  0.4075216872823  0.7191442496348 1.0
C      1  0.3535185953489  0.7498051703993  0.4552229406039 1.0
C      1  0.7119428183531  0.6604490150368  0.4478594632993 1.0
C      1  0.4425108747569  0.2269658276390  0.3878843523650 1.0
C      1  0.4979335198311  0.4457115160253  0.5037823982035 1.0
C      1  0.4799762508643  0.4163559086559  0.5987265994550 1.0
C      1  0.3591301639471  0.3901269474077  0.4970134070855 1.0
C      1  0.3649455153729  0.2531184327004  0.3732863360286 1.0
C      1  0.5283054640047  0.2534748558048  0.5231059288851 1.0
C      1  0.6657807688046  0.7366064103211  0.4085535742657 1.0
END
