TITL C-40473-6035-4 -2.303 3375.00 -384.13019500 0 0 47 (Cs) n - 1
REM
REM Run started: at 2020.11.28 04:21:25 in /rds/project/t2_vol4/rds-t2-cs072/BORA/CARBON/AIRSS/Generating-Clusters/Str-Search/Higher-Symm
REM VASP from code version vasp.5.4.4.18Apr17-6-g9f103f2a35 (build Oct 11 2019 16:45:47) gamma-only
REM
REM
REM
REM
REM ./C.cell (e5ae0387ce4d49c7c0135a1433873289)
REM AIRSS Version 0.9.1 bugfix July 2018 build 013d7b7c2542+ Fri, 06 Jul 2018 19:26:36 +0100
REM compiler GCC version 4.8.5 20150623 (Red Hat 4.8.5-39)
REM options -cpp -mtune=generic -march=x86-64 -g -O0
REM seed -71495400 371137713 646897431 2058286913 -1414213713 -762169894 -807078486 1976057524 -1595029859 -2042900989 -1980179870 -1639270311
REM
REM C.POTCAR (d86ddea03c3ceb6dc662c8ad6801f873)
REM 
CELL 1.54180   15.00000   15.00000   15.00000   90.00000   90.00000   90.00000
LATT -1
SFAC C  
C      1  0.6854354179957  0.4469058390968  0.6033447670537 1.0
C      1  0.6835028852673  0.3585634408918  0.4522954035738 1.0
C      1  0.6834851025654  0.4879882920743  0.3495516471399 1.0
C      1  0.6850731826084  0.6142157746477  0.4706155088282 1.0
C      1  0.6697560133872  0.6146920147572  0.6432227038835 1.0
C      1  0.2425768643867  0.4962794964547  0.4136591194609 1.0
C      1  0.2465145342546  0.5775280964842  0.4685427307745 1.0
C      1  0.2393009878057  0.5519342328151  0.5630959507812 1.0
C      1  0.2467966088236  0.4541050679178  0.5662337586986 1.0
C      1  0.2425991993670  0.4196476075772  0.4743748763907 1.0
C      1  0.7315867194749  0.4086160966600  0.3824867474136 1.0
C      1  0.7244706348257  0.5463351787089  0.4166542855956 1.0
C      1  0.7160133318186  0.6094070803354  0.5615220049670 1.0
C      1  0.7163510573413  0.5364102239317  0.6196423817368 1.0
C      1  0.7246808633563  0.4101513684028  0.5246592342793 1.0
C      1  0.6002613388405  0.4246881946614  0.6387027766284 1.0
C      1  0.5950632671844  0.3342795107997  0.4500034633118 1.0
C      1  0.5951957573889  0.4915805683490  0.3249182197871 1.0
C      1  0.5998722607801  0.6537020434609  0.4570287845847 1.0
C      1  0.5844375073271  0.6326778490003  0.6658645535342 1.0
C      1  0.5271903991773  0.4751496424590  0.6856501955826 1.0
C      1  0.5270114538808  0.3252704362618  0.5187010742090 1.0
C      1  0.5223511453911  0.4240206875999  0.3258339051077 1.0
C      1  0.5306767246953  0.6343606146409  0.3896940079625 1.0
C      1  0.5165519901762  0.6754225826235  0.6103062077791 1.0
C      1  0.4617238823482  0.6775172846119  0.4441786653024 1.0
C      1  0.4455828415496  0.6277108196721  0.6598184704834 1.0
C      1  0.4620291611552  0.4069472973979  0.6591344107500 1.0
C      1  0.4557767744875  0.3209897769364  0.4502601393786 1.0
C      1  0.4558630135003  0.4951921335357  0.3115557195522 1.0
C      1  0.3704749327938  0.6754798325196  0.4399332428362 1.0
C      1  0.3559734149411  0.6205452144141  0.6502941854683 1.0
C      1  0.3706844974487  0.4040723957189  0.6560406856113 1.0
C      1  0.3650599616787  0.3207793777440  0.4513958595377 1.0
C      1  0.3651337930681  0.4965852692075  0.3120685511052 1.0
C      1  0.2890419737338  0.4072417701314  0.6387574602521 1.0
C      1  0.2831238538175  0.3368991555286  0.4524106287046 1.0
C      1  0.2832120172922  0.4937393437473  0.3280999655581 1.0
C      1  0.2886620500112  0.6586763046001  0.4393332958690 1.0
C      1  0.2763264353180  0.6064649131699  0.6313432423792 1.0
C      1  0.5307225184089  0.3639963202277  0.6041621253219 1.0
C      1  0.5223340229175  0.3508029532551  0.3842840204315 1.0
C      1  0.5272281607920  0.5607014023460  0.3315822420833 1.0
C      1  0.5266877370690  0.6874034852227  0.5169229361942 1.0
C      1  0.5166983403572  0.5687930404406  0.6950560932502 1.0
C      1  0.7647573922555  0.4657517718308  0.4547403472229 1.0
C      1  0.3247132769360  0.5042184971294  0.5029901036431 1.0
END
