TITL C-400154-9216-7 -7.346 3375.00 -1440.98117138 0 0 177 (C1) n - 1
REM
REM Run started: at 2020.11.21 06:07:09 in /rds/project/t2_vol4/rds-t2-cs072/BORA/CARBON/AIRSS/Generating-Clusters/Str-Search/Higher-Symm
REM VASP from code version vasp.5.4.4.18Apr17-6-g9f103f2a35 (build Oct 11 2019 16:45:47) gamma-only
REM
REM
REM
REM
REM ./C.cell (e5ae0387ce4d49c7c0135a1433873289)
REM AIRSS Version 0.9.1 bugfix July 2018 build 013d7b7c2542+ Fri, 06 Jul 2018 19:26:36 +0100
REM compiler GCC version 4.8.5 20150623 (Red Hat 4.8.5-39)
REM options -cpp -mtune=generic -march=x86-64 -g -O0
REM seed -13617011 -607190633 -1661969934 -622765588 1627869752 108107836 453286005 -534061341 -80584463 372685265 -1403456407 1942049180
REM
REM C.POTCAR (d86ddea03c3ceb6dc662c8ad6801f873)
REM 
CELL 1.54180   15.00000   15.00000   15.00000   90.00000   90.00000   90.00000
LATT -1
SFAC C  
C      1  0.4494530851245  0.3431255239568  0.4223273035583 1.0
C      1  0.6306383563025  0.4160600116435  0.4065064724755 1.0
C      1  0.6056726178920  0.6052571706281  0.3793091525973 1.0
C      1  0.4153053171069  0.6601508849225  0.4256208035071 1.0
C      1  0.3207585765797  0.4894133507343  0.4200238086084 1.0
C      1  0.4578342883642  0.3710293039394  0.6138405795786 1.0
C      1  0.6392537577395  0.4496178368619  0.5872121860378 1.0
C      1  0.6181350290308  0.6431485806126  0.6065423627726 1.0
C      1  0.4185717038587  0.6748992668503  0.6259655115431 1.0
C      1  0.3215604375230  0.5062161750959  0.6072951446307 1.0
C      1  0.7567329410921  0.3798120543419  0.7461525121158 1.0
C      1  0.7291247688567  0.6991878408284  0.7675957944912 1.0
C      1  0.4033998330067  0.7600182938645  0.7959570438191 1.0
C      1  0.1785093671044  0.5372761911165  0.7344159118624 1.0
C      1  0.4629580123081  0.2472985137857  0.7559505651940 1.0
C      1  0.7733923263512  0.3672491410347  0.2416188293361 1.0
C      1  0.6965633605965  0.6721976551235  0.2378163330059 1.0
C      1  0.3777253630800  0.6949320935168  0.2316740332198 1.0
C      1  0.2152873124423  0.3737891790210  0.2764911253667 1.0
C      1  0.5136891941468  0.1901114942691  0.2934660719571 1.0
C      1  0.4980392134418  0.3108307799445  0.8735638544445 1.0
C      1  0.7033229176363  0.4319513419436  0.8223799956407 1.0
C      1  0.6503594130191  0.6284125785693  0.8593337393037 1.0
C      1  0.4399033082678  0.6265424148991  0.8185939602564 1.0
C      1  0.3030396411080  0.4487395072664  0.7936738644577 1.0
C      1  0.5225192435395  0.2825581600699  0.2224218625450 1.0
C      1  0.6979220666162  0.4074334568854  0.1650198348628 1.0
C      1  0.6116274978331  0.6010671616721  0.1495012794877 1.0
C      1  0.4247715886866  0.5759636265414  0.1680667929867 1.0
C      1  0.3114167421366  0.4092680076856  0.2382981181961 1.0
C      1  0.5764745820405  0.7325747215604  0.5983340547405 1.0
C      1  0.3240588225529  0.6646812540547  0.5932473192101 1.0
C      1  0.2941690063652  0.4115375328246  0.6062821916685 1.0
C      1  0.5325272663207  0.3116305252070  0.6169784390290 1.0
C      1  0.7137398815608  0.5108519262924  0.6097580852925 1.0
C      1  0.5803875614377  0.6975741160925  0.4072124549167 1.0
C      1  0.3189923547176  0.6518307267858  0.3962020522234 1.0
C      1  0.2935421793378  0.3932718334228  0.4226476698673 1.0
C      1  0.5210841559303  0.2873638817513  0.4182277072534 1.0
C      1  0.7117261504155  0.4779984342788  0.4173323822415 1.0
C      1  0.7839897797495  0.6696430905789  0.5880480707146 1.0
C      1  0.4377102501892  0.8246536525602  0.5587658265191 1.0
C      1  0.1382815263029  0.5575929163556  0.5620087363537 1.0
C      1  0.3561175548930  0.2243638151126  0.6046582297910 1.0
C      1  0.7315009452798  0.2938450019530  0.5985583405633 1.0
C      1  0.7910194378027  0.6660032359429  0.3924231146118 1.0
C      1  0.4383209719681  0.8159664632000  0.3695156577645 1.0
C      1  0.1448665551546  0.5453647599758  0.3724503786593 1.0
C      1  0.3426051705972  0.1843033396403  0.4128040427292 1.0
C      1  0.7563564157001  0.2881162613094  0.3995558482797 1.0
C      1  0.4391374419853  0.4486415630761  0.9676337470929 1.0
C      1  0.5043083296619  0.3869807989001  0.9239101071265 1.0
C      1  0.5981989773112  0.5744042185773  0.9239131803250 1.0
C      1  0.5187614690951  0.6000875413143  0.9769122475295 1.0
C      1  0.4362201654573  0.5483087752489  0.9855992749514 1.0
C      1  0.4733857603576  0.4402053802310  0.0559266568020 1.0
C      1  0.5563154735856  0.4276700515163  0.9994278648084 1.0
C      1  0.6035017639579  0.5104518222748  0.0018283342458 1.0
C      1  0.5573340841478  0.5749880319131  0.0669044752216 1.0
C      1  0.4611844059199  0.5349906656638  0.0841664753384 1.0
C      1  0.3674515936803  0.3383159490635  0.3701128711617 1.0
C      1  0.6269294333589  0.3586978301395  0.3280416115421 1.0
C      1  0.6876332068295  0.5664928948827  0.3672399401996 1.0
C      1  0.4802301094259  0.7193176807662  0.3820790535425 1.0
C      1  0.2900633657467  0.5601638663562  0.3731959648490 1.0
C      1  0.3745607424295  0.3677377117892  0.6674371175050 1.0
C      1  0.6074878769040  0.3755012284135  0.6530740240934 1.0
C      1  0.7054970140821  0.6067086015080  0.6265944826245 1.0
C      1  0.4767082671849  0.7585842801710  0.6327426468593 1.0
C      1  0.2757782610459  0.5817379395292  0.6226769808029 1.0
C      1  0.6074859664701  0.8598592208367  0.5186029490329 1.0
C      1  0.1903575399795  0.7251496685746  0.5078372182149 1.0
C      1  0.1939093227542  0.3057589961979  0.5338126291227 1.0
C      1  0.6024476161965  0.1848187997615  0.5443067325077 1.0
C      1  0.8649936474519  0.5168226159750  0.5416734792642 1.0
C      1  0.6069896888211  0.8484946950801  0.4212344598946 1.0
C      1  0.1910065858541  0.7232313996303  0.4127189927854 1.0
C      1  0.1865511564798  0.2803043414030  0.4374155699190 1.0
C      1  0.6024083113472  0.1657840676842  0.4503775429991 1.0
C      1  0.8622576098254  0.5128633893063  0.4430743530019 1.0
C      1  0.5565719073801  0.7533746227381  0.7915282719788 1.0
C      1  0.2761964141008  0.6213245073152  0.8116358004921 1.0
C      1  0.3309005050167  0.2871255511497  0.7959888201070 1.0
C      1  0.6459938754757  0.2848417236914  0.7753373077268 1.0
C      1  0.7893672706976  0.5653416455636  0.7628619270236 1.0
C      1  0.5210551878218  0.7220559254539  0.2198957388497 1.0
C      1  0.2485421002938  0.5671035082846  0.2155277151597 1.0
C      1  0.3427691932403  0.2465384595271  0.2429852680715 1.0
C      1  0.6819236126426  0.2508924853985  0.2350631969714 1.0
C      1  0.7710306605186  0.5498865729600  0.2263632186211 1.0
C      1  0.3473820496869  0.2452238805659  0.3387775863859 1.0
C      1  0.7212550964399  0.3140215221483  0.3094251138243 1.0
C      1  0.7503445590465  0.6210109642727  0.3103339952438 1.0
C      1  0.4522841555175  0.7501870693375  0.2914102038107 1.0
C      1  0.2203241665174  0.5455004930168  0.3068663682735 1.0
C      1  0.3735066973791  0.2694044143413  0.6963801706912 1.0
C      1  0.6895174710403  0.3246065602249  0.6865150850101 1.0
C      1  0.7682267830750  0.6466842605224  0.6905279209918 1.0
C      1  0.4791917352440  0.7802513350434  0.7331107412667 1.0
C      1  0.1821175903307  0.5659401011622  0.6500066871577 1.0
C      1  0.4853085078342  0.5162193070040  0.2250701898205 1.0
C      1  0.3885459842323  0.4019921487893  0.2939797041768 1.0
C      1  0.5539870895238  0.3745008106640  0.2538341933874 1.0
C      1  0.6109196714939  0.4338910737541  0.1937310047942 1.0
C      1  0.5769390221653  0.5193627704089  0.1982736584083 1.0
C      1  0.4905838788313  0.5538782974823  0.7990901181735 1.0
C      1  0.3872537094654  0.4394397546237  0.7381899664706 1.0
C      1  0.5642543253190  0.4334185537331  0.7291874523417 1.0
C      1  0.6189783723203  0.4691276699450  0.7934934493786 1.0
C      1  0.5834241981184  0.5495250042358  0.8306769073589 1.0
C      1  0.2645920007979  0.2187312779484  0.4552110472397 1.0
C      1  0.6796188377221  0.2430493906709  0.4459097790664 1.0
C      1  0.8482258468535  0.6129140419614  0.4419766043043 1.0
C      1  0.5098546069504  0.8683168817706  0.4149554501991 1.0
C      1  0.1398471559296  0.6306872823418  0.4153243976829 1.0
C      1  0.2812380301151  0.2560647477290  0.5451004094778 1.0
C      1  0.6849798939116  0.2348873299544  0.5441216587851 1.0
C      1  0.8456871531058  0.6123232586617  0.5377817648300 1.0
C      1  0.5062351458329  0.8679115009135  0.5114009174387 1.0
C      1  0.1387244970427  0.6358493426762  0.5097632050453 1.0
C      1  0.1458417625291  0.4604569340024  0.4229790075240 1.0
C      1  0.4256734307060  0.1720212544752  0.4582931633899 1.0
C      1  0.8010271564108  0.3516396393519  0.4523230454391 1.0
C      1  0.7346213276110  0.7358515514209  0.4392080432307 1.0
C      1  0.3460475109930  0.8102459604165  0.4124455488410 1.0
C      1  0.1486933800564  0.4701892546335  0.5181591649993 1.0
C      1  0.4322926278722  0.1953141341931  0.5540861256541 1.0
C      1  0.7886547975501  0.3568623090180  0.5518833489586 1.0
C      1  0.7333001924119  0.7445864850807  0.5336802855035 1.0
C      1  0.3517459987798  0.8072974192690  0.5095209334146 1.0
C      1  0.7242278286939  0.3135193848475  0.1735446194438 1.0
C      1  0.7122280567351  0.6054239940965  0.1746235425928 1.0
C      1  0.4500472265780  0.6734181570431  0.1790850684837 1.0
C      1  0.2359052981769  0.4694663072765  0.2389948655792 1.0
C      1  0.4384449833084  0.2341821783240  0.2375453835252 1.0
C      1  0.7144902760705  0.3352933945367  0.8265138676698 1.0
C      1  0.7432392953437  0.6227456456621  0.8225135080300 1.0
C      1  0.4800694654831  0.7137781623505  0.8316737017674 1.0
C      1  0.2488681014901  0.5339228436000  0.7951253192662 1.0
C      1  0.4177419716666  0.2693748385071  0.8340438326929 1.0
C      1  0.4088955560086  0.5195611464928  0.5708961191142 1.0
C      1  0.4774174857639  0.4530703010426  0.5846223908099 1.0
C      1  0.5607688488336  0.4921156053461  0.5480551852405 1.0
C      1  0.5473723293956  0.5894484576053  0.5693672279246 1.0
C      1  0.4573956062511  0.5988262683322  0.6013170297955 1.0
C      1  0.4051270982526  0.5027871425269  0.4643044252067 1.0
C      1  0.4667279932748  0.4277901469843  0.4464560548515 1.0
C      1  0.5547893068319  0.4663605527235  0.4449437929300 1.0
C      1  0.5359088312176  0.5504535128889  0.4021780488049 1.0
C      1  0.4536380821024  0.5749432437389  0.4244968030178 1.0
C      1  0.5553872870180  0.2735211816620  0.7963319493529 1.0
C      1  0.7780253356654  0.4709657503593  0.7722946085268 1.0
C      1  0.6399779216932  0.7138726397731  0.8027473187538 1.0
C      1  0.3526167004348  0.6649569138846  0.7978197254465 1.0
C      1  0.2858053498423  0.3630189263632  0.8150586130557 1.0
C      1  0.5916777903639  0.2169323068391  0.2338078723227 1.0
C      1  0.7712337425819  0.4578126573189  0.2097142027957 1.0
C      1  0.6039275954651  0.6846821146188  0.2100726053596 1.0
C      1  0.3318909812989  0.6070080897121  0.2050986535068 1.0
C      1  0.2822402962142  0.3197062974514  0.2191146454812 1.0
C      1  0.1995309210730  0.3736622083985  0.3828880975489 1.0
C      1  0.5133112640861  0.1897238369223  0.4017002465086 1.0
C      1  0.8089084282800  0.4434034452606  0.4090093463927 1.0
C      1  0.6501255879488  0.7690156953696  0.3944215861495 1.0
C      1  0.2786181034696  0.7427575660861  0.3747631923139 1.0
C      1  0.1964015938192  0.3967880759044  0.5681466998660 1.0
C      1  0.5236052661961  0.2233823700802  0.5850946766061 1.0
C      1  0.7952489055109  0.4558586041199  0.5776801159255 1.0
C      1  0.6518945452560  0.7966224117453  0.5702679128564 1.0
C      1  0.2826463281379  0.7410235464255  0.5439763145533 1.0
C      1  0.2890106733971  0.3652325289281  0.5195683838347 1.0
C      1  0.5760539543781  0.6729439236805  0.5163072965325 1.0
C      1  0.7106323135184  0.4713187838005  0.5199694478157 1.0
C      1  0.3390126051473  0.6662637034817  0.4932042779173 1.0
C      1  0.6123951119158  0.3173315737173  0.4208159775341 1.0
C      1  0.4710810486907  0.4338210535492  0.2665652953998 1.0
C      1  0.4728968267131  0.4737888084682  0.7490313342523 1.0
END
