TITL C-41657-3798-9 -8.526 3375.00 -1508.04177328 0 0 180 (C1) n - 1
REM
REM Run started: at 2020.12.30 09:26:45 in /rds/project/t2_vol4/rds-t2-cs072/BORA/CARBON/AIRSS/Generating-Clusters/Str-Search/Higher-Symm/Only-C180/Try1-3A
REM VASP from code version vasp.5.4.4.18Apr17-6-g9f103f2a35 (build Oct 11 2019 16:45:47) gamma-only
REM
REM
REM
REM
REM ./C.cell (dfbf6805b19190ca01ef1908a0670cb0)
REM AIRSS Version 0.9.1 bugfix July 2018 build 013d7b7c2542+ Fri, 06 Jul 2018 19:26:36 +0100
REM compiler GCC version 4.8.5 20150623 (Red Hat 4.8.5-39)
REM options -cpp -mtune=generic -march=x86-64 -g -O0
REM seed 350634201 509760691 -403400885 -1744683892 576973210 394874796 -1362824611 539882309 1863978962 -1690506520 1492930181 -1964166776
REM
REM C.POTCAR (d86ddea03c3ceb6dc662c8ad6801f873)
REM 
CELL 1.54180   15.00000   15.00000   15.00000   90.00000   90.00000   90.00000
LATT -1
SFAC C  
C      1  0.1420744840934  0.6615367504511  0.5514811945169 1.0
C      1  0.6766850870259  0.5793043527522  0.1360348356180 1.0
C      1  0.5861665379988  0.1732934416070  0.6030838876905 1.0
C      1  0.8516809840788  0.6487559542150  0.4632442809663 1.0
C      1  0.8651313610967  0.4085300133675  0.5483849571640 1.0
C      1  0.1331067980218  0.4222132911803  0.4465083923783 1.0
C      1  0.3571053013374  0.5573488161524  0.8625353248113 1.0
C      1  0.4186098596485  0.4284605239598  0.1529736661718 1.0
C      1  0.6309265334586  0.4294765724041  0.8515169852557 1.0
C      1  0.3902935003365  0.1560326045567  0.4117579030334 1.0
C      1  0.4546185826806  0.8116456829014  0.6224053811029 1.0
C      1  0.5337481655742  0.8294502678798  0.3941445806983 1.0
C      1  0.5985347344411  0.6238164253513  0.1311609051022 1.0
C      1  0.1478367285092  0.5924618464543  0.6127309310764 1.0
C      1  0.6461395824742  0.1809635801480  0.5360236319473 1.0
C      1  0.4329845663720  0.6072105614294  0.8653696502621 1.0
C      1  0.5804336096523  0.3548533770915  0.8520882985926 1.0
C      1  0.4604634124144  0.3439875958792  0.1610861339197 1.0
C      1  0.8652652521933  0.5905547358737  0.3968971483397 1.0
C      1  0.1673154761702  0.4953774337878  0.3905276497371 1.0
C      1  0.8569289702475  0.4688504856318  0.6145947522756 1.0
C      1  0.3225142996184  0.1721137039303  0.4718614291785 1.0
C      1  0.5939711569278  0.8382811915714  0.4611382406504 1.0
C      1  0.3926601811472  0.8259564467022  0.5596218049777 1.0
C      1  0.5661690845200  0.3148947778934  0.4784727839726 1.0
C      1  0.3676153541578  0.4802729018871  0.5949318722922 1.0
C      1  0.4614797973802  0.4952661383804  0.3467440969955 1.0
C      1  0.4381329562967  0.3433055740885  0.5249365684738 1.0
C      1  0.3890547894627  0.5990198951028  0.4464028958256 1.0
C      1  0.5553990895870  0.6117975056109  0.4172504224932 1.0
C      1  0.6034372164539  0.4628745540956  0.3925147546552 1.0
C      1  0.6363147586949  0.4458656375415  0.5484989249715 1.0
C      1  0.3349863755675  0.4398038664237  0.4434226472559 1.0
C      1  0.5030779302969  0.5650717784974  0.5934290240760 1.0
C      1  0.4543141062354  0.3453334520198  0.3597320765978 1.0
C      1  0.5655426411270  0.4063202953567  0.6247670194683 1.0
C      1  0.5218713582710  0.3238449675539  0.5742536779785 1.0
C      1  0.5463043603742  0.4568934989405  0.3081938275689 1.0
C      1  0.3285029848151  0.5360799738600  0.4715143850030 1.0
C      1  0.4708224808447  0.2945513190836  0.4437519974963 1.0
C      1  0.4668266092718  0.5739710421143  0.3950228974291 1.0
C      1  0.4835483947684  0.6588048614289  0.5575259023199 1.0
C      1  0.4326133837726  0.5243067101696  0.6498666845477 1.0
C      1  0.5617000047154  0.4983005036837  0.5786940508283 1.0
C      1  0.4041625408544  0.4247903888439  0.3717633201076 1.0
C      1  0.6293811280453  0.5564588197391  0.4156710766769 1.0
C      1  0.3801442765337  0.4111940626140  0.5297288871318 1.0
C      1  0.6036103324293  0.4048059045985  0.4624020983042 1.0
C      1  0.8058647654274  0.5067366540530  0.3983515320779 1.0
C      1  0.5099796742436  0.3601432231876  0.7823869982206 1.0
C      1  0.3809506749287  0.7644407111462  0.4781495958679 1.0
C      1  0.2041880285135  0.5070335198981  0.6014395025902 1.0
C      1  0.1708493961098  0.5965465299668  0.3888869486593 1.0
C      1  0.7816700129786  0.5368883179900  0.5961065040759 1.0
C      1  0.5448789999273  0.3150360670434  0.2124226891207 1.0
C      1  0.5077366875242  0.5734077978680  0.7950484609160 1.0
C      1  0.5288141167149  0.5724954069468  0.1842686040788 1.0
C      1  0.5893411970666  0.7615163526609  0.5292254794343 1.0
C      1  0.6284105476906  0.2345629023369  0.4485079275054 1.0
C      1  0.3270659403418  0.2075678821932  0.5656875988236 1.0
C      1  0.3619162616388  0.4883097727249  0.7933164895869 1.0
C      1  0.7994735547467  0.4264816277396  0.4714201989016 1.0
C      1  0.4663766535287  0.7535582774474  0.4099680157285 1.0
C      1  0.6687802717645  0.5009891927453  0.1960996471351 1.0
C      1  0.4485931770145  0.5198719468949  0.1553245137545 1.0
C      1  0.5945054837419  0.4994313152779  0.7828197363026 1.0
C      1  0.1864482263878  0.4265116076270  0.5352068477496 1.0
C      1  0.7796772470767  0.6192929314863  0.5283852007749 1.0
C      1  0.1662506711319  0.6616002202500  0.4571617818122 1.0
C      1  0.5237086246248  0.7412461016529  0.6101144537397 1.0
C      1  0.4048215236124  0.2011151310808  0.6180211405672 1.0
C      1  0.5600928754110  0.1840470030528  0.3869196583716 1.0
C      1  0.3359586281376  0.7395772874082  0.8166556617995 1.0
C      1  0.7217241327291  0.8234956308042  0.3539987804193 1.0
C      1  0.8252382215920  0.3476814859061  0.7280223259813 1.0
C      1  0.6751769227005  0.7528539906209  0.2059820296098 1.0
C      1  0.6996506667135  0.2582356490151  0.7994291015349 1.0
C      1  0.3178237726389  0.2711761945721  0.2121350412917 1.0
C      1  0.2780351655050  0.8214787653134  0.6799125229552 1.0
C      1  0.2261464505555  0.2228314820204  0.3447663588383 1.0
C      1  0.7647965921522  0.2109320267500  0.6506398012415 1.0
C      1  0.2049202906777  0.3742780058615  0.2778966491282 1.0
C      1  0.1922672051222  0.6939000103189  0.7412596502753 1.0
C      1  0.8203272343503  0.7075391847704  0.2827253207686 1.0
C      1  0.8026298995550  0.7681120822372  0.3551168670764 1.0
C      1  0.3457264633305  0.8078813331434  0.7468986947986 1.0
C      1  0.7591916845961  0.3358945017040  0.7996981547666 1.0
C      1  0.1998892396294  0.7641885030531  0.6767719734760 1.0
C      1  0.8302926892175  0.2833564804127  0.6553186445134 1.0
C      1  0.1736167639734  0.3033703637476  0.3378247493710 1.0
C      1  0.6569836346669  0.8130828334086  0.2817820415844 1.0
C      1  0.2982510522028  0.2067482240564  0.2830378538241 1.0
C      1  0.7001313283586  0.1984622785802  0.7210031207086 1.0
C      1  0.2763997735694  0.3586421971778  0.2150018259822 1.0
C      1  0.7589479369534  0.7033369204001  0.2051343887006 1.0
C      1  0.2572146611577  0.6840052413692  0.8158782542648 1.0
C      1  0.4570461851030  0.2130345333254  0.6991035607432 1.0
C      1  0.1999073234888  0.7507974664539  0.4424713536231 1.0
C      1  0.7586167969270  0.4768806029220  0.2206110098209 1.0
C      1  0.5433605420149  0.1644499662784  0.2963889461000 1.0
C      1  0.5567519909272  0.7292252733806  0.7043096175915 1.0
C      1  0.4481934611292  0.7228674000352  0.3088024598470 1.0
C      1  0.7561826586341  0.7078497330020  0.5683644970188 1.0
C      1  0.7855350016263  0.3301732548221  0.4373647727400 1.0
C      1  0.1833897692481  0.3253928892370  0.5633609720331 1.0
C      1  0.2742170921724  0.4636730697062  0.7714490852341 1.0
C      1  0.3838093160304  0.5792480440594  0.1854328000531 1.0
C      1  0.6851678731572  0.5427544524336  0.7577282246563 1.0
C      1  0.7248935058210  0.2593007670133  0.4261117654977 1.0
C      1  0.4533942460611  0.6505162198704  0.2195771957773 1.0
C      1  0.2095422575796  0.4727350826064  0.6981443950645 1.0
C      1  0.2348674095484  0.2444235835753  0.5764623848865 1.0
C      1  0.6829535575108  0.7622072029701  0.5622429912787 1.0
C      1  0.2847740373930  0.7925713197481  0.4504056165795 1.0
C      1  0.5440548386248  0.6661068858913  0.7719734132791 1.0
C      1  0.4724806855744  0.2757065917969  0.7757732736114 1.0
C      1  0.5481987624181  0.2212328425827  0.2162172103404 1.0
C      1  0.8113150981291  0.4833344676337  0.2990696904924 1.0
C      1  0.2075142548103  0.6216513720214  0.3062647857336 1.0
C      1  0.7508148920359  0.5549393231171  0.6918701312705 1.0
C      1  0.5966136098827  0.7163406377585  0.1553643678589 1.0
C      1  0.7398516681229  0.1779746474555  0.5607643946441 1.0
C      1  0.1479021055353  0.6144829071167  0.7064899619915 1.0
C      1  0.4198232394509  0.7033504275508  0.8575678386710 1.0
C      1  0.4027095143464  0.2648544387385  0.1680879106033 1.0
C      1  0.6157733629128  0.2653802643459  0.8480338310117 1.0
C      1  0.2333046635406  0.1808105781461  0.4336491826679 1.0
C      1  0.3069565762508  0.8568513013885  0.5925723828235 1.0
C      1  0.6871175223227  0.8549296386108  0.4402188425230 1.0
C      1  0.8718394850083  0.6264922162247  0.3065690850380 1.0
C      1  0.8553914879214  0.4395317426225  0.7069701535550 1.0
C      1  0.1893082950957  0.4657313432189  0.2984626172702 1.0
C      1  0.1527151405552  0.7520400893036  0.5908424051779 1.0
C      1  0.6149093125612  0.1576459709873  0.6939556742489 1.0
C      1  0.7623725703322  0.6202628850844  0.1524546616962 1.0
C      1  0.8420213017673  0.7438762735370  0.4424018848595 1.0
C      1  0.1216686206823  0.3301413162385  0.4170211700845 1.0
C      1  0.8688754822647  0.3142579296820  0.5698928322123 1.0
C      1  0.3719998868536  0.1513315083426  0.3163906944658 1.0
C      1  0.5644947346847  0.8317326357586  0.3037386994150 1.0
C      1  0.4368087390785  0.8284226895975  0.7166810246345 1.0
C      1  0.2667069851557  0.5954473010700  0.8573908572301 1.0
C      1  0.7259707566129  0.4177691846659  0.8446234954994 1.0
C      1  0.3243632026935  0.4341891354145  0.1792626111252 1.0
C      1  0.7343005846224  0.8386092326051  0.5196041163337 1.0
C      1  0.8208148349870  0.5124846245165  0.7533264691851 1.0
C      1  0.5016980180608  0.7360929717843  0.8303669156161 1.0
C      1  0.2512278402833  0.8558475040139  0.5197548283229 1.0
C      1  0.1777316192793  0.2033806722940  0.5030479607557 1.0
C      1  0.7862293197283  0.2023762981562  0.4848840775619 1.0
C      1  0.2300390367586  0.5418934702842  0.2575601757825 1.0
C      1  0.1595115458807  0.5334220292563  0.7527780671035 1.0
C      1  0.8690534033957  0.5514695176884  0.2529262139855 1.0
C      1  0.5079331327627  0.7334740025546  0.1800977610542 1.0
C      1  0.5386407309240  0.2169855199150  0.8191601688915 1.0
C      1  0.4588256529176  0.1919717389784  0.1866841781388 1.0
C      1  0.5123244082500  0.8004729596649  0.7615976294778 1.0
C      1  0.7564670146544  0.5015453809161  0.8188371902380 1.0
C      1  0.8083722948121  0.7814724884575  0.5195398838049 1.0
C      1  0.4967490674052  0.7841422833602  0.2569651238610 1.0
C      1  0.4496482290862  0.1403971303875  0.2650990277381 1.0
C      1  0.5361881451789  0.1586556952360  0.7458435446961 1.0
C      1  0.3028283294699  0.5269808564103  0.1996929679613 1.0
C      1  0.8169876060587  0.5481893825818  0.1753297246357 1.0
C      1  0.2146874295033  0.5239061679068  0.8288499933870 1.0
C      1  0.1689887280057  0.8087658381370  0.5193073499632 1.0
C      1  0.8495202156519  0.2713808310189  0.4898570062461 1.0
C      1  0.1237738363360  0.2804988904752  0.4954996072252 1.0
C      1  0.5021480612120  0.2272739735561  0.6074570107673 1.0
C      1  0.2975830770260  0.5426198879957  0.5664032291797 1.0
C      1  0.3903546740135  0.6675523766055  0.5173666974597 1.0
C      1  0.7190346851192  0.5562230028036  0.4581812735623 1.0
C      1  0.7267696195845  0.4803225681446  0.5281323646880 1.0
C      1  0.5854929310758  0.5074410415544  0.2344773768616 1.0
C      1  0.4369082613778  0.5226311555573  0.7393421691436 1.0
C      1  0.5504393822428  0.4240392734120  0.7216273555711 1.0
C      1  0.4759173085096  0.1940881035786  0.4300107188264 1.0
C      1  0.5353737214045  0.6918119435878  0.4706359384731 1.0
C      1  0.5246685111820  0.3618286217822  0.2940964193580 1.0
C      1  0.2343467814154  0.4406379067531  0.4479595349219 1.0
END
