TITL C-41657-3798-8 -8.017 3375.00 -1460.47056904 0 0 180 (Cs) n - 1
REM
REM Run started: at 2020.12.30 07:25:12 in /rds/project/t2_vol4/rds-t2-cs072/BORA/CARBON/AIRSS/Generating-Clusters/Str-Search/Higher-Symm/Only-C180/Try1-3A
REM VASP from code version vasp.5.4.4.18Apr17-6-g9f103f2a35 (build Oct 11 2019 16:45:47) gamma-only
REM
REM
REM
REM
REM ./C.cell (dfbf6805b19190ca01ef1908a0670cb0)
REM AIRSS Version 0.9.1 bugfix July 2018 build 013d7b7c2542+ Fri, 06 Jul 2018 19:26:36 +0100
REM compiler GCC version 4.8.5 20150623 (Red Hat 4.8.5-39)
REM options -cpp -mtune=generic -march=x86-64 -g -O0
REM seed -92967549 1667388303 1013180933 116302964 -1350311417 -694657802 2104625848 -1459306058 -1514637167 -619743282 -272018477 1528114277
REM
REM C.POTCAR (d86ddea03c3ceb6dc662c8ad6801f873)
REM 
CELL 1.54180   15.00000   15.00000   15.00000   90.00000   90.00000   90.00000
LATT -1
SFAC C  
C      1  0.6020754915205  0.2390515703988  0.4752611137300 1.0
C      1  0.4774511394050  0.6159240269902  0.2296065180838 1.0
C      1  0.2304253774366  0.4663480936687  0.6124961759970 1.0
C      1  0.3938720936200  0.7567924173265  0.4700801061367 1.0
C      1  0.3884098061579  0.2315412607884  0.5298661269352 1.0
C      1  0.6110138795855  0.7603236111282  0.5233893702888 1.0
C      1  0.5334354600297  0.3997485476084  0.2375385842840 1.0
C      1  0.5273845243560  0.6108625448215  0.7696690559078 1.0
C      1  0.4686715758932  0.3863401158536  0.7775155224056 1.0
C      1  0.7599279373620  0.5301075109982  0.6027546259840 1.0
C      1  0.7612722243314  0.4668342480538  0.3910232918576 1.0
C      1  0.2439209479395  0.5258770795442  0.3943214693902 1.0
C      1  0.2390791435864  0.6021587689279  0.4751326157641 1.0
C      1  0.6159562346856  0.4774696875144  0.2296472878878 1.0
C      1  0.4662274011235  0.2304137404765  0.6125410525405 1.0
C      1  0.7569153629842  0.3940470412307  0.4701999776782 1.0
C      1  0.2315125264959  0.3885436014415  0.5298680592258 1.0
C      1  0.7604100534667  0.6111513108340  0.5233221118581 1.0
C      1  0.3996803860598  0.5333393832851  0.2374932245805 1.0
C      1  0.6109307291055  0.5273147928732  0.7696230836119 1.0
C      1  0.3862760661192  0.4687295571394  0.7775392449595 1.0
C      1  0.5300141603351  0.7598364371273  0.6027389408749 1.0
C      1  0.4666620138577  0.7610977943659  0.3909370525654 1.0
C      1  0.5259144142388  0.2439099275507  0.3945267610232 1.0
C      1  0.2591955118714  0.1920214540577  0.6686751411126 1.0
C      1  0.6648300903910  0.2630171353269  0.1981656891127 1.0
C      1  0.1970362094651  0.6613942886576  0.2665076478263 1.0
C      1  0.7359098174048  0.8034962755542  0.6621094157130 1.0
C      1  0.7300484403084  0.1956186938966  0.3370203736649 1.0
C      1  0.2601456444157  0.8000061491468  0.3366418974399 1.0
C      1  0.3288901823417  0.7375524987913  0.1965977878262 1.0
C      1  0.3263346420148  0.2570195434523  0.8078923845336 1.0
C      1  0.6691597317510  0.7383788937016  0.8006525720262 1.0
C      1  0.8033499191658  0.3280433115047  0.2657548922849 1.0
C      1  0.8044110596039  0.6674839717403  0.7320175486647 1.0
C      1  0.1911610825824  0.3271913774230  0.7393829897119 1.0
C      1  0.1918942219594  0.2593051325707  0.6686901949166 1.0
C      1  0.2629609575034  0.6647904049471  0.1979412245738 1.0
C      1  0.6614533832314  0.1970917778651  0.2667196760715 1.0
C      1  0.8033700522185  0.7361709784449  0.6620673330343 1.0
C      1  0.1955020534762  0.7299989050461  0.3367833631071 1.0
C      1  0.7999969904519  0.2602859867928  0.3368861419524 1.0
C      1  0.7375875958602  0.3289526926432  0.1968129103655 1.0
C      1  0.2570389521864  0.3262823229109  0.8079212953410 1.0
C      1  0.7384832634303  0.6691891983926  0.8006050782908 1.0
C      1  0.3279311097495  0.8033488989006  0.2655375502444 1.0
C      1  0.6672881574587  0.8043701528176  0.7321295780615 1.0
C      1  0.3271581186167  0.1911932931245  0.7392937685137 1.0
C      1  0.1968367972974  0.3331002712533  0.2585357631648 1.0
C      1  0.2618310489712  0.1937255891774  0.3278892105397 1.0
C      1  0.3353079908066  0.2648187895829  0.1922262477773 1.0
C      1  0.8125477315711  0.6788912971574  0.2493596224176 1.0
C      1  0.8039672071684  0.3323892815004  0.7370562312947 1.0
C      1  0.1930325725782  0.6672157141485  0.7398148517786 1.0
C      1  0.7512667197787  0.8161024153394  0.3195791647969 1.0
C      1  0.7359434910501  0.1942122861017  0.6680307418687 1.0
C      1  0.2619593977704  0.8031552715407  0.6669035041222 1.0
C      1  0.6762035332422  0.7460645644291  0.1811090258371 1.0
C      1  0.6684892508204  0.2601338105335  0.8081983688262 1.0
C      1  0.3309050413880  0.7386010292505  0.8061902939783 1.0
C      1  0.3335246462977  0.1966585314806  0.2587081163489 1.0
C      1  0.1940432627165  0.2615245777523  0.3278753167455 1.0
C      1  0.2650103177788  0.3348653515077  0.1920873973887 1.0
C      1  0.6787340479076  0.8125160170330  0.2493886684408 1.0
C      1  0.3324198467046  0.8041825170715  0.7370050383736 1.0
C      1  0.6669028434990  0.1929892278304  0.7398615896750 1.0
C      1  0.8160879889242  0.7514367243016  0.3195367663365 1.0
C      1  0.1941126851488  0.7363012944695  0.6680619046661 1.0
C      1  0.8028266483075  0.2620457095451  0.6668513771066 1.0
C      1  0.7460566727573  0.6762398453319  0.1811325099408 1.0
C      1  0.2602699237506  0.6687025624757  0.8080542309888 1.0
C      1  0.7384657485184  0.3307338016555  0.8063154066744 1.0
C      1  0.4828301519662  0.6661455054888  0.5919557038126 1.0
C      1  0.6022206699658  0.4745943279930  0.6775513264376 1.0
C      1  0.6726490338034  0.5964566209412  0.4673766458235 1.0
C      1  0.5125533483177  0.3236528514063  0.6082929628010 1.0
C      1  0.5493549573882  0.6989075947337  0.3789092906079 1.0
C      1  0.4795360102191  0.3375760008543  0.4069237006908 1.0
C      1  0.3936048543787  0.5211799428188  0.6855435761082 1.0
C      1  0.4156891545464  0.4905592189164  0.3327400865699 1.0
C      1  0.6147329025209  0.5366702239498  0.3168429234896 1.0
C      1  0.3231767890133  0.3975675548488  0.4783888664779 1.0
C      1  0.3259117623104  0.5908254225368  0.5323188327791 1.0
C      1  0.6643830765955  0.4047356551231  0.5188515437677 1.0
C      1  0.6661953439183  0.4828768277302  0.5919892079062 1.0
C      1  0.4746235704992  0.6022072472994  0.6776039349087 1.0
C      1  0.5963704014997  0.6725862791914  0.4673758321153 1.0
C      1  0.3236825846630  0.5125733219814  0.6082331065133 1.0
C      1  0.6990567131896  0.5495005145066  0.3789015077428 1.0
C      1  0.3376128831641  0.4794925645742  0.4068815466574 1.0
C      1  0.5211457083598  0.3936275634754  0.6855624028327 1.0
C      1  0.4906592048301  0.4156510011942  0.3327426209068 1.0
C      1  0.5366932933131  0.6146387035032  0.3167946823003 1.0
C      1  0.3975676224485  0.3231612844607  0.4783363613875 1.0
C      1  0.5908278575400  0.3258971490147  0.5324330561158 1.0
C      1  0.4046833883785  0.6642987479541  0.5187432782837 1.0
C      1  0.6032501086208  0.6774501973967  0.7493760254183 1.0
C      1  0.7471212026882  0.6025917987307  0.6741027160321 1.0
C      1  0.6759535098959  0.7467119942119  0.5997244000129 1.0
C      1  0.3927113747356  0.3181451741684  0.7565251812755 1.0
C      1  0.3978908603852  0.6799824925217  0.2480122751588 1.0
C      1  0.6034190856563  0.3271701337143  0.2519577893560 1.0
C      1  0.2464283843357  0.3923260298237  0.6816856818962 1.0
C      1  0.2561720411564  0.5998063018555  0.3249411177945 1.0
C      1  0.7477235480888  0.3950212696647  0.3224425583132 1.0
C      1  0.3194940530771  0.2477180617837  0.6050710420068 1.0
C      1  0.3225551814456  0.7444630385193  0.3981834189436 1.0
C      1  0.6719107497543  0.2533656362121  0.4005039147455 1.0
C      1  0.6775422841734  0.6032339714042  0.7493431462812 1.0
C      1  0.6024738216948  0.7470259532236  0.6741589864439 1.0
C      1  0.7467494850691  0.6760730509587  0.5996766468291 1.0
C      1  0.3181114371760  0.3927160090049  0.7565488392472 1.0
C      1  0.6799985785435  0.3979688648272  0.2481603281450 1.0
C      1  0.3271551441594  0.6033992808793  0.2517894965789 1.0
C      1  0.3922438739573  0.2465190721837  0.6816461247223 1.0
C      1  0.5998143445747  0.2561804750975  0.3251373727214 1.0
C      1  0.3948791293848  0.7477193279616  0.3222775618232 1.0
C      1  0.2475890915527  0.3196234698920  0.6050759861966 1.0
C      1  0.7444569996988  0.3226870266307  0.3983916056782 1.0
C      1  0.2533259223103  0.6718777983829  0.4002783742629 1.0
C      1  0.6134971448675  0.6856761884740  0.1407848757375 1.0
C      1  0.1484270867383  0.6061378719186  0.6816282349651 1.0
C      1  0.6765343300959  0.1500445030486  0.6080289765923 1.0
C      1  0.3973346194814  0.3245721063515  0.1517294611169 1.0
C      1  0.3906435207220  0.6812504164151  0.8534479669509 1.0
C      1  0.6096110161727  0.3180570592215  0.8567105410412 1.0
C      1  0.8459249946382  0.3938354192686  0.6773529791290 1.0
C      1  0.8477104309176  0.6169931789232  0.3099533584310 1.0
C      1  0.1546800078670  0.3935688494771  0.3182367458435 1.0
C      1  0.3211134811481  0.8447862535100  0.6051020794973 1.0
C      1  0.3200031525167  0.1488225672744  0.3889359140923 1.0
C      1  0.6822778324196  0.8521504862239  0.3833432245498 1.0
C      1  0.6857319774115  0.6134806083275  0.1408031609584 1.0
C      1  0.6058173381492  0.1482482906662  0.6817189991336 1.0
C      1  0.1500428810636  0.6769268504797  0.6079789296976 1.0
C      1  0.3246935249696  0.3970207537389  0.1516255392150 1.0
C      1  0.6811510384463  0.3905101418895  0.8535727915915 1.0
C      1  0.3181090189963  0.6097845887001  0.8566028569352 1.0
C      1  0.3937987810246  0.8459660327489  0.6772015316821 1.0
C      1  0.6167980860444  0.8474867102782  0.3100365108979 1.0
C      1  0.3938997164882  0.1544181500094  0.3184546291058 1.0
C      1  0.8447133806698  0.3212149952593  0.6051974060282 1.0
C      1  0.1492151291709  0.3197954501207  0.3888522728223 1.0
C      1  0.8522895568940  0.6824747390745  0.3832669572372 1.0
C      1  0.5435321079754  0.3839609844090  0.8426992229769 1.0
C      1  0.8034191514975  0.5544347249089  0.3743030335092 1.0
C      1  0.3873033153075  0.8250331528665  0.5410450909960 1.0
C      1  0.4558087918707  0.6148147488596  0.8388945571213 1.0
C      1  0.4609289796780  0.3914083040642  0.1717354468321 1.0
C      1  0.5482802615652  0.6200112153751  0.1591460819167 1.0
C      1  0.1742361705313  0.4556092329580  0.3862493406209 1.0
C      1  0.1648603073638  0.5398000764134  0.6163881867922 1.0
C      1  0.8262673349351  0.4576710876370  0.6102633020841 1.0
C      1  0.6086024205685  0.1677836486566  0.5447027807150 1.0
C      1  0.6208069906488  0.8240246663684  0.4482516986657 1.0
C      1  0.3846850419367  0.1666460586954  0.4556821836537 1.0
C      1  0.3839426534283  0.5436279215497  0.8426801778356 1.0
C      1  0.5542324772702  0.8032591935634  0.3743456163351 1.0
C      1  0.8251926165079  0.3874473790283  0.5411319132470 1.0
C      1  0.6147924085445  0.4557154400403  0.8388550771437 1.0
C      1  0.3913667837912  0.4607786254991  0.1716975118633 1.0
C      1  0.6200363901631  0.5482751394393  0.1591490766989 1.0
C      1  0.4557939874242  0.1740840199678  0.3865476795617 1.0
C      1  0.5394828651810  0.1646505636061  0.6164306276363 1.0
C      1  0.4575889259381  0.8261604074773  0.6101241149609 1.0
C      1  0.1679910788512  0.6089399753430  0.5447159699533 1.0
C      1  0.8241773881524  0.6210008036685  0.4481987703738 1.0
C      1  0.1668334766767  0.3846332947116  0.4555032121294 1.0
C      1  0.5559705847204  0.4826340380755  0.3779229378835 1.0
C      1  0.4827080243114  0.5558103693784  0.3779097473233 1.0
C      1  0.4669795396501  0.4670093674989  0.6521105025014 1.0
C      1  0.4496086911843  0.3776078505811  0.5457990402421 1.0
C      1  0.3849247784708  0.5256348165590  0.4844088732743 1.0
C      1  0.5379014216713  0.6102791477552  0.5235439568601 1.0
C      1  0.5256597999210  0.3848997935320  0.4844765705783 1.0
C      1  0.4580338798652  0.5882363979723  0.4669828204317 1.0
C      1  0.5276006691739  0.5275931740389  0.6452015592710 1.0
C      1  0.5883581167093  0.4580276115271  0.4670477711769 1.0
C      1  0.6103713723074  0.5379354451428  0.5235409848770 1.0
C      1  0.3776501024223  0.4496076697612  0.5457758547384 1.0
END
