TITL C-422853-7446-5 -0.82 3375.00 -132.63154331 0 0 17 (C2) n - 1
REM
REM Run started: at 2020.11.21 07:40:45 in /rds/project/t2_vol4/rds-t2-cs072/BORA/CARBON/AIRSS/Generating-Clusters/Str-Search/Higher-Symm
REM VASP from code version vasp.5.4.4.18Apr17-6-g9f103f2a35 (build Oct 11 2019 16:45:47) gamma-only
REM
REM
REM
REM
REM ./C.cell (e5ae0387ce4d49c7c0135a1433873289)
REM AIRSS Version 0.9.1 bugfix July 2018 build 013d7b7c2542+ Fri, 06 Jul 2018 19:26:36 +0100
REM compiler GCC version 4.8.5 20150623 (Red Hat 4.8.5-39)
REM options -cpp -mtune=generic -march=x86-64 -g -O0
REM seed -1934003835 510252890 -2136312502 -909178443 1393195790 1213458188 1166000810 251468891 1152976104 1513253082 972328463 -1870543682
REM
REM C.POTCAR (d86ddea03c3ceb6dc662c8ad6801f873)
REM 
CELL 1.54180   15.00000   15.00000   15.00000   90.00000   90.00000   90.00000
LATT -1
SFAC C  
C      1  0.4258985105063  0.3858916393734  0.5274586014821 1.0
C      1  0.4666541943781  0.3888633069750  0.4366703277085 1.0
C      1  0.5538393473158  0.3935820887531  0.4794392196204 1.0
C      1  0.5169215178319  0.3926561237926  0.5689943304285 1.0
C      1  0.5422204303394  0.6090167503516  0.5412582900414 1.0
C      1  0.5200725470562  0.6080895809600  0.4469364413087 1.0
C      1  0.4233205634247  0.6090301476273  0.4731393033556 1.0
C      1  0.4490398210622  0.6080892701523  0.5692507249130 1.0
C      1  0.4349374165881  0.5214993182519  0.6068372286538 1.0
C      1  0.3909557470427  0.5223803116643  0.4537683646497 1.0
C      1  0.5400357215521  0.5270409864125  0.3991385095321 1.0
C      1  0.6533938315452  0.5043085927608  0.5187249331327 1.0
C      1  0.5239523907947  0.4745941558682  0.6189139339843 1.0
C      1  0.6034963031506  0.4719731045204  0.4461046498222 1.0
C      1  0.4533713281445  0.4744641401165  0.3968674513403 1.0
C      1  0.3855998933153  0.4701937463915  0.5408425839890 1.0
C      1  0.5905337359524  0.5335289360286  0.5820853060379 1.0
END
