TITL C-42199-6866-2 -8.71 3375.00 -1478.18902462 0 0 180 (Cs) n - 1
REM
REM Run started: at 2020.12.24 13:33:37 in /rds/project/t2_vol4/rds-t2-cs072/BORA/CARBON/AIRSS/Generating-Clusters/Str-Search/Higher-Symm/Only-C180
REM VASP from code version vasp.5.4.4.18Apr17-6-g9f103f2a35 (build Oct 11 2019 16:45:47) gamma-only
REM
REM
REM
REM
REM ./C.cell (f712cfaf3acf65fd2d5dcba0fd1fd40b)
REM AIRSS Version 0.9.1 bugfix July 2018 build 013d7b7c2542+ Fri, 06 Jul 2018 19:26:36 +0100
REM compiler GCC version 4.8.5 20150623 (Red Hat 4.8.5-39)
REM options -cpp -mtune=generic -march=x86-64 -g -O0
REM seed 16449354 -971214529 1971594811 -2015310602 -1818630369 868508926 -1167366256 1696286589 -1963007918 -1211591176 -666810956 1906121329
REM
REM C.POTCAR (d86ddea03c3ceb6dc662c8ad6801f873)
REM 
CELL 1.54180   15.00000   15.00000   15.00000   90.00000   90.00000   90.00000
LATT -1
SFAC C  
C      1  0.1745026814875  0.6570604940980  0.3146325130188 1.0
C      1  0.1443163892844  0.2992561068747  0.4265749762638 1.0
C      1  0.1753587153958  0.5834678568189  0.7255602708839 1.0
C      1  0.8254959006637  0.6570610718862  0.3146326661342 1.0
C      1  0.8556843792525  0.2992538853692  0.4265673965442 1.0
C      1  0.8246429242301  0.5834650165281  0.7255606065964 1.0
C      1  0.4473643538939  0.3218196822721  0.6382485742540 1.0
C      1  0.4526801772346  0.6559459496505  0.5645637163009 1.0
C      1  0.4536658391834  0.4746276816149  0.3271642202911 1.0
C      1  0.5526365899330  0.3218196482425  0.6382495504457 1.0
C      1  0.5473200111199  0.6559457972032  0.5645629506782 1.0
C      1  0.5463339261915  0.4746278361277  0.3271647867787 1.0
C      1  0.2400380028354  0.4628744450943  0.5815964716713 1.0
C      1  0.2951659837652  0.6038576704033  0.4944126046803 1.0
C      1  0.3130670941504  0.4412571746242  0.4236601093037 1.0
C      1  0.7599632842510  0.4628758644415  0.5815959572806 1.0
C      1  0.7048348104823  0.6038593168126  0.4944127901495 1.0
C      1  0.6869330352348  0.4412560008022  0.4236603606094 1.0
C      1  0.5471903497539  0.8229227343774  0.7110412419203 1.0
C      1  0.5472509647043  0.5116251982262  0.1195127199178 1.0
C      1  0.5466903546262  0.1568542422970  0.6720182445867 1.0
C      1  0.4528087627175  0.8229234339461  0.7110397520592 1.0
C      1  0.4527465171634  0.5116256591990  0.1195124299710 1.0
C      1  0.4533112142018  0.1568546736969  0.6720194464912 1.0
C      1  0.6249283869192  0.6991782282001  0.7877179662146 1.0
C      1  0.6252489686969  0.6433556446017  0.1861460516822 1.0
C      1  0.6126831500851  0.1366821979585  0.5283589602449 1.0
C      1  0.3750700816074  0.6991781941931  0.7877189330616 1.0
C      1  0.3747491788041  0.6433545840932  0.1861449806822 1.0
C      1  0.3873174013797  0.1366840075793  0.5283606450659 1.0
C      1  0.6884947874169  0.3757763284774  0.8158833588614 1.0
C      1  0.6856508423753  0.8453498150263  0.4361257262276 1.0
C      1  0.6849586794947  0.2674623837019  0.2498654737704 1.0
C      1  0.3115050393130  0.3757779275960  0.8158838408582 1.0
C      1  0.3143486668642  0.8453487671648  0.4361256768074 1.0
C      1  0.3150388240461  0.2674625925241  0.2498675263984 1.0
C      1  0.5528869949424  0.5034917493425  0.5462686089955 1.0
C      1  0.5435868526171  0.5366902469350  0.4574590983068 1.0
C      1  0.6056064057841  0.4229920497658  0.5583150809836 1.0
C      1  0.4471145108754  0.5034916401988  0.5462686677070 1.0
C      1  0.4564141279473  0.5366901277710  0.4574589708321 1.0
C      1  0.3943952744463  0.4229928198739  0.5583154824405 1.0
C      1  0.8007656533528  0.5420625082093  0.3793888632379 1.0
C      1  0.8546546083066  0.4231855148226  0.5950179638410 1.0
C      1  0.8531188804182  0.6145128206090  0.5724886065179 1.0
C      1  0.1992333778400  0.5420622919907  0.3793869503547 1.0
C      1  0.1453468320338  0.4231835098740  0.5950199576347 1.0
C      1  0.1468829678544  0.6145115093648  0.5724862433093 1.0
C      1  0.6758009199738  0.5485697008524  0.7548738382869 1.0
C      1  0.6764329791324  0.7001988933950  0.3221953314631 1.0
C      1  0.7140957578159  0.2063828536286  0.4621676114321 1.0
C      1  0.3242002288976  0.5485705597217  0.7548734014885 1.0
C      1  0.3235669097475  0.7001968847565  0.3221951178457 1.0
C      1  0.2859028563738  0.2063836955270  0.4621690411653 1.0
C      1  0.7394607168356  0.7411639264988  0.5799202410011 1.0
C      1  0.7271676723863  0.4462045754245  0.2682338900223 1.0
C      1  0.7487839222540  0.3128375926928  0.6340527750057 1.0
C      1  0.2605397841501  0.7411638389682  0.5799208866978 1.0
C      1  0.2728311463379  0.4462042376182  0.2682345449399 1.0
C      1  0.2512164057005  0.3128347250149  0.6340607641687 1.0
C      1  0.4473239029234  0.3283569493650  0.4248696305940 1.0
C      1  0.4008182809489  0.5099713984004  0.7010378351461 1.0
C      1  0.3976273314010  0.6627751030863  0.3821747872993 1.0
C      1  0.5526752294634  0.3283556288792  0.4248687671799 1.0
C      1  0.5991828222952  0.5099718261409  0.7010377815853 1.0
C      1  0.6023739714940  0.6627758240741  0.3821748006781 1.0
C      1  0.2560556631651  0.4234432783577  0.7643213731214 1.0
C      1  0.2631890717425  0.7726234086185  0.4183200500475 1.0
C      1  0.2748972228884  0.2886198531428  0.3267073769203 1.0
C      1  0.7439466783841  0.4234410415960  0.7643190024622 1.0
C      1  0.7368105774844  0.7726246792717  0.4183199827242 1.0
C      1  0.7251007748055  0.2886205044020  0.3267051481710 1.0
C      1  0.5986171143750  0.8250357048952  0.6331146530142 1.0
C      1  0.5975452044580  0.4447300103394  0.1591394493835 1.0
C      1  0.5944302749246  0.2410796045577  0.6899574775038 1.0
C      1  0.4013826103543  0.8250349568969  0.6331126151322 1.0
C      1  0.4024517690813  0.4447298917731  0.1591395010285 1.0
C      1  0.4055710571833  0.2410792487088  0.6899578967360 1.0
C      1  0.2360462699410  0.5608628952227  0.5603459941515 1.0
C      1  0.2785252600284  0.5351721813238  0.4225051869540 1.0
C      1  0.3051242490511  0.4194264639262  0.5181269251949 1.0
C      1  0.7639548987039  0.5608644614182  0.5603448466582 1.0
C      1  0.7214751990203  0.5351714033758  0.4225047294521 1.0
C      1  0.6948771290424  0.4194263380885  0.5181258872033 1.0
C      1  0.0794149697051  0.4744257609679  0.6308668149183 1.0
C      1  0.1071562316279  0.6356736252300  0.4811700091225 1.0
C      1  0.1220911984953  0.4245767498882  0.3067902740115 1.0
C      1  0.9205860134731  0.4744265739679  0.6308656415060 1.0
C      1  0.8928429607465  0.6356736708589  0.4811719298940 1.0
C      1  0.8779080329556  0.4245764165749  0.3067868727215 1.0
C      1  0.6918171823423  0.1848142304722  0.5597765866236 1.0
C      1  0.7014029687419  0.7225701332272  0.7282103453972 1.0
C      1  0.7062070353549  0.5804930248842  0.1986925143330 1.0
C      1  0.3081825572773  0.1848141472563  0.5597794306070 1.0
C      1  0.2985953320555  0.7225709762725  0.7282099696818 1.0
C      1  0.2937904496574  0.5804929186332  0.1986907278145 1.0
C      1  0.8654721322158  0.6137463444459  0.3985615818518 1.0
C      1  0.8848776116255  0.3612981491201  0.3602315408262 1.0
C      1  0.8870174659191  0.5602373400141  0.6524419015333 1.0
C      1  0.1345273722631  0.6137465484353  0.3985630307178 1.0
C      1  0.1151205946035  0.3612949922861  0.3602387904657 1.0
C      1  0.1129840290586  0.5602368423859  0.6524408270439 1.0
C      1  0.6171552264470  0.7129433577671  0.2512060801045 1.0
C      1  0.6243090162238  0.1766977749295  0.4413967467649 1.0
C      1  0.6192801041076  0.6046507934416  0.8041554698735 1.0
C      1  0.3828449929997  0.7129417572879  0.2512069891911 1.0
C      1  0.3756902642966  0.1766985369757  0.4413979910849 1.0
C      1  0.3807200980804  0.6046500424396  0.8041558056452 1.0
C      1  0.2901107998087  0.7079488404291  0.4938340994918 1.0
C      1  0.3041326476572  0.3861208158519  0.3385443057519 1.0
C      1  0.2848323736094  0.4004977622491  0.6679221194358 1.0
C      1  0.7098909457870  0.7079500523349  0.4938348212564 1.0
C      1  0.6958670507927  0.3861211201790  0.3385435334715 1.0
C      1  0.7151727953906  0.4005018590296  0.6679163200180 1.0
C      1  0.5501284933371  0.6073594359752  0.1405709615564 1.0
C      1  0.5484420123393  0.1097295753194  0.5860154053181 1.0
C      1  0.5506645290314  0.7566954011542  0.7824542755341 1.0
C      1  0.4498697608814  0.6073594222650  0.1405717468509 1.0
C      1  0.4515581245844  0.1097304078126  0.5860164385165 1.0
C      1  0.4493336956448  0.7566959750553  0.7824529886601 1.0
C      1  0.4012950128216  0.3560138016637  0.8212904537605 1.0
C      1  0.4025908567927  0.8482506631081  0.4640425427885 1.0
C      1  0.4022561062295  0.2877904990143  0.2252626313124 1.0
C      1  0.5987060985904  0.3560138461443  0.8212900412849 1.0
C      1  0.5974085114332  0.8482505647117  0.4640418190267 1.0
C      1  0.5977410545664  0.2877884391050  0.2252628555826 1.0
C      1  0.5486086127556  0.2806377359608  0.7810796212280 1.0
C      1  0.5495896145700  0.8524987772815  0.5505202421490 1.0
C      1  0.5499122056722  0.3587302594657  0.1767990350606 1.0
C      1  0.4513913793116  0.2806391636203  0.7810791912199 1.0
C      1  0.4504104219064  0.8524991588159  0.5505205049741 1.0
C      1  0.4500851088876  0.3587301746190  0.1767992203302 1.0
C      1  0.8060383530781  0.6901148179478  0.6189063184008 1.0
C      1  0.8097013269762  0.4966993556227  0.2910519169851 1.0
C      1  0.8337842607427  0.3247508485082  0.5904631939263 1.0
C      1  0.1939628862558  0.6901158542183  0.6189055496102 1.0
C      1  0.1902960442660  0.4966961248188  0.2910533106177 1.0
C      1  0.1662189831804  0.3247501884092  0.5904719496187 1.0
C      1  0.4497977452748  0.3440074710034  0.5305377539169 1.0
C      1  0.4476638780209  0.5697501640588  0.6245942821316 1.0
C      1  0.4456110328936  0.5714829279586  0.3648154118182 1.0
C      1  0.5502028023523  0.3440072938664  0.5305372173985 1.0
C      1  0.5523372141529  0.5697509490480  0.6245943674792 1.0
C      1  0.5543898200341  0.5714826287621  0.3648152957219 1.0
C      1  0.2326053698356  0.5200330619412  0.7645968080664 1.0
C      1  0.2327644715411  0.7256812966500  0.3378936492766 1.0
C      1  0.2277438076455  0.2545050128585  0.4053976546045 1.0
C      1  0.7673962086228  0.5200317047527  0.7645979280188 1.0
C      1  0.7672360993390  0.7256829271653  0.3378930785556 1.0
C      1  0.7722558523852  0.2545047169013  0.4053944484341 1.0
C      1  0.3817568663970  0.6659921834006  0.4885971071538 1.0
C      1  0.3980157105413  0.4037489812102  0.3724258257126 1.0
C      1  0.3862267966465  0.4121514338841  0.6570943149245 1.0
C      1  0.6182440421834  0.6659931762543  0.4885972981563 1.0
C      1  0.6019843032195  0.4037494979649  0.3724253563075 1.0
C      1  0.6137747873912  0.4121520734222  0.6570940630286 1.0
C      1  0.5507902087659  0.5306125971160  0.7935532796670 1.0
C      1  0.5507156706819  0.7362880215233  0.3254040188154 1.0
C      1  0.5556350378809  0.2280731488285  0.3893733466483 1.0
C      1  0.4492113306594  0.5306123540036  0.7935534780027 1.0
C      1  0.4492848307596  0.7362881567570  0.3254041851222 1.0
C      1  0.4443631637487  0.2280740929765  0.3893733831526 1.0
C      1  0.2171245897742  0.6720322540518  0.7095508935209 1.0
C      1  0.2094598017880  0.5894334239193  0.2466446307914 1.0
C      1  0.1199397896164  0.3034196994228  0.5166457179651 1.0
C      1  0.7828739689401  0.6720331014117  0.7095512982720 1.0
C      1  0.7905375836759  0.5894336413484  0.2466444078182 1.0
C      1  0.8800632826486  0.3034208255381  0.5166416339244 1.0
C      1  0.4546830425303  0.8185856167728  0.3871605163731 1.0
C      1  0.4550401384350  0.2375957435217  0.2889749889847 1.0
C      1  0.4543799981740  0.4368927802240  0.8371610640757 1.0
C      1  0.5453163917969  0.8185864468056  0.3871602676517 1.0
C      1  0.5449567956292  0.2375953526069  0.2889742994565 1.0
C      1  0.5456207439486  0.4368931693354  0.8371608418305 1.0
C      1  0.3203260116763  0.4824935550246  0.1989151266512 1.0
C      1  0.3093259096832  0.2367769896314  0.6378935994042 1.0
C      1  0.3193900347657  0.7747134862659  0.6464297979294 1.0
C      1  0.6796715442685  0.4824933625699  0.1989157904334 1.0
C      1  0.6906758636331  0.2367785180852  0.6378900328395 1.0
C      1  0.6806089329263  0.7747146722639  0.6464297217676 1.0
END
