TITL C-422853-7446-3 -10.861 3375.00 -2842.17520446 0 0 344 (C1) n - 1
REM
REM Run started: at 2020.11.21 07:09:45 in /rds/project/t2_vol4/rds-t2-cs072/BORA/CARBON/AIRSS/Generating-Clusters/Str-Search/Higher-Symm
REM VASP from code version vasp.5.4.4.18Apr17-6-g9f103f2a35 (build Oct 11 2019 16:45:47) gamma-only
REM
REM
REM
REM
REM ./C.cell (e5ae0387ce4d49c7c0135a1433873289)
REM AIRSS Version 0.9.1 bugfix July 2018 build 013d7b7c2542+ Fri, 06 Jul 2018 19:26:36 +0100
REM compiler GCC version 4.8.5 20150623 (Red Hat 4.8.5-39)
REM options -cpp -mtune=generic -march=x86-64 -g -O0
REM seed -1903088344 -551403422 534266973 -607459074 329232025 -1149720401 1796043688 1202113340 768870999 -268917708 -1007917495 -271392861
REM
REM C.POTCAR (d86ddea03c3ceb6dc662c8ad6801f873)
REM 
CELL 1.54180   15.00000   15.00000   15.00000   90.00000   90.00000   90.00000
LATT -1
SFAC C  
C      1  0.8453506576560  0.7771161037470  0.5062364079698 1.0
C      1  0.4537186396603  0.6798498065535  0.4310858070814 1.0
C      1  0.8344592260159  0.3135925798671  0.5078055187036 1.0
C      1  0.6881615229786  0.5370704899595  0.7419829543282 1.0
C      1  0.9260285893364  0.7386465055629  0.6479764595097 1.0
C      1  0.7888084271406  0.6318751640151  0.4022210801386 1.0
C      1  0.2559844006287  0.4180149184259  0.5015750902753 1.0
C      1  0.0446394545079  0.5036727053538  0.4617673143776 1.0
C      1  0.4961340172241  0.3921078259279  0.5515911067788 1.0
C      1  0.8715974909370  0.8108424459361  0.5897508162591 1.0
C      1  0.6737834783637  0.5194126533617  0.3757779798348 1.0
C      1  0.5045802619167  0.1783026713616  0.2394982778570 1.0
C      1  0.7455692344087  0.9728088009298  0.3734567624519 1.0
C      1  0.2685531105103  0.4126601446481  0.0623810361662 1.0
C      1  0.3042893306749  0.1197454480363  0.2153459004919 1.0
C      1  0.7784534661949  0.3581759292514  0.3773034732015 1.0
C      1  0.4135437262734  0.9424261861573  0.2926114214825 1.0
C      1  0.6712440652942  0.6421263932286  0.8941567476841 1.0
C      1  0.1563870137806  0.5826521317699  0.6286380571628 1.0
C      1  0.5665735197506  0.4874566391821  0.4972473968404 1.0
C      1  0.5258530566356  0.1316136920389  0.0935546737300 1.0
C      1  0.6127872661872  0.5424837507569  0.3029007901032 1.0
C      1  0.6475383822873  0.3256337714935  0.8896476744180 1.0
C      1  0.1935085670665  0.5656135091593  0.0857851840378 1.0
C      1  0.3523275672798  0.7412909829156  0.1500847638953 1.0
C      1  0.7651837949740  0.1064090330364  0.5307871561239 1.0
C      1  0.2026936782113  0.6402255277379  0.3695266463731 1.0
C      1  0.1774966235254  0.7189785469544  0.5250182043881 1.0
C      1  0.4740687428230  0.3016114219450  0.5269843145148 1.0
C      1  0.5874042858056  0.2210646823060  0.6342934213506 1.0
C      1  0.3509042389967  0.3934814923655  0.0135073747172 1.0
C      1  0.9932790096538  0.4026975513934  0.7379885092511 1.0
C      1  0.2989702428541  0.6167719609589  0.6943231835026 1.0
C      1  0.2343592631437  0.4959643064962  0.0345772939939 1.0
C      1  0.3328509736016  0.9926616591650  0.4674331438807 1.0
C      1  0.7588450807197  0.9113931534579  0.4539389292142 1.0
C      1  0.0839074989464  0.3960271666805  0.3301121928251 1.0
C      1  0.3589551819546  0.3162358476505  0.2975260597145 1.0
C      1  0.9686959252572  0.4878094751488  0.4027399476410 1.0
C      1  0.0916979493136  0.8893795652096  0.4351727835249 1.0
C      1  0.3747239151447  0.7466237221685  0.4169581710840 1.0
C      1  0.4360260773963  0.1782322838924  0.0928767476836 1.0
C      1  0.6382199445829  0.0753659013426  0.3109722977747 1.0
C      1  0.3497129854512  0.5854960472227  0.6108005722874 1.0
C      1  0.4917601402295  0.8265641237415  0.5660146175936 1.0
C      1  0.6623531999979  0.3768380444518  0.4844621062125 1.0
C      1  0.3755061985885  0.3213023137470  0.8185942315190 1.0
C      1  0.4077468983364  0.5896663318604  0.4440563712022 1.0
C      1  0.2009946685596  0.1610582473916  0.3439424030826 1.0
C      1  0.3296173269414  0.5847423590134  0.5045257374830 1.0
C      1  0.1315764096752  0.5796730316602  0.8515690647682 1.0
C      1  0.8541882263984  0.7037712677920  0.7068200320205 1.0
C      1  0.3395196636352  0.4313922249644  0.9289427769237 1.0
C      1  0.4431382584911  0.3381339288905  0.7514021085675 1.0
C      1  0.1082537465255  0.7627576864993  0.3410758491980 1.0
C      1  0.3349000770888  0.8887654680631  0.3289387675704 1.0
C      1  0.4106980667399  0.6630852886289  0.5997742772568 1.0
C      1  0.7421180038122  0.4350832210174  0.2418651641661 1.0
C      1  0.2377540949080  0.7454204077655  0.5923915465757 1.0
C      1  0.6074496322232  0.6072199129218  0.1574926074932 1.0
C      1  0.8069092422141  0.4934249003292  0.9654672789439 1.0
C      1  0.1937465827612  0.7102015492256  0.1439358617489 1.0
C      1  0.1647754588474  0.2505013574788  0.3176730945030 1.0
C      1  0.2766323451147  0.1087825002167  0.3030526249615 1.0
C      1  0.6947052118448  0.8364740710238  0.3280696851810 1.0
C      1  0.3557555463129  0.9926857145264  0.5595739074242 1.0
C      1  0.0490108740248  0.6579191274826  0.7538008559614 1.0
C      1  0.7449793992527  0.6455680547387  0.2479175096068 1.0
C      1  0.0807945933156  0.6106192389794  0.5846879709750 1.0
C      1  0.2675861517971  0.4632409757796  0.7348998678194 1.0
C      1  0.1429007177517  0.6395688617951  0.7724948237230 1.0
C      1  0.7077180957354  0.5667044343846  0.5246628683217 1.0
C      1  0.7265232494365  0.9163092076559  0.2992370837685 1.0
C      1  0.5655357669865  0.9768345254262  0.5860666118444 1.0
C      1  0.1269154839322  0.9790994070432  0.4629591340395 1.0
C      1  0.4134056488004  0.5148933460819  0.7625121391161 1.0
C      1  0.8019178813055  0.8764931047465  0.6212720039688 1.0
C      1  0.4903115751649  0.4957151036708  0.8957743452777 1.0
C      1  0.4850822630185  0.0940106204141  0.7941224387378 1.0
C      1  0.7106585891736  0.7999960908819  0.8599403310997 1.0
C      1  0.7694533330127  0.4148657605944  0.1042243620670 1.0
C      1  0.1020720055139  0.4840599769029  0.2972287010689 1.0
C      1  0.8218471415572  0.2759194473967  0.4113818070992 1.0
C      1  0.7763114951989  0.3755820898072  0.8479238369390 1.0
C      1  0.8553118365932  0.5251665751883  0.8836177040953 1.0
C      1  0.1627078031165  0.1053439815202  0.5799182743099 1.0
C      1  0.4884444861602  0.6630160817917  0.5319493184399 1.0
C      1  0.2561368346989  0.5126645344484  0.8083850012903 1.0
C      1  0.4058476383249  0.9380713371021  0.6444172316904 1.0
C      1  0.1284669682907  0.2606840151162  0.6294857137377 1.0
C      1  0.8291536795455  0.6326923625594  0.5668588998732 1.0
C      1  0.9022752305168  0.4893498347254  0.1203643219040 1.0
C      1  0.4012390713386  0.4714315577819  0.2566531869890 1.0
C      1  0.8605059468926  0.7924662598875  0.3543823947298 1.0
C      1  0.5287497216227  0.9252538662518  0.4302595187955 1.0
C      1  0.1630502938118  0.9329174689966  0.3910286122180 1.0
C      1  0.7374878544044  0.7096007362676  0.8954779932325 1.0
C      1  0.5097050433266  0.2089164329445  0.4065127817100 1.0
C      1  0.5064155275377  0.9104881981680  0.6355997495146 1.0
C      1  0.5317044949462  0.7395345910694  0.5902381056620 1.0
C      1  0.8111625933490  0.2330989569556  0.6632352747001 1.0
C      1  0.3376778869774  0.0891645145375  0.7073122851384 1.0
C      1  0.5446262025627  0.8412805356534  0.4779075270308 1.0
C      1  0.0728991455866  0.2742289092254  0.5474804148377 1.0
C      1  0.6932305514544  0.8180010431071  0.1618957313056 1.0
C      1  0.3674207204476  0.1499763809981  0.4340114336721 1.0
C      1  0.4786905366715  0.4451679216466  0.4666000935537 1.0
C      1  0.9147677994130  0.3577540311748  0.4769865361880 1.0
C      1  0.5273870143173  0.6621402792132  0.3668629733690 1.0
C      1  0.1736963663476  0.5575687960356  0.1762660150853 1.0
C      1  0.7783009946450  0.6854752160585  0.6375860867516 1.0
C      1  0.6197095628236  0.8117501026855  0.8462859200365 1.0
C      1  0.7455784779256  0.9212295973054  0.5546077093973 1.0
C      1  0.4741294997957  0.7057491102773  0.6656781981198 1.0
C      1  0.3119300688103  0.6888633831920  0.4770803152881 1.0
C      1  0.4396621554448  0.2764550000807  0.1182515652561 1.0
C      1  0.0952784061468  0.7719337294305  0.6476566942136 1.0
C      1  0.5718226490780  0.8999373333433  0.7198646798843 1.0
C      1  0.4125846279451  0.3612354871143  0.5926463645869 1.0
C      1  0.5682719491672  0.7363144889880  0.8203240572973 1.0
C      1  0.2610078033184  0.4984729517382  0.9397948445453 1.0
C      1  0.6876666869168  0.4498625201579  0.1500327440706 1.0
C      1  0.4257904073430  0.4138800248008  0.1729965990192 1.0
C      1  0.2073211162895  0.6639085547561  0.0656916053390 1.0
C      1  0.6208794329604  0.7686505512912  0.1368481727631 1.0
C      1  0.6625338621115  0.9063921749445  0.6861261512086 1.0
C      1  0.1869849212080  0.3449272808265  0.6441763411610 1.0
C      1  0.1538364246457  0.0670363249106  0.4985133667578 1.0
C      1  0.8137762829305  0.4934537034158  0.2834103388918 1.0
C      1  0.7329688659032  0.2851878391578  0.8707987982030 1.0
C      1  0.5057379569843  0.5925626403365  0.1704886504605 1.0
C      1  0.1841205074093  0.4940288585323  0.8670080508030 1.0
C      1  0.6230859816771  0.1303303024478  0.7901254596092 1.0
C      1  0.0862994441313  0.7143654791667  0.5587236698513 1.0
C      1  0.5633948192172  0.4015158243220  0.3454917803140 1.0
C      1  0.3907025419093  0.1024128132082  0.7863545209859 1.0
C      1  0.5052139957582  0.2358224685700  0.8798499980485 1.0
C      1  0.0627420538846  0.5762720713699  0.3255154538755 1.0
C      1  0.2869080534206  0.2809108637293  0.4440354795908 1.0
C      1  0.0212603302096  0.7331661691761  0.7000486363774 1.0
C      1  0.1170790988258  0.6605135241323  0.3114518084264 1.0
C      1  0.5585404080485  0.8608353296940  0.2320141055347 1.0
C      1  0.3383340834108  0.6278797121339  0.2629798714351 1.0
C      1  0.7452300364449  0.2186327488921  0.2197893767693 1.0
C      1  0.7718423661150  0.8253724649515  0.7878671312659 1.0
C      1  0.1824143643487  0.3856713424065  0.2023391765621 1.0
C      1  0.1872835253378  0.8097272305879  0.3120023119413 1.0
C      1  0.9025861633308  0.7294560783506  0.3189030951196 1.0
C      1  0.4900279665518  0.6866363533559  0.2184547489533 1.0
C      1  0.2659789973156  0.7640763199335  0.1758938190078 1.0
C      1  0.5439452912218  0.0668532994498  0.3525975672414 1.0
C      1  0.9201003558315  0.3827341030784  0.2863605370843 1.0
C      1  0.7378396485630  0.2975057915763  0.6884777755838 1.0
C      1  0.6259837449621  0.3247692398004  0.3411193202177 1.0
C      1  0.6285318708977  0.8012139297107  0.4873392331212 1.0
C      1  0.7514253158051  0.8732945220556  0.7069050368435 1.0
C      1  0.9070743353277  0.6330281087052  0.3085688456102 1.0
C      1  0.3254476138958  0.3738670954211  0.5613173465383 1.0
C      1  0.5456143398384  0.5759114766991  0.5532446218402 1.0
C      1  0.6421318847826  0.2862141086029  0.6739686660281 1.0
C      1  0.3844239675705  0.8145424952813  0.5664043073717 1.0
C      1  0.6344634179630  0.5313125686567  0.0038627583899 1.0
C      1  0.6595771608558  0.8696329454831  0.2410372932236 1.0
C      1  0.4090886501748  0.9067655815805  0.8867258005175 1.0
C      1  0.3673330172796  0.8335083547543  0.4707700283836 1.0
C      1  0.3350977039890  0.7278406656196  0.5671462375770 1.0
C      1  0.7730618429013  0.2098515293810  0.8325893856333 1.0
C      1  0.8106715680871  0.3741388088910  0.1847325599920 1.0
C      1  0.6398256391560  0.2939752102795  0.4334367402268 1.0
C      1  0.3946064117981  0.4026461683561  0.3331090222460 1.0
C      1  0.4373454567952  0.6124653916837  0.7732143656746 1.0
C      1  0.8627639333528  0.2300114556922  0.8077342506206 1.0
C      1  0.5950242092871  0.3105348423429  0.1947359122043 1.0
C      1  0.3623389362106  0.2522662532182  0.3892379627642 1.0
C      1  0.8127095358695  0.5982106884074  0.3070540649278 1.0
C      1  0.2520771818086  0.5213454556099  0.4879863430087 1.0
C      1  0.5924171762942  0.6595530428228  0.7726008169723 1.0
C      1  0.4478339013562  0.6538949572559  0.8642063629804 1.0
C      1  0.5207779426219  0.4056163687948  0.9338774656080 1.0
C      1  0.5344487221730  0.5720661480178  0.3633137742509 1.0
C      1  0.6081064955850  0.6871968726546  0.0967451488173 1.0
C      1  0.9686592122037  0.5712869261064  0.3418856765991 1.0
C      1  0.3559756452873  0.6708803432586  0.7573759342108 1.0
C      1  0.7578835505425  0.1475039535732  0.6910474404043 1.0
C      1  0.9664655112296  0.3167764830221  0.6878459715958 1.0
C      1  0.2502798979633  0.7869173073332  0.8744995445823 1.0
C      1  0.4187555829751  0.2915778404818  0.6674643642945 1.0
C      1  0.9809231203927  0.3144124360088  0.4181672672667 1.0
C      1  0.2943026398054  0.3990350275885  0.3419876380284 1.0
C      1  0.7184927906873  0.1177323114480  0.6138394049157 1.0
C      1  0.2862985204378  0.3010137886567  0.7735463521642 1.0
C      1  0.2704446559164  0.1653975362023  0.7002431595172 1.0
C      1  0.5101444369111  0.4151869577220  0.0256883980254 1.0
C      1  0.3457464443399  0.9073682853371  0.4262058907012 1.0
C      1  0.5687201095042  0.0618549929025  0.6401332078847 1.0
C      1  0.6014096242121  0.4145664858691  0.5593170867225 1.0
C      1  0.2547765639519  0.8244459428918  0.7986314810887 1.0
C      1  0.6104451312765  0.4006291515522  0.1873898008372 1.0
C      1  0.3360663053362  0.5386699388938  0.2720292347348 1.0
C      1  0.2775812772383  0.1884612097164  0.1542607348254 1.0
C      1  0.3508642665876  0.7796609334039  0.3172422512079 1.0
C      1  0.1934772215367  0.5123996598137  0.5746127106362 1.0
C      1  0.0211738221838  0.7333056725202  0.4837658778204 1.0
C      1  0.8830319713334  0.6101965082238  0.7347030109224 1.0
C      1  0.4329031555846  0.3729962897507  0.0738566700504 1.0
C      1  0.1399795022110  0.4221256791930  0.8113560351551 1.0
C      1  0.1912010758218  0.7966684390722  0.6575712914926 1.0
C      1  0.5594416384847  0.0782221417638  0.7330319360907 1.0
C      1  0.2688267667522  0.2032221170246  0.7968568079166 1.0
C      1  0.3615090504687  0.0254647159394  0.6455437471819 1.0
C      1  0.5000326068784  0.9718786339418  0.3424340509903 1.0
C      1  0.5401544541029  0.0757631836624  0.4544444734005 1.0
C      1  0.2605939664516  0.7588768302407  0.2754738258928 1.0
C      1  0.6231228314604  0.4506669543034  0.4204468721240 1.0
C      1  0.7615837749896  0.3877782751020  0.4834981645514 1.0
C      1  0.8252366595794  0.2784851981326  0.2156167958672 1.0
C      1  0.4645936485990  0.1383641714405  0.4671136658882 1.0
C      1  0.2390796270458  0.3606040454534  0.4174174957892 1.0
C      1  0.4740414723369  0.3813774627860  0.3906519047933 1.0
C      1  0.4559240725739  0.2886344808185  0.4284174324609 1.0
C      1  0.6368312569312  0.5265303828789  0.1042435964859 1.0
C      1  0.6992224169854  0.7216710349609  0.6219168068723 1.0
C      1  0.7027234771698  0.0943640549261  0.4630894449190 1.0
C      1  0.5998057093347  0.2153674671100  0.4489327111330 1.0
C      1  0.1841068770932  0.1677631195703  0.6396219982056 1.0
C      1  0.6103580270353  0.1379917540856  0.0509812283133 1.0
C      1  0.8897091321164  0.2599215848240  0.7278149518990 1.0
C      1  0.3590822425349  0.1449542435825  0.1367361582815 1.0
C      1  0.6212284192953  0.1334637498530  0.5973272713409 1.0
C      1  0.2068532548056  0.1093358289322  0.4236611668348 1.0
C      1  0.1813601066434  0.4800781858697  0.2394221006456 1.0
C      1  0.7960505124234  0.5412134776748  0.5519015606769 1.0
C      1  0.7094124536841  0.0574373060437  0.3766843423076 1.0
C      1  0.2302209464476  0.3574679782757  0.1277255645546 1.0
C      1  0.9261503786709  0.6532316730464  0.5921456591626 1.0
C      1  0.3200797857505  0.2614002274386  0.6831629048012 1.0
C      1  0.1143015737851  0.5209466864585  0.3976598337549 1.0
C      1  0.5489180455930  0.1135669906101  0.1819919574629 1.0
C      1  0.7027767038363  0.8242966761729  0.4240983335904 1.0
C      1  0.1775094801053  0.2912707400254  0.2358571179844 1.0
C      1  0.3950992703564  0.4893013180961  0.8630055564972 1.0
C      1  0.2143881749551  0.3767750632044  0.7427782055793 1.0
C      1  0.2026872444267  0.6264312986462  0.6969384263025 1.0
C      1  0.4378152792542  0.1687097652015  0.5579442724880 1.0
C      1  0.6379741058546  0.0978671300210  0.2214519086117 1.0
C      1  0.8510424263957  0.1853338388794  0.4118531501252 1.0
C      1  0.6931004898651  0.4112193527862  0.8982091708954 1.0
C      1  0.2234024297756  0.8941280204408  0.3300260751867 1.0
C      1  0.4149797501550  0.7547758750239  0.7319978744709 1.0
C      1  0.5566421041395  0.8783868127600  0.8088870085330 1.0
C      1  0.6906488886645  0.1366936726362  0.0782575979721 1.0
C      1  0.7041768186125  0.4806221073627  0.9549300898262 1.0
C      1  0.7100265192130  0.1446910807502  0.1718514118422 1.0
C      1  0.0308611657108  0.2697389511995  0.6291468761484 1.0
C      1  0.4167297465195  0.3181332531223  0.2113611170981 1.0
C      1  0.3481797031166  0.1728660485410  0.8374387175077 1.0
C      1  0.7259682989878  0.4519759073833  0.7116019697161 1.0
C      1  0.5470215806361  0.6645521148644  0.0262275998892 1.0
C      1  0.6304698331034  0.7505617159921  0.5720922131418 1.0
C      1  0.9667824170049  0.5017802891809  0.6157134992306 1.0
C      1  0.6412180565614  0.5831957150617  0.5790496446042 1.0
C      1  0.6292150744408  0.5350189447863  0.6635030676324 1.0
C      1  0.8418216490405  0.1599336737491  0.5099438887523 1.0
C      1  0.3018139692180  0.0766263272427  0.4061161025304 1.0
C      1  0.5542733493998  0.3161818795366  0.8978178715779 1.0
C      1  0.8435585330935  0.4359583416703  0.8886480403338 1.0
C      1  0.8476407157475  0.6781653415990  0.4757025057306 1.0
C      1  0.5423070465137  0.1549435673228  0.8458745699482 1.0
C      1  0.5536492052592  0.7653745502302  0.2131685543357 1.0
C      1  0.8173474244385  0.4707091992197  0.5006620461335 1.0
C      1  0.6451378353784  0.4381019209265  0.6469903140761 1.0
C      1  0.8465543694161  0.4235690247759  0.3498172571002 1.0
C      1  0.9494437058665  0.6771086648455  0.4949526676812 1.0
C      1  0.3386222164137  0.5209546947574  0.6922773529505 1.0
C      1  0.0560748355814  0.4557006134539  0.7857539444860 1.0
C      1  0.9349988752629  0.5786412266240  0.6596833396047 1.0
C      1  0.7804305358275  0.7801876102950  0.1412164133898 1.0
C      1  0.2511664090751  0.6624253536668  0.2844931477536 1.0
C      1  0.7105631599038  0.3608543939351  0.3048264258637 1.0
C      1  0.5490699584496  0.5007674320375  0.0513086275199 1.0
C      1  0.2845953496518  0.2468543888210  0.5304698739899 1.0
C      1  0.5712783306295  0.6949520096481  0.2833893745598 1.0
C      1  0.2726009829887  0.3055195180533  0.6091221050740 1.0
C      1  0.3508084456447  0.1792993564278  0.5287938928587 1.0
C      1  0.9944139610074  0.3900570781094  0.3508875956530 1.0
C      1  0.0607494405182  0.7989357403643  0.4172617954470 1.0
C      1  0.4895375842826  0.4780516487948  0.7181357314082 1.0
C      1  0.0296497148922  0.5335765656767  0.5474855964537 1.0
C      1  0.8387475626244  0.2341877674734  0.5673814193743 1.0
C      1  0.3176577989956  0.5580165277209  0.8733701604320 1.0
C      1  0.4691360331956  0.8524052173324  0.8509692065926 1.0
C      1  0.2860670339694  0.7135325876281  0.9185463229158 1.0
C      1  0.4894857282258  0.2364519792366  0.6090186754418 1.0
C      1  0.6163239767826  0.1297547928535  0.4944709014524 1.0
C      1  0.4083871236320  0.2447720226989  0.8636914691007 1.0
C      1  0.7160407464975  0.5834951761170  0.4300490412418 1.0
C      1  0.5323513125962  0.5487324351210  0.6622327130210 1.0
C      1  0.9521389239058  0.4168695415358  0.6602443616479 1.0
C      1  0.2280997043254  0.2639511231543  0.1563524483507 1.0
C      1  0.8070987463088  0.8256222466304  0.4329040709478 1.0
C      1  0.8181213331961  0.6868628944108  0.8512267736434 1.0
C      1  0.5395991208796  0.9885534169049  0.4925881308585 1.0
C      1  0.8898892176406  0.4468427570485  0.4401209793320 1.0
C      1  0.3963006406002  0.7105419539485  0.2386416656575 1.0
C      1  0.5145767542765  0.5832736072804  0.9025766881006 1.0
C      1  0.3428279986851  0.6553924234455  0.8622009143480 1.0
C      1  0.8346767967948  0.4686244749696  0.0579369321373 1.0
C      1  0.7153638641052  0.1497205414485  0.7784727608867 1.0
C      1  0.5155391740927  0.6313706488995  0.7152155352880 1.0
C      1  0.1867063985109  0.4220578822797  0.5761615810152 1.0
C      1  0.2605539341996  0.8422175158083  0.7082176920622 1.0
C      1  0.1704756468098  0.6469515970997  0.2201984890788 1.0
C      1  0.5039804712475  0.1552194090099  0.3248751617989 1.0
C      1  0.2576916145081  0.4907696011993  0.3120092951561 1.0
C      1  0.5951197315142  0.6141500824594  0.9524597202950 1.0
C      1  0.0714474784577  0.2986756924744  0.4572018115782 1.0
C      1  0.6425233513804  0.6240075522143  0.2498845415833 1.0
C      1  0.9149254534736  0.2452768539739  0.3665299025606 1.0
C      1  0.1416004109381  0.3262281998556  0.3856652019910 1.0
C      1  0.5995073444547  0.3689355843438  0.7008816065011 1.0
C      1  0.8569854790007  0.6005937595514  0.8255908150744 1.0
C      1  0.0516029902302  0.5598309180170  0.8051966826465 1.0
C      1  0.3585261669768  0.8469986177170  0.6667115496927 1.0
C      1  0.4861653397797  0.4925584663436  0.2151643227753 1.0
C      1  0.4945686267887  0.9189671272985  0.2600903207083 1.0
C      1  0.4907422064540  0.5836481612313  0.0714647450728 1.0
C      1  0.3674498565535  0.7038239552224  0.0636374918708 1.0
C      1  0.4477801721401  0.6613591426829  0.0312196682296 1.0
C      1  0.6628275516330  0.6020278343948  0.8024446568201 1.0
C      1  0.2844026158437  0.6929053876793  0.0122585375716 1.0
C      1  0.2198623774160  0.6926055965889  0.4501694340987 1.0
C      1  0.7742446973867  0.7104542322217  0.1910212006234 1.0
C      1  0.2111028044218  0.5412802633810  0.3958262798905 1.0
C      1  0.6721813292339  0.2795312894670  0.2550163883421 1.0
C      1  0.6613131237830  0.9375756523498  0.5982487949291 1.0
C      1  0.5207575065192  0.3931042837615  0.7385286166706 1.0
C      1  0.8310230535066  0.7528091549558  0.7859900686472 1.0
C      1  0.8952117049394  0.2850718202492  0.2761169399323 1.0
C      1  0.7625765049856  0.3764153606917  0.7459550147841 1.0
C      1  0.5048015820271  0.2709283954495  0.2022250689331 1.0
C      1  0.4708164131069  0.7534641534781  0.8242846613084 1.0
C      1  0.8859819952955  0.4379955900905  0.2060477154881 1.0
C      1  0.5685687914599  0.4593256553808  0.2592913356647 1.0
C      1  0.4635064374691  0.5281561322214  0.4170511167163 1.0
END
