TITL C-42199-6866-9 -8.265 3375.00 -1462.74421368 0 0 180 (C1) n - 1
REM
REM Run started: at 2020.12.24 21:40:38 in /rds/project/t2_vol4/rds-t2-cs072/BORA/CARBON/AIRSS/Generating-Clusters/Str-Search/Higher-Symm/Only-C180
REM VASP from code version vasp.5.4.4.18Apr17-6-g9f103f2a35 (build Oct 11 2019 16:45:47) gamma-only
REM
REM
REM
REM
REM ./C.cell (f712cfaf3acf65fd2d5dcba0fd1fd40b)
REM AIRSS Version 0.9.1 bugfix July 2018 build 013d7b7c2542+ Fri, 06 Jul 2018 19:26:36 +0100
REM compiler GCC version 4.8.5 20150623 (Red Hat 4.8.5-39)
REM options -cpp -mtune=generic -march=x86-64 -g -O0
REM seed 1011635904 -939948340 1633756310 1853510215 84479675 -1599731506 1310819968 1399174614 65570984 374320524 1609392859 551560768
REM
REM C.POTCAR (d86ddea03c3ceb6dc662c8ad6801f873)
REM 
CELL 1.54180   15.00000   15.00000   15.00000   90.00000   90.00000   90.00000
LATT -1
SFAC C  
C      1  0.4046151767320  0.1259626409747  0.3599707435202 1.0
C      1  0.8456644064496  0.5024844761192  0.6725859238280 1.0
C      1  0.7082776975238  0.6911035934052  0.7841832719152 1.0
C      1  0.4021978711327  0.4377330354139  0.6655037073640 1.0
C      1  0.6084939302412  0.8093084848543  0.6343645143927 1.0
C      1  0.7632332407220  0.6079385131637  0.2281134578368 1.0
C      1  0.5569499244261  0.6477728719960  0.3123126274710 1.0
C      1  0.7043927187780  0.4893550774969  0.7460258901533 1.0
C      1  0.2669267813074  0.2607818277562  0.7004818012264 1.0
C      1  0.2037048821003  0.7488910322546  0.4932612110573 1.0
C      1  0.3368055877447  0.8762029907488  0.4204197584919 1.0
C      1  0.6159453812511  0.8471748576418  0.3965721827131 1.0
C      1  0.1799341347940  0.5359128343129  0.8182582501515 1.0
C      1  0.8234117777180  0.6989125352579  0.6739149807102 1.0
C      1  0.5321929720908  0.5657604125885  0.8036940564619 1.0
C      1  0.8457637923998  0.5425944440991  0.3587546762786 1.0
C      1  0.1334674691046  0.5873896470189  0.4397972128765 1.0
C      1  0.6556192193761  0.2834589758075  0.4297417745157 1.0
C      1  0.2540519012023  0.4272548669606  0.2508352993400 1.0
C      1  0.5911451388121  0.4583954853536  0.1887625548345 1.0
C      1  0.5483076160051  0.8069405870161  0.3408069854632 1.0
C      1  0.4078369899045  0.4594643391818  0.3541945648517 1.0
C      1  0.5226994001181  0.7688145696164  0.6706788564423 1.0
C      1  0.5799506458486  0.5603855708894  0.4274992036592 1.0
C      1  0.3408008206019  0.4933193055462  0.7170638751435 1.0
C      1  0.5540427467730  0.1714187299061  0.2972667295425 1.0
C      1  0.5151737167704  0.5994787878094  0.6107117249955 1.0
C      1  0.3281096895892  0.6657581161773  0.5303480102454 1.0
C      1  0.4171065236901  0.1603628930398  0.7051040609322 1.0
C      1  0.1597886617233  0.6377941252494  0.6194331652586 1.0
C      1  0.2969745165455  0.7508851989299  0.5184773923213 1.0
C      1  0.5443731663205  0.6585586264476  0.4156196310459 1.0
C      1  0.1489678491024  0.3893108351332  0.5808440737496 1.0
C      1  0.5804501325067  0.5471035673715  0.3282405702072 1.0
C      1  0.2539694474800  0.6000264778134  0.5258215709916 1.0
C      1  0.4159426870578  0.3316389742325  0.7191061998220 1.0
C      1  0.1025655988130  0.4546093992316  0.5287019530203 1.0
C      1  0.1666257801735  0.6549587290792  0.5133781667544 1.0
C      1  0.4558905621448  0.6767297846517  0.1649454047603 1.0
C      1  0.7674107476945  0.3707633043305  0.4864066135272 1.0
C      1  0.6970543732726  0.6685624029467  0.1932083264267 1.0
C      1  0.5940587022988  0.2991190822381  0.6722222082401 1.0
C      1  0.5783237898774  0.5428905015889  0.1436599318788 1.0
C      1  0.3270736136477  0.4991346199338  0.2973969897902 1.0
C      1  0.5023822182694  0.4783871519039  0.8356731427260 1.0
C      1  0.2156101370066  0.5782521584310  0.1788259071323 1.0
C      1  0.3209131448370  0.1737302442338  0.4690189865454 1.0
C      1  0.6024574820440  0.8044427980983  0.7243263084637 1.0
C      1  0.7507786486471  0.1641528645002  0.4121229133893 1.0
C      1  0.8936068147609  0.5403163197700  0.5002296622755 1.0
C      1  0.7035204088599  0.4271787932532  0.3395629446744 1.0
C      1  0.7901308442638  0.7345520959944  0.5167371814854 1.0
C      1  0.3664387733721  0.3118428219192  0.5090389602499 1.0
C      1  0.7732435261240  0.5453204151257  0.7140099693972 1.0
C      1  0.8276929278111  0.6897499723699  0.4356663332087 1.0
C      1  0.7292222043417  0.5846635965908  0.4868069012252 1.0
C      1  0.2037786356008  0.7613406162384  0.7299894726043 1.0
C      1  0.8122142233672  0.7062173633702  0.3445305796323 1.0
C      1  0.4796763450933  0.7445706831097  0.2384518501573 1.0
C      1  0.3836018105517  0.3735103445687  0.3707556265469 1.0
C      1  0.1107804859046  0.4936040784709  0.4457556060146 1.0
C      1  0.3208729622843  0.3847365517807  0.1923466679269 1.0
C      1  0.8303502347320  0.6266685255398  0.2942701773661 1.0
C      1  0.9317336373122  0.3635949289023  0.5190455224783 1.0
C      1  0.5574058287794  0.4301663848056  0.7628830461273 1.0
C      1  0.3719180515121  0.7636057086496  0.7411474720747 1.0
C      1  0.5775095441482  0.8271339581038  0.4834524299809 1.0
C      1  0.5457223086707  0.3725953311660  0.1840705334199 1.0
C      1  0.6369659424650  0.4276139137345  0.5007599048808 1.0
C      1  0.4003975214373  0.6198965743923  0.2272642274938 1.0
C      1  0.4092618686928  0.2919456810179  0.4241638831493 1.0
C      1  0.2724132862899  0.5444737969090  0.6884189640050 1.0
C      1  0.2869174968613  0.3674855783338  0.4893115384816 1.0
C      1  0.9259883040489  0.4007354110371  0.4304974837281 1.0
C      1  0.9220384790040  0.4133637687372  0.5969979563439 1.0
C      1  0.2424518146327  0.8859204838478  0.4206894964596 1.0
C      1  0.4882117475756  0.5249397369110  0.3757714365962 1.0
C      1  0.1894707675246  0.4987241860251  0.2161241050016 1.0
C      1  0.1411334264050  0.4464392497770  0.3617797146225 1.0
C      1  0.8578145243512  0.4060808644144  0.6721319972281 1.0
C      1  0.7094930385164  0.3945042763160  0.7341775981813 1.0
C      1  0.6603666568290  0.1484333926420  0.5461353766680 1.0
C      1  0.3939239374122  0.6767450974431  0.7871067126130 1.0
C      1  0.4364943454738  0.5610081090422  0.5567203462915 1.0
C      1  0.5703760913426  0.1181313310814  0.6924820145441 1.0
C      1  0.6423060684675  0.5297093806873  0.4985699719017 1.0
C      1  0.9017525109634  0.5071065282371  0.5883797669679 1.0
C      1  0.2121155117203  0.3896307216900  0.3353282765998 1.0
C      1  0.3400546982358  0.5041536586489  0.8184801497442 1.0
C      1  0.7040237485950  0.3784985316613  0.5589645128534 1.0
C      1  0.3279158106338  0.6119970763640  0.8092650217532 1.0
C      1  0.5630122341359  0.5239602882085  0.6562021505763 1.0
C      1  0.5014602710240  0.2051571764920  0.8243490026023 1.0
C      1  0.8403175307917  0.7359736826897  0.6027030979885 1.0
C      1  0.2826585960562  0.3432029588368  0.3872161631751 1.0
C      1  0.1859641016726  0.8280719758947  0.4474209819353 1.0
C      1  0.6362851178080  0.2429892291633  0.5201533799502 1.0
C      1  0.4569029056820  0.6574102542381  0.3002162460821 1.0
C      1  0.6427687071916  0.4823037926261  0.2719009216063 1.0
C      1  0.7320917095509  0.5236426560359  0.2486994113726 1.0
C      1  0.7901357655275  0.1980888952872  0.5804865553072 1.0
C      1  0.7511030899544  0.1526768188940  0.5058056280227 1.0
C      1  0.3831825836927  0.5247263473578  0.2180553930019 1.0
C      1  0.7385571021376  0.7678681256205  0.3219473921898 1.0
C      1  0.2304290658531  0.3145418801197  0.7661451464123 1.0
C      1  0.5611451250721  0.2868156328288  0.4690320882423 1.0
C      1  0.2421587636932  0.4700585668304  0.8392533834120 1.0
C      1  0.4508243480894  0.6229276873935  0.3974182152728 1.0
C      1  0.5175330895790  0.3720929046511  0.5995678108293 1.0
C      1  0.8541491301311  0.3466581907047  0.4671776046291 1.0
C      1  0.9157902173505  0.4951317724783  0.4189224044207 1.0
C      1  0.6177765110645  0.1163385204512  0.6235699807128 1.0
C      1  0.3978311208877  0.8424453967672  0.5911265765808 1.0
C      1  0.2293494502687  0.3798371530192  0.8189908104981 1.0
C      1  0.2158300013932  0.5533637406440  0.6106292302816 1.0
C      1  0.4887149133172  0.2934391261115  0.6494225225974 1.0
C      1  0.6806407437689  0.6380636071100  0.6214631617288 1.0
C      1  0.6247389853737  0.6262000303995  0.1497269645371 1.0
C      1  0.2820098226970  0.7857177841312  0.7434612480886 1.0
C      1  0.6908753168654  0.3799225658323  0.4239177002222 1.0
C      1  0.2566425075460  0.2627398269548  0.6053635796617 1.0
C      1  0.7597656948822  0.2640966004095  0.6355927932926 1.0
C      1  0.1829876075551  0.6735297446597  0.7015577598806 1.0
C      1  0.2382396155988  0.6573556769819  0.2040798133558 1.0
C      1  0.7061482102286  0.8199055582760  0.3987885229799 1.0
C      1  0.4975833837124  0.1591026234215  0.3731119197683 1.0
C      1  0.3393996105281  0.2287270224951  0.5556987221372 1.0
C      1  0.6601932991898  0.7583104927613  0.7792833389252 1.0
C      1  0.3551685319363  0.8288717523046  0.5124470350156 1.0
C      1  0.4548041459746  0.3755922530730  0.1577220422044 1.0
C      1  0.4844592339385  0.6386026913711  0.7670935908148 1.0
C      1  0.4994642699936  0.1455834354766  0.7505157695657 1.0
C      1  0.7496393517091  0.6428275007545  0.7075757302305 1.0
C      1  0.6334367795140  0.2184897270085  0.2836952002333 1.0
C      1  0.5799504174937  0.7412672493765  0.2718442855231 1.0
C      1  0.6059383763698  0.5194564569180  0.7479157441803 1.0
C      1  0.3248020192020  0.4613506186110  0.5015638553293 1.0
C      1  0.4155395787194  0.2149441917874  0.6243396138974 1.0
C      1  0.5070601106087  0.4429906385237  0.6687432513573 1.0
C      1  0.3893081370632  0.8611514850079  0.3469002441333 1.0
C      1  0.5118555596493  0.6709289706460  0.6793597350289 1.0
C      1  0.6459397419114  0.8203651980311  0.5483418529603 1.0
C      1  0.6123520393030  0.5714057642680  0.5867581801111 1.0
C      1  0.4276631124399  0.8023793039553  0.6690268233426 1.0
C      1  0.4257411400639  0.3518918491471  0.8176948158117 1.0
C      1  0.4700933322075  0.2777333401639  0.8543001027461 1.0
C      1  0.8217526365983  0.5901613235534  0.4495035467396 1.0
C      1  0.3856104119480  0.3145437147473  0.1896697497905 1.0
C      1  0.7853587693893  0.3483376332781  0.6886137153839 1.0
C      1  0.2328755936128  0.6018425512243  0.7612741294902 1.0
C      1  0.7261793710344  0.8083191410674  0.4930263441520 1.0
C      1  0.3886715929890  0.4498069580034  0.1641264431134 1.0
C      1  0.2183754907509  0.3307226820668  0.5562822959331 1.0
C      1  0.4180029017595  0.4462045519633  0.8472215794833 1.0
C      1  0.3188787410653  0.2419356987210  0.3860454029431 1.0
C      1  0.3077644507853  0.6446049838233  0.2653090270466 1.0
C      1  0.6922828272953  0.2171726665681  0.3656463927877 1.0
C      1  0.5304680136612  0.6287401446048  0.1356871430933 1.0
C      1  0.5004021105153  0.2188343446225  0.2286732265663 1.0
C      1  0.4074489738760  0.2348892244788  0.2352393232089 1.0
C      1  0.3579408609537  0.1933120439736  0.3087255079856 1.0
C      1  0.5715838599906  0.2824786756697  0.2181676328552 1.0
C      1  0.3922467704325  0.6087372034961  0.4787829043676 1.0
C      1  0.7761525464697  0.4815691856117  0.3201626168000 1.0
C      1  0.4914166067176  0.2374479489738  0.4267333893830 1.0
C      1  0.7256722386606  0.6578560547169  0.5430024149957 1.0
C      1  0.6787541767841  0.7443133475386  0.2501460758719 1.0
C      1  0.3700328236777  0.1006491696655  0.4448540544128 1.0
C      1  0.4568333935401  0.8275313894448  0.3006470606503 1.0
C      1  0.5438054830348  0.7577447693321  0.4312226076490 1.0
C      1  0.1752064234257  0.5906412047368  0.3522579313066 1.0
C      1  0.1544010749806  0.4783473658214  0.6020174470687 1.0
C      1  0.3885182457812  0.4786863932030  0.5701968602476 1.0
C      1  0.5509562171595  0.3769782689075  0.5140634252801 1.0
C      1  0.1444928511187  0.5175269680615  0.2979281592050 1.0
C      1  0.6211130289140  0.3567106482169  0.7409928909858 1.0
C      1  0.3642117681242  0.2441689621374  0.7098098019207 1.0
C      1  0.6675132362256  0.2944452425600  0.6019516765070 1.0
C      1  0.2786285667310  0.5820125896250  0.3476914252953 1.0
C      1  0.3082948363903  0.5532119289531  0.4531036472969 1.0
END
