TITL C-44656-9668-17 -3.087 3375.00 -509.86656169 0 0 64 (C1) n - 1
REM
REM Run started: at 2020.11.27 09:27:35 in /rds/project/t2_vol4/rds-t2-cs072/BORA/CARBON/AIRSS/Generating-Clusters/Str-Search/Higher-Symm/C10-100
REM VASP from code version vasp.5.4.4.18Apr17-6-g9f103f2a35 (build Oct 11 2019 16:45:47) gamma-only
REM
REM
REM
REM
REM ./C.cell (f39ce9773e2efe3fa5bbdf770a4156b8)
REM AIRSS Version 0.9.1 bugfix July 2018 build 013d7b7c2542+ Fri, 06 Jul 2018 19:26:36 +0100
REM compiler GCC version 4.8.5 20150623 (Red Hat 4.8.5-39)
REM options -cpp -mtune=generic -march=x86-64 -g -O0
REM seed -1382268708 -1718300048 -139321448 854897124 -426245822 -1941727125 -1891660828 404378600 323862507 739652138 -1469234840 1868360408
REM
REM C.POTCAR (d86ddea03c3ceb6dc662c8ad6801f873)
REM 
CELL 1.54180   15.00000   15.00000   15.00000   90.00000   90.00000   90.00000
LATT -1
SFAC C  
C      1  0.3597089447380  0.6448996590496  0.4217945672667 1.0
C      1  0.6383520468797  0.6369766119843  0.4214995794099 1.0
C      1  0.4984257389099  0.6506717042570  0.6620160541871 1.0
C      1  0.3609770819657  0.6511250365387  0.5835052741922 1.0
C      1  0.6394402100976  0.6415864466278  0.5807025662438 1.0
C      1  0.4961906067892  0.6400269513731  0.3417014814058 1.0
C      1  0.5582602225127  0.4396880635285  0.2178348831370 1.0
C      1  0.6769297834488  0.4279933217486  0.6866271798866 1.0
C      1  0.2248722979808  0.4495121324880  0.5928203128470 1.0
C      1  0.5499663418161  0.4476045270141  0.7770545553333 1.0
C      1  0.6820556065737  0.4220532672149  0.3121145082851 1.0
C      1  0.2470931894932  0.4337159144940  0.4398296342926 1.0
C      1  0.4176289482770  0.5688438633153  0.4595672582115 1.0
C      1  0.5744901962840  0.5650359990549  0.4578861406075 1.0
C      1  0.4972102766094  0.5718695874271  0.5959138438401 1.0
C      1  0.4173276157492  0.5716658740802  0.5505713029940 1.0
C      1  0.5750568124112  0.5679266803891  0.5494011330686 1.0
C      1  0.4961637305319  0.5649123227480  0.4119743229420 1.0
C      1  0.5196099345666  0.3639807921180  0.2615465102994 1.0
C      1  0.7066878812619  0.3957316257464  0.6072830470291 1.0
C      1  0.2866845709642  0.3761601758161  0.6017152038586 1.0
C      1  0.5102542181526  0.3738858002952  0.7302103714934 1.0
C      1  0.7092570500905  0.3901395336486  0.3922718581809 1.0
C      1  0.3068311600246  0.3970807023187  0.3824109647027 1.0
C      1  0.2437847846630  0.5302342407964  0.4593187159899 1.0
C      1  0.6651458577513  0.5198443510820  0.3017265599040 1.0
C      1  0.5770731332535  0.5380079599709  0.7551251585083 1.0
C      1  0.2373510824236  0.5406074127322  0.5614527635761 1.0
C      1  0.6636033867469  0.5261720899985  0.7008054742059 1.0
C      1  0.5788457175967  0.5298700048465  0.2464678077736 1.0
C      1  0.3772051211210  0.3428760178615  0.3735383558678 1.0
C      1  0.6723724828001  0.3265168980784  0.4507145975364 1.0
C      1  0.4550277258610  0.3320190197175  0.6702585688748 1.0
C      1  0.3672801089141  0.3367731439665  0.6171041913643 1.0
C      1  0.6703144879232  0.3295083665507  0.5509217455594 1.0
C      1  0.4633625108014  0.3244988100178  0.3217041160851 1.0
C      1  0.4214719738923  0.6121501981003  0.2814668926789 1.0
C      1  0.7260122620548  0.6034399485683  0.5476094315676 1.0
C      1  0.3440212772913  0.6273055092178  0.6792499021824 1.0
C      1  0.4239985836831  0.6262031071604  0.7246664991998 1.0
C      1  0.7254013179671  0.6014017550001  0.4554647327294 1.0
C      1  0.3424473057129  0.6108376753232  0.3286670441804 1.0
C      1  0.6991229837614  0.5909504197492  0.6419240759405 1.0
C      1  0.2768273397726  0.6083731537024  0.6114955906904 1.0
C      1  0.5141289038405  0.5953165774449  0.2563952661177 1.0
C      1  0.6977406678637  0.5843736765749  0.3620282755441 1.0
C      1  0.2772180402658  0.5948865693110  0.3993323245162 1.0
C      1  0.5162932540821  0.6083948733314  0.7491445864278 1.0
C      1  0.5020538325882  0.7271433937285  0.5951291367461 1.0
C      1  0.4170928043227  0.7244442243829  0.4514784568494 1.0
C      1  0.5845919407335  0.7195772936631  0.4508260410232 1.0
C      1  0.5007899416427  0.7206057521273  0.4035743245050 1.0
C      1  0.4180405014551  0.7276663210526  0.5474230380758 1.0
C      1  0.5855515439140  0.7225516781191  0.5471954723685 1.0
C      1  0.5786110740093  0.2838534873982  0.5496014688530 1.0
C      1  0.4144214435716  0.2922719506893  0.5435352927139 1.0
C      1  0.4997221749219  0.2832328136722  0.4023728328880 1.0
C      1  0.5811056272801  0.2803383927190  0.4507087112135 1.0
C      1  0.4187206711613  0.2967176542665  0.4514707702787 1.0
C      1  0.4956864019635  0.2850462244514  0.5950777146329 1.0
C      1  0.6065369740467  0.3845827166012  0.7404472584325 1.0
C      1  0.6160687399846  0.3772303716471  0.2534275153802 1.0
C      1  0.2253090467165  0.3866378230950  0.5246937035788 1.0
C      1  0.5901637055169  0.3797390300076  0.4977220317249 1.0
END
