TITL C-44656-9668-37 -1.035 3375.00 -155.77470745 0 0 20 (C1) n - 1
REM
REM Run started: at 2020.11.27 16:11:02 in /rds/project/t2_vol4/rds-t2-cs072/BORA/CARBON/AIRSS/Generating-Clusters/Str-Search/Higher-Symm/C10-100
REM VASP from code version vasp.5.4.4.18Apr17-6-g9f103f2a35 (build Oct 11 2019 16:45:47) gamma-only
REM
REM
REM
REM
REM ./C.cell (f39ce9773e2efe3fa5bbdf770a4156b8)
REM AIRSS Version 0.9.1 bugfix July 2018 build 013d7b7c2542+ Fri, 06 Jul 2018 19:26:36 +0100
REM compiler GCC version 4.8.5 20150623 (Red Hat 4.8.5-39)
REM options -cpp -mtune=generic -march=x86-64 -g -O0
REM seed -910620367 -308672301 1662540358 -1618160108 -358900454 -510124132 -1030227289 -358994203 -2023247572 -274034226 1864255439 -1393431886
REM
REM C.POTCAR (d86ddea03c3ceb6dc662c8ad6801f873)
REM 
CELL 1.54180   15.00000   15.00000   15.00000   90.00000   90.00000   90.00000
LATT -1
SFAC C  
C      1  0.6574771152288  0.4375578443611  0.4911224923672 1.0
C      1  0.6581189979595  0.5425367445398  0.4461445931478 1.0
C      1  0.6137859459871  0.5425770351963  0.5908433101820 1.0
C      1  0.4656225063540  0.3891592536363  0.6426689461210 1.0
C      1  0.4520437822267  0.4388802639225  0.3546276876203 1.0
C      1  0.4664202370196  0.6852730738882  0.5154217696649 1.0
C      1  0.3827246591787  0.4160526914864  0.6242251957539 1.0
C      1  0.3690651041521  0.4519410588002  0.3859822488563 1.0
C      1  0.3839029702430  0.6519311872123  0.5213627894335 1.0
C      1  0.6195912640694  0.6019544538787  0.5196432648064 1.0
C      1  0.6183259570102  0.4500683866768  0.5846466566928 1.0
C      1  0.6092732562645  0.4664891674576  0.4130720874112 1.0
C      1  0.5336511689654  0.4457899513875  0.3663045935439 1.0
C      1  0.5447409444320  0.6544008457714  0.5116368640188 1.0
C      1  0.5437383916540  0.4076326766769  0.6171458026589 1.0
C      1  0.3114423897455  0.4757277524683  0.4402612417642 1.0
C      1  0.3133304220599  0.6070442351663  0.5315710770060 1.0
C      1  0.3117514582961  0.4537237038886  0.5988541614359 1.0
C      1  0.3022012979224  0.5136828818582  0.5266982748573 1.0
C      1  0.7362992312310  0.4820843917265  0.4513191426578 1.0
END
