TITL C-44656-9668-11 -1.551 3375.00 -233.14343293 0 0 30 (C1) n - 1
REM
REM Run started: at 2020.11.27 07:57:30 in /rds/project/t2_vol4/rds-t2-cs072/BORA/CARBON/AIRSS/Generating-Clusters/Str-Search/Higher-Symm/C10-100
REM VASP from code version vasp.5.4.4.18Apr17-6-g9f103f2a35 (build Oct 11 2019 16:45:47) gamma-only
REM
REM
REM
REM
REM ./C.cell (f39ce9773e2efe3fa5bbdf770a4156b8)
REM AIRSS Version 0.9.1 bugfix July 2018 build 013d7b7c2542+ Fri, 06 Jul 2018 19:26:36 +0100
REM compiler GCC version 4.8.5 20150623 (Red Hat 4.8.5-39)
REM options -cpp -mtune=generic -march=x86-64 -g -O0
REM seed -1787504051 -1409001301 -525854079 532422743 -920564166 1201830486 379348753 1939363845 -1375156118 -371864320 -18107939 -856566762
REM
REM C.POTCAR (d86ddea03c3ceb6dc662c8ad6801f873)
REM 
CELL 1.54180   15.00000   15.00000   15.00000   90.00000   90.00000   90.00000
LATT -1
SFAC C  
C      1  0.5539157667670  0.6081414050906  0.3465440911965 1.0
C      1  0.6573280336882  0.6176140811961  0.5541691397547 1.0
C      1  0.4575462601749  0.6395877332247  0.6565005698908 1.0
C      1  0.3596860912178  0.6699130406909  0.4402834615241 1.0
C      1  0.5571895796153  0.3880247566406  0.3463158723720 1.0
C      1  0.6608766768435  0.3819713149418  0.5548581565607 1.0
C      1  0.4627973623243  0.3575262950172  0.6571032165044 1.0
C      1  0.3649529353823  0.3228923987845  0.4409179197460 1.0
C      1  0.5343138184305  0.5878324725561  0.6749459231467 1.0
C      1  0.3641076015499  0.6365532394916  0.5285823269546 1.0
C      1  0.4639573695628  0.5851657010094  0.3274208490581 1.0
C      1  0.6703251103022  0.5851374201758  0.4664263646508 1.0
C      1  0.5378258016848  0.4115302324502  0.6756727929602 1.0
C      1  0.3695059042980  0.3569687865388  0.5287987140713 1.0
C      1  0.4667221814430  0.4090033992101  0.3271574593717 1.0
C      1  0.6725757100504  0.4133165743289  0.4664670334811 1.0
C      1  0.6092387974829  0.6105088975038  0.6215015356915 1.0
C      1  0.3941736216489  0.6717057165638  0.6109325016256 1.0
C      1  0.4007129735287  0.6373270227895  0.3741843431382 1.0
C      1  0.6245138540194  0.6156498453907  0.3896451258365 1.0
C      1  0.6132945411135  0.3902893582631  0.6224398788759 1.0
C      1  0.4008281809976  0.3233317989359  0.6112324915456 1.0
C      1  0.4045602142919  0.3558583622227  0.3741331771795 1.0
C      1  0.6275200237676  0.3809612602680  0.3899073848084 1.0
C      1  0.3805340328084  0.5418663580863  0.5262546333255 1.0
C      1  0.7010690104630  0.4996361667227  0.4606275574371 1.0
C      1  0.5154166104379  0.4993367486617  0.6971262655436 1.0
C      1  0.4375973628203  0.4967090998707  0.3157654545853 1.0
C      1  0.3825207830459  0.4521071638740  0.5261667280161 1.0
C      1  0.4641836902391  0.4987550494999  0.5097011311476 1.0
END
