TITL C-44656-9668-23 -3.242 3375.00 -545.01576583 0 0 68 (C2h) n - 1
REM
REM Run started: at 2020.11.27 11:27:38 in /rds/project/t2_vol4/rds-t2-cs072/BORA/CARBON/AIRSS/Generating-Clusters/Str-Search/Higher-Symm/C10-100
REM VASP from code version vasp.5.4.4.18Apr17-6-g9f103f2a35 (build Oct 11 2019 16:45:47) gamma-only
REM
REM
REM
REM
REM ./C.cell (f39ce9773e2efe3fa5bbdf770a4156b8)
REM AIRSS Version 0.9.1 bugfix July 2018 build 013d7b7c2542+ Fri, 06 Jul 2018 19:26:36 +0100
REM compiler GCC version 4.8.5 20150623 (Red Hat 4.8.5-39)
REM options -cpp -mtune=generic -march=x86-64 -g -O0
REM seed -244075200 1315156239 952303456 -481756474 -1048914904 -1768735033 -1491557262 735079758 -795567188 -970268388 681550888 -942133903
REM
REM C.POTCAR (d86ddea03c3ceb6dc662c8ad6801f873)
REM 
CELL 1.54180   15.00000   15.00000   15.00000   90.00000   90.00000   90.00000
LATT -1
SFAC C  
C      1  0.6117947998905  0.3163327477495  0.5523775069535 1.0
C      1  0.3887074069765  0.3153462523645  0.4475848379305 1.0
C      1  0.6112945094121  0.6846485267120  0.5524186816385 1.0
C      1  0.3882049281656  0.6836671287549  0.4476208286554 1.0
C      1  0.3887028979937  0.3153322728492  0.5523978479110 1.0
C      1  0.6117918820943  0.3163339734274  0.4475942740899 1.0
C      1  0.3882043291122  0.6836685862674  0.5524027969839 1.0
C      1  0.6113027195038  0.6846602641156  0.4476055390996 1.0
C      1  0.4482578950588  0.8307382922974  0.5504458084328 1.0
C      1  0.5495350488882  0.8311189110702  0.4495757888018 1.0
C      1  0.4504720909036  0.1688753873313  0.5504224166981 1.0
C      1  0.5517415864260  0.1692594436529  0.4495496716721 1.0
C      1  0.5495314022596  0.8311130700160  0.5504585901010 1.0
C      1  0.4482535844629  0.8307416202955  0.4495894473315 1.0
C      1  0.5517500440264  0.1692538083519  0.5504078496011 1.0
C      1  0.4504691515221  0.1688838304562  0.4495399538701 1.0
C      1  0.3761239889581  0.5977533823793  0.5992636918176 1.0
C      1  0.6237726049053  0.5987714426943  0.4007334780990 1.0
C      1  0.3762266457479  0.4012252026538  0.5992710538785 1.0
C      1  0.6238736703240  0.4022452131453  0.4007346785533 1.0
C      1  0.6237690668038  0.5987557842421  0.5992863581173 1.0
C      1  0.3761243946069  0.5977645304688  0.4007518263929 1.0
C      1  0.6238755994806  0.4022286349622  0.5992487065108 1.0
C      1  0.3762309932314  0.4012411863967  0.4007130856967 1.0
C      1  0.5923311262062  0.2377844329672  0.5919298648015 1.0
C      1  0.4091972102068  0.2370376086536  0.4079834666418 1.0
C      1  0.5907988227265  0.7629633883972  0.5920168516292 1.0
C      1  0.4076769125901  0.7622047325843  0.4080690527745 1.0
C      1  0.4091994047120  0.2370232154795  0.5919918216609 1.0
C      1  0.5923335739982  0.2378107902770  0.4080361379080 1.0
C      1  0.4076608337118  0.7621862611770  0.5919598921339 1.0
C      1  0.5908082971248  0.7629799753432  0.4080098319631 1.0
C      1  0.4541433425353  0.4138332344679  0.2434439180673 1.0
C      1  0.5481603953710  0.4176388685283  0.7569034205926 1.0
C      1  0.4518302901732  0.5823657038283  0.2431048452969 1.0
C      1  0.5458622492067  0.5861749596964  0.7565453792406 1.0
C      1  0.5481685789401  0.4176855175854  0.2430827842269 1.0
C      1  0.4541372673092  0.4137694654189  0.7565297334373 1.0
C      1  0.5458666676689  0.5862404381710  0.2434812979840 1.0
C      1  0.4518239337548  0.5823199582445  0.7569097912356 1.0
C      1  0.4087644244894  0.4707087124775  0.8142011084238 1.0
C      1  0.6145974113485  0.4472331422836  0.1796999371024 1.0
C      1  0.3853996144678  0.5527919847629  0.8202904040420 1.0
C      1  0.5912358433137  0.5293073225407  0.1858035080422 1.0
C      1  0.6145929079224  0.4471557400443  0.8202986505042 1.0
C      1  0.4087777898068  0.4707841334983  0.1857855867366 1.0
C      1  0.5912225918094  0.5292266260818  0.8142120537367 1.0
C      1  0.3854023549367  0.5528602683758  0.1797089268432 1.0
C      1  0.5537088212576  0.5552214949968  0.3428776191646 1.0
C      1  0.4461968454162  0.5541318784141  0.6572435173558 1.0
C      1  0.5538037628864  0.4458632597887  0.3427495273794 1.0
C      1  0.4462923987173  0.4447756237969  0.6571288326134 1.0
C      1  0.4462023123338  0.5541577040079  0.3427667263785 1.0
C      1  0.5537043249902  0.5551894126446  0.6571324515687 1.0
C      1  0.4462963821175  0.4448053102073  0.3428588520779 1.0
C      1  0.5537945060591  0.4458376223706  0.6572377664996 1.0
C      1  0.3010305795824  0.4499571979202  0.4156992105450 1.0
C      1  0.6987382950547  0.4512662897719  0.5841821360365 1.0
C      1  0.3012587238072  0.5487277189454  0.4158184558361 1.0
C      1  0.6989704407925  0.5500376594805  0.5843044189477 1.0
C      1  0.6987421787175  0.4512779924033  0.4158165109651 1.0
C      1  0.3010282898727  0.4499490750255  0.5842959426664 1.0
C      1  0.6989719237136  0.5500490935441  0.4157051367043 1.0
C      1  0.3012571583837  0.5487182144475  0.5841841950802 1.0
C      1  0.7502213654682  0.4527989341801  0.4999998904573 1.0
C      1  0.2496616366145  0.4516559924468  0.4999967834534 1.0
C      1  0.7503413654274  0.5483399011318  0.5000063725680 1.0
C      1  0.2497756037026  0.5471936509372  0.5000026698404 1.0
END
