TITL C-44656-9668-7 -4.414 3375.00 -771.20745632 0 0 96 (C4) n - 1
REM
REM Run started: at 2020.11.27 06:23:56 in /rds/project/t2_vol4/rds-t2-cs072/BORA/CARBON/AIRSS/Generating-Clusters/Str-Search/Higher-Symm/C10-100
REM VASP from code version vasp.5.4.4.18Apr17-6-g9f103f2a35 (build Oct 11 2019 16:45:47) gamma-only
REM
REM
REM
REM
REM ./C.cell (f39ce9773e2efe3fa5bbdf770a4156b8)
REM AIRSS Version 0.9.1 bugfix July 2018 build 013d7b7c2542+ Fri, 06 Jul 2018 19:26:36 +0100
REM compiler GCC version 4.8.5 20150623 (Red Hat 4.8.5-39)
REM options -cpp -mtune=generic -march=x86-64 -g -O0
REM seed 1397785409 -260392950 720511883 221229509 -922125839 -930997172 -393147473 1948435922 1584518157 -511908410 2123046122 1435016714
REM
REM C.POTCAR (d86ddea03c3ceb6dc662c8ad6801f873)
REM 
CELL 1.54180   15.00000   15.00000   15.00000   90.00000   90.00000   90.00000
LATT -1
SFAC C  
C      1  0.4440590487124  0.5029332789651  0.3787298582720 1.0
C      1  0.5491016626043  0.4989857507865  0.3708335679960 1.0
C      1  0.6212698330229  0.5029334348737  0.4440593729089 1.0
C      1  0.6291665468711  0.4989859825252  0.5491019008859 1.0
C      1  0.5559409175177  0.5029332338518  0.6212699711996 1.0
C      1  0.4508986464297  0.4989847641230  0.6291662403387 1.0
C      1  0.3787306088018  0.5029315810858  0.5559397989400 1.0
C      1  0.3708336327854  0.4989852236403  0.4508974673322 1.0
C      1  0.3797878169771  0.2097907207854  0.4678083190984 1.0
C      1  0.4395845203038  0.2095176812997  0.3909672135234 1.0
C      1  0.5321927624611  0.2097908361478  0.3797884186381 1.0
C      1  0.6090341908360  0.2095175041863  0.4395845003175 1.0
C      1  0.6202134532328  0.2097907779105  0.5321925106731 1.0
C      1  0.5604162241243  0.2095179521806  0.6090338801135 1.0
C      1  0.4678086489010  0.2097910205588  0.6202126933268 1.0
C      1  0.3909667255708  0.2095172308803  0.5604162357504 1.0
C      1  0.4367720583640  0.7561095179057  0.6874137957189 1.0
C      1  0.3229213265050  0.7583287817808  0.5879496084315 1.0
C      1  0.3125852525531  0.7561092487813  0.4367724815544 1.0
C      1  0.4120506098556  0.7583297717677  0.3229219566391 1.0
C      1  0.5632272566619  0.7561093534687  0.3125857695086 1.0
C      1  0.6770774049220  0.7583289047003  0.4120499627817 1.0
C      1  0.6874136573483  0.7561094149905  0.5632266011217 1.0
C      1  0.5879486681157  0.7583300556066  0.6770770664966 1.0
C      1  0.2764713652458  0.7906739061945  0.5148339989595 1.0
C      1  0.3304261265017  0.7903374193346  0.3524075879484 1.0
C      1  0.4851658135723  0.7906752261260  0.2764724044514 1.0
C      1  0.6475925231012  0.7903379361633  0.3304260933930 1.0
C      1  0.7235276374310  0.7906745973528  0.4851653451728 1.0
C      1  0.6695728112209  0.7903379410244  0.6475916561833 1.0
C      1  0.5148332167387  0.7906755842405  0.7235267590147 1.0
C      1  0.3524065406258  0.7903374713927  0.6695731419914 1.0
C      1  0.7583617942146  0.3749038647626  0.4679240675880 1.0
C      1  0.6720938046522  0.4111304059962  0.6987294899399 1.0
C      1  0.5320762819278  0.3749036159467  0.7583611960128 1.0
C      1  0.3012706725539  0.4111301760495  0.6720933763752 1.0
C      1  0.2416390586936  0.3749027735529  0.5320765901177 1.0
C      1  0.3279063686977  0.4111297758896  0.3012706002583 1.0
C      1  0.4679240800998  0.3749032425291  0.2416392162886 1.0
C      1  0.6987297302182  0.4111302935266  0.3279068726777 1.0
C      1  0.4145034532136  0.5886577739633  0.3218531402591 1.0
C      1  0.5655018423700  0.5855969866295  0.3118013107392 1.0
C      1  0.6781461855247  0.5886580115350  0.4145037453939 1.0
C      1  0.6881984828063  0.5855973881356  0.5655022466965 1.0
C      1  0.5854958469798  0.5886581125032  0.6781463827829 1.0
C      1  0.4344975496258  0.5855971020867  0.6881982048610 1.0
C      1  0.3218540773185  0.5886562791423  0.5854958252604 1.0
C      1  0.3118009512771  0.5855968672180  0.4344976440248 1.0
C      1  0.2691257870307  0.4873940128924  0.3209297984679 1.0
C      1  0.4598089574246  0.4755405977624  0.2203355626597 1.0
C      1  0.6790701423123  0.4873943105612  0.2691263050616 1.0
C      1  0.7796644512962  0.4755413346094  0.4598092116190 1.0
C      1  0.7308737884909  0.4873948160965  0.6790701956014 1.0
C      1  0.5401909920398  0.4755413544277  0.7796643674661 1.0
C      1  0.3209298505106  0.4873943444113  0.7308738057121 1.0
C      1  0.2203356774588  0.4755405251954  0.5401910859308 1.0
C      1  0.3764145130096  0.2648076296495  0.3394157840453 1.0
C      1  0.5809845854046  0.2701563857307  0.3184984285604 1.0
C      1  0.6605847897824  0.2648076934118  0.3764140175311 1.0
C      1  0.6815032313184  0.2701567494647  0.5809847557167 1.0
C      1  0.6235866336112  0.2648083576367  0.6605851521334 1.0
C      1  0.4190160919207  0.2701566641090  0.6815024442730 1.0
C      1  0.3394153289233  0.2648073547730  0.6235867510859 1.0
C      1  0.3184982604423  0.2701562162029  0.4190159795263 1.0
C      1  0.6653178872870  0.5700336187585  0.3100906740911 1.0
C      1  0.7508173064945  0.5628862004866  0.4864534724662 1.0
C      1  0.6899089339227  0.5700339575411  0.6653180959612 1.0
C      1  0.5135465035968  0.5628859483628  0.7508172764395 1.0
C      1  0.3346818691660  0.5700332424238  0.6899088946264 1.0
C      1  0.2491828941596  0.5628851106270  0.5135465346088 1.0
C      1  0.3100902818809  0.5700332027751  0.3346816313602 1.0
C      1  0.4864532194374  0.5628853726185  0.2491825625492 1.0
C      1  0.6032745811406  0.4274052898531  0.2955584856715 1.0
C      1  0.7013367297440  0.4499136810072  0.4146052100882 1.0
C      1  0.7044425713038  0.4274054619736  0.6032749013417 1.0
C      1  0.5853953813761  0.4499135968541  0.7013367407874 1.0
C      1  0.3967257023076  0.4274055571355  0.7044419388704 1.0
C      1  0.2986637075142  0.4499128437389  0.5853947682172 1.0
C      1  0.2955579833922  0.4274049171118  0.3967252901559 1.0
C      1  0.4146046945349  0.4499133105930  0.2986632177211 1.0
C      1  0.4453428997130  0.3461973822436  0.7283417357143 1.0
C      1  0.2723527680481  0.3293691409947  0.6203514964102 1.0
C      1  0.2716586935727  0.3461967771252  0.4453428016761 1.0
C      1  0.3796491620075  0.3293692717375  0.2723531572862 1.0
C      1  0.5546572541047  0.3461971801111  0.2716588395309 1.0
C      1  0.7276475921549  0.3293696570851  0.3796491119516 1.0
C      1  0.7283427682607  0.3461970627670  0.5546582145467 1.0
C      1  0.6203514811155  0.3293696831844  0.7276476046527 1.0
C      1  0.4557996320102  0.6690465178361  0.6305733246475 1.0
C      1  0.3767483680541  0.6702824738005  0.5607083287051 1.0
C      1  0.3694256718990  0.6690466018832  0.4557997853083 1.0
C      1  0.4392908989159  0.6702835028998  0.3767479110326 1.0
C      1  0.5441995362728  0.6690465389931  0.3694261460884 1.0
C      1  0.6232508449550  0.6702833428223  0.4392911600617 1.0
C      1  0.6305732545940  0.6690467699867  0.5441996166010 1.0
C      1  0.5607081579983  0.6702836636362  0.6232513374824 1.0
END
