TITL C-45375-3122-11 -6.676 3375.00 -1180.46290520 0 0 146 (Cs) n - 1
REM
REM Run started: at 2020.11.23 05:23:55 in /rds/project/t2_vol4/rds-t2-cs072/BORA/CARBON/AIRSS/Generating-Clusters/Str-Search/Higher-Symm
REM VASP from code version vasp.5.4.4.18Apr17-6-g9f103f2a35 (build Oct 11 2019 16:45:47) gamma-only
REM
REM
REM
REM
REM ./C.cell (e5ae0387ce4d49c7c0135a1433873289)
REM AIRSS Version 0.9.1 bugfix July 2018 build 013d7b7c2542+ Fri, 06 Jul 2018 19:26:36 +0100
REM compiler GCC version 4.8.5 20150623 (Red Hat 4.8.5-39)
REM options -cpp -mtune=generic -march=x86-64 -g -O0
REM seed -1113713604 697751526 -344607029 1320212796 661538149 1230524840 1985714642 -772675343 1139361262 -1982166023 1233482821 -2123411844
REM
REM C.POTCAR (d86ddea03c3ceb6dc662c8ad6801f873)
REM 
CELL 1.54180   15.00000   15.00000   15.00000   90.00000   90.00000   90.00000
LATT -1
SFAC C  
C      1  0.5895116639384  0.7865430739415  0.4371262701664 1.0
C      1  0.4115507800633  0.2090770776911  0.4367496478460 1.0
C      1  0.5884563802254  0.2090709688569  0.4367492825375 1.0
C      1  0.4104983901769  0.7865462216407  0.4371274380946 1.0
C      1  0.6937496708238  0.2557872868400  0.3307916121149 1.0
C      1  0.3070234470728  0.7460130866655  0.3348271397363 1.0
C      1  0.6929848551081  0.7459939859477  0.3348294425456 1.0
C      1  0.3062537313742  0.2557829730189  0.3307874409742 1.0
C      1  0.7802223325349  0.3881496663755  0.6850054048049 1.0
C      1  0.2236985430204  0.6225704717321  0.6913725601582 1.0
C      1  0.7762863864791  0.6225697038454  0.6913825532579 1.0
C      1  0.2197704726596  0.3881411161004  0.6850013060463 1.0
C      1  0.6004397397026  0.7554229458066  0.2904228707279 1.0
C      1  0.3994122344802  0.2426000606795  0.2893924144789 1.0
C      1  0.6005907709739  0.2425946027390  0.2893932379541 1.0
C      1  0.3995710993438  0.7554307971125  0.2904276663935 1.0
C      1  0.1560276912354  0.5659457113400  0.5259724313503 1.0
C      1  0.8237995356082  0.4658556069654  0.5071733198146 1.0
C      1  0.1762024790208  0.4658416910359  0.5071667740666 1.0
C      1  0.8439614350980  0.5659506420106  0.5259834675509 1.0
C      1  0.4500069582783  0.6005555938283  0.4115435014103 1.0
C      1  0.5492253337973  0.3934492401737  0.4102517742123 1.0
C      1  0.4507784948016  0.3934462880032  0.4102489982778 1.0
C      1  0.5499988569289  0.6005561857030  0.4115424118373 1.0
C      1  0.6003171645725  0.3949525614526  0.2406016351203 1.0
C      1  0.3985067853714  0.6033042433152  0.2439095067512 1.0
C      1  0.6014905606977  0.6032978136485  0.2439047226358 1.0
C      1  0.3996844133953  0.3949577581120  0.2406023896879 1.0
C      1  0.2067624742737  0.7522253362451  0.5852099673493 1.0
C      1  0.7903017038358  0.2490798845727  0.5888968219042 1.0
C      1  0.2097049608169  0.2490717269142  0.5888963908389 1.0
C      1  0.7932379716957  0.7522231374744  0.5852278673875 1.0
C      1  0.5891104089749  0.4474314202976  0.4812828512646 1.0
C      1  0.4084769305793  0.5451460671421  0.4811635856174 1.0
C      1  0.5915258688341  0.5451468513722  0.4811655883024 1.0
C      1  0.4108896933090  0.4474291745909  0.4812836565225 1.0
C      1  0.5528213630054  0.5525736553311  0.3180524211570 1.0
C      1  0.4472037012289  0.4434945376937  0.3168449428989 1.0
C      1  0.5528034769509  0.4434963742552  0.3168483431961 1.0
C      1  0.4471787880027  0.5525735515283  0.3180527514785 1.0
C      1  0.2026599936895  0.2974291242735  0.6564284649038 1.0
C      1  0.7935058351369  0.7126425219525  0.6593734578165 1.0
C      1  0.2064842686634  0.7126435009131  0.6593533335103 1.0
C      1  0.7973403319093  0.2974405324013  0.6564241210394 1.0
C      1  0.3171612412979  0.6657931916394  0.4852913602586 1.0
C      1  0.6792780456388  0.3175235983665  0.4777519858244 1.0
C      1  0.3207284280324  0.3175280928599  0.4777473996374 1.0
C      1  0.6828378674404  0.6657971908731  0.4852873948783 1.0
C      1  0.6160241589350  0.1855175835752  0.6772477827398 1.0
C      1  0.3813025254823  0.8103161367679  0.6750346253930 1.0
C      1  0.6186894720840  0.8103109257247  0.6750470035258 1.0
C      1  0.3839884990964  0.1855097939955  0.6772493772407 1.0
C      1  0.3188427540916  0.4147579167608  0.4729583547085 1.0
C      1  0.6872636415589  0.5712067979442  0.4775465197603 1.0
C      1  0.3127367834650  0.5712053974461  0.4775477503402 1.0
C      1  0.6811622722370  0.4147575567409  0.4729481366363 1.0
C      1  0.3274236931530  0.5472300429627  0.1995898989349 1.0
C      1  0.6716412100937  0.4524530065303  0.1956221400611 1.0
C      1  0.3283594192209  0.4524586868727  0.1956300061476 1.0
C      1  0.6725719764776  0.5472185648540  0.1995903287824 1.0
C      1  0.4493176466437  0.4458341577377  0.5774113995225 1.0
C      1  0.5514633144017  0.5501247253718  0.5773985397318 1.0
C      1  0.4485357629102  0.5501274086756  0.5773972048768 1.0
C      1  0.5506809342029  0.4458343220615  0.5774102927361 1.0
C      1  0.7144714151855  0.2278709946044  0.5321551236694 1.0
C      1  0.2830106861749  0.7605938656943  0.5240476662521 1.0
C      1  0.7169896851146  0.7605948674908  0.5240642688160 1.0
C      1  0.2855377324122  0.2278674006990  0.5321628079868 1.0
C      1  0.3089657313465  0.5953103600200  0.6446346329498 1.0
C      1  0.6918347445229  0.4127194232523  0.6413684361810 1.0
C      1  0.3081578497469  0.4127133649920  0.6413612063675 1.0
C      1  0.6910233236993  0.5953089515987  0.6446394569302 1.0
C      1  0.7054843991484  0.5556002927381  0.7363875707113 1.0
C      1  0.2932441709341  0.4493670773235  0.7341235874034 1.0
C      1  0.7067444121244  0.4493771009031  0.7341313121145 1.0
C      1  0.2945066602609  0.5555935591350  0.7363779269931 1.0
C      1  0.4491280447753  0.7692249578921  0.7181748491316 1.0
C      1  0.5507777633155  0.2299271203395  0.7199824587131 1.0
C      1  0.4492388902108  0.2299197262361  0.7199816540778 1.0
C      1  0.5508528569867  0.7692229879890  0.7181742155354 1.0
C      1  0.4496699001448  0.6935372554257  0.5497550732741 1.0
C      1  0.5501273155217  0.3017826277037  0.5518834570728 1.0
C      1  0.4498764626567  0.3017853442852  0.5518822955015 1.0
C      1  0.5503279960383  0.6935340288615  0.5497565101957 1.0
C      1  0.1832962989140  0.6444361144732  0.3752865739495 1.0
C      1  0.8176204095300  0.3625054681067  0.3689397485529 1.0
C      1  0.1823822294319  0.3624916540851  0.3689316078076 1.0
C      1  0.8167130252357  0.6444127785609  0.3752821035732 1.0
C      1  0.4489526574059  0.6655979734726  0.7085195962783 1.0
C      1  0.5517064378709  0.3338396467432  0.7086560646710 1.0
C      1  0.4482952728828  0.3338360288617  0.7086546732195 1.0
C      1  0.5510282794976  0.6655968631402  0.7085187122080 1.0
C      1  0.4535639666045  0.1920084251979  0.3500790802751 1.0
C      1  0.5457440734624  0.8031538864481  0.3517532114926 1.0
C      1  0.4542700102148  0.8031578883393  0.3517589968333 1.0
C      1  0.5464431915621  0.1919958047736  0.3500796512548 1.0
C      1  0.7516207842419  0.6708179832607  0.3129686857232 1.0
C      1  0.2501237977915  0.3298392417455  0.3080966730933 1.0
C      1  0.7498735783374  0.3298482291568  0.3081050162275 1.0
C      1  0.2483831426012  0.6708385130727  0.3129726773039 1.0
C      1  0.2143028839057  0.5588447005717  0.6126838912002 1.0
C      1  0.7823713957124  0.4558166056744  0.6081924774336 1.0
C      1  0.2176304865721  0.4558112235423  0.6081865231872 1.0
C      1  0.7856909962935  0.5588496144750  0.6126942442196 1.0
C      1  0.4444304101721  0.7976010218972  0.5329590063668 1.0
C      1  0.5555311868740  0.1968045656469  0.5335071291775 1.0
C      1  0.4444722869627  0.1968082257501  0.5335090243553 1.0
C      1  0.5555785316757  0.7975950063453  0.5329629987851 1.0
C      1  0.5888118380731  0.6833182775148  0.4575021046175 1.0
C      1  0.4169905848493  0.3099746545009  0.4581641538363 1.0
C      1  0.5830120856971  0.3099718941829  0.4581689388741 1.0
C      1  0.4111863602007  0.6833172777531  0.4575024299713 1.0
C      1  0.7037787597027  0.6133791477948  0.2519620129210 1.0
C      1  0.2980777094997  0.3857763346451  0.2476893893917 1.0
C      1  0.7019223745284  0.3857728509777  0.2476901743234 1.0
C      1  0.2962174268984  0.6133927522997  0.2519685613514 1.0
C      1  0.3737917171315  0.4537113857512  0.7969188637723 1.0
C      1  0.6259267150059  0.5473976271165  0.7982911750214 1.0
C      1  0.3740603918015  0.5473932431397  0.7982811178675 1.0
C      1  0.6262053028274  0.4537152316588  0.7969300902306 1.0
C      1  0.3629882296748  0.1820277429406  0.5892391436260 1.0
C      1  0.6380610380099  0.8099900832918  0.5868877686449 1.0
C      1  0.3619405853643  0.8099904080413  0.5868727015451 1.0
C      1  0.6370168035586  0.1820359318108  0.5892358025119 1.0
C      1  0.3094262122123  0.2244851172960  0.4272479765485 1.0
C      1  0.6897025700179  0.7846031601545  0.4234883720120 1.0
C      1  0.3103076295541  0.7846240315405  0.4234813316872 1.0
C      1  0.6905779201323  0.2244861899798  0.4272472086081 1.0
C      1  0.1492319008374  0.4013557448799  0.4349510268756 1.0
C      1  0.8460172062632  0.6212184670098  0.4519504320114 1.0
C      1  0.1539726344531  0.6212279223455  0.4519521308717 1.0
C      1  0.8507670661585  0.4013748122563  0.4349527928658 1.0
C      1  0.5491066231810  0.3067688525018  0.2363496649332 1.0
C      1  0.4505336685554  0.6905872988315  0.2388179091252 1.0
C      1  0.5494706584845  0.6905845692943  0.2388158399154 1.0
C      1  0.4508944955281  0.3067729735773  0.2363452862861 1.0
C      1  0.4048829204463  0.3679717393876  0.6235098662463 1.0
C      1  0.5938658983588  0.6301776416760  0.6237678634075 1.0
C      1  0.4061223800090  0.6301815974471  0.6237641951346 1.0
C      1  0.5951138174909  0.3679762545022  0.6235094471362 1.0
C      1  0.4528412579377  0.6023692376193  0.7862938161250 1.0
C      1  0.5474594287448  0.3984425699608  0.7850911077566 1.0
C      1  0.4525396530778  0.3984392226451  0.7850900660618 1.0
C      1  0.5471412268358  0.6023695954778  0.7862941637024 1.0
C      1  0.7338138011673  0.4882515041524  0.4714066516531 1.0
C      1  0.2661901095046  0.4882480142194  0.4714000579874 1.0
END
