TITL C-45421-1919-3 -13.108 3375.00 -2357.63328400 0 0 281 (C1) n - 1
REM
REM Run started: at 2020.11.24 05:34:26 in /rds/project/t2_vol4/rds-t2-cs072/BORA/CARBON/AIRSS/Generating-Clusters/Str-Search/Higher-Symm
REM VASP from code version vasp.5.4.4.18Apr17-6-g9f103f2a35 (build Oct 11 2019 16:45:47) gamma-only
REM
REM
REM
REM
REM ./C.cell (e5ae0387ce4d49c7c0135a1433873289)
REM AIRSS Version 0.9.1 bugfix July 2018 build 013d7b7c2542+ Fri, 06 Jul 2018 19:26:36 +0100
REM compiler GCC version 4.8.5 20150623 (Red Hat 4.8.5-39)
REM options -cpp -mtune=generic -march=x86-64 -g -O0
REM seed 1491803061 1758741079 1528327715 729749618 -570996639 -974527091 -1890302279 -241089875 340108681 352918437 1606665349 647617547
REM
REM C.POTCAR (d86ddea03c3ceb6dc662c8ad6801f873)
REM 
CELL 1.54180   15.00000   15.00000   15.00000   90.00000   90.00000   90.00000
LATT -1
SFAC C  
C      1  0.3549908266041  0.7200868139200  0.4555234699245 1.0
C      1  0.7348742551549  0.5412276198566  0.3499363557492 1.0
C      1  0.6052456508762  0.3554965981430  0.7263665841563 1.0
C      1  0.3652790508923  0.2693588793303  0.4276481158560 1.0
C      1  0.6718779548890  0.7042009067927  0.4188723889586 1.0
C      1  0.6491513671258  0.3124588220345  0.5676290614474 1.0
C      1  0.7059760739155  0.4631248391333  0.6172934198816 1.0
C      1  0.2597577669714  0.5156407848337  0.6997958100432 1.0
C      1  0.2788691493752  0.5343638382365  0.3660559416059 1.0
C      1  0.6023750174097  0.6328318689726  0.2771089540071 1.0
C      1  0.4885934453228  0.3385474249218  0.3101790567400 1.0
C      1  0.4888023478766  0.6429636308957  0.6826832587532 1.0
C      1  0.3373702600030  0.4757770597317  0.7278190519409 1.0
C      1  0.7455613326533  0.3763861546557  0.5806065938328 1.0
C      1  0.6059416980676  0.7026247487068  0.3412479905701 1.0
C      1  0.3354037060618  0.5230871401974  0.2952384785334 1.0
C      1  0.6320009303166  0.4534316695893  0.6988971684120 1.0
C      1  0.6600153174961  0.5558719169507  0.2778945469192 1.0
C      1  0.7323500169996  0.6181147147171  0.4374122841828 1.0
C      1  0.2849812754962  0.6751340708271  0.4967243590929 1.0
C      1  0.2978865829802  0.3403019883695  0.4615335479348 1.0
C      1  0.5926213997014  0.2939054889852  0.6460005568690 1.0
C      1  0.4603484524295  0.2842509018637  0.3990241315941 1.0
C      1  0.5098195354568  0.7031475126893  0.6169241906923 1.0
C      1  0.5129099522267  0.6883379223334  0.5222428992339 1.0
C      1  0.6520852482251  0.5708358153490  0.4751891641325 1.0
C      1  0.5376822941261  0.4717110905183  0.6632127557045 1.0
C      1  0.4955324359228  0.3412328834707  0.4736015900664 1.0
C      1  0.5236437608931  0.6613129659516  0.3879154734247 1.0
C      1  0.4972581457563  0.3132119847936  0.6336651177732 1.0
C      1  0.6625932973014  0.4204933175111  0.4623331289768 1.0
C      1  0.2894977478628  0.5850100583021  0.5286773486646 1.0
C      1  0.3205152829600  0.4257725208634  0.5032628729680 1.0
C      1  0.5842362213469  0.5033790342008  0.3276550684564 1.0
C      1  0.4345251811786  0.5209387988596  0.3233617740747 1.0
C      1  0.3864511140536  0.4973005142805  0.6421900573860 1.0
C      1  0.4708365344275  0.5467906833101  0.6724644209223 1.0
C      1  0.6520745437798  0.4937547286918  0.5385653034826 1.0
C      1  0.5913229389213  0.6531789254100  0.4703178741002 1.0
C      1  0.5039863253761  0.4366683995455  0.3312184264146 1.0
C      1  0.4996489965053  0.3805634140590  0.7032103239896 1.0
C      1  0.5175187950376  0.5860864810782  0.3221358264613 1.0
C      1  0.6533928425996  0.4982149841207  0.3988609306176 1.0
C      1  0.2947645625833  0.5463870551714  0.6149208846684 1.0
C      1  0.3175546314011  0.5174750920553  0.4572865245072 1.0
C      1  0.5878287937247  0.3727577025325  0.5093295078760 1.0
C      1  0.4499310139983  0.3416143481704  0.5618848807431 1.0
C      1  0.4523489051373  0.6959740358810  0.4535806611380 1.0
C      1  0.3012122510931  0.8105755739205  0.4587270984193 1.0
C      1  0.8161074314607  0.4874963406176  0.3111837914671 1.0
C      1  0.5263313863458  0.3457666814016  0.7892090801442 1.0
C      1  0.3253298986023  0.2503116689103  0.5104172359387 1.0
C      1  0.7536986444246  0.7557906140471  0.4525873412412 1.0
C      1  0.7115823753510  0.2597208382862  0.4949990550013 1.0
C      1  0.7429397614574  0.5360650268572  0.6747655098628 1.0
C      1  0.2086914989139  0.4782524484570  0.7881046443585 1.0
C      1  0.1972352944112  0.5594792242786  0.3142197667926 1.0
C      1  0.4850064629362  0.8153325359649  0.1745791575990 1.0
C      1  0.5108403805010  0.2622289053287  0.2465034610381 1.0
C      1  0.5169828601304  0.7198364440959  0.7561835610029 1.0
C      1  0.3045576110517  0.4476387044272  0.8182916785829 1.0
C      1  0.7432112913999  0.3579669442598  0.4741525507504 1.0
C      1  0.4581903578682  0.8567599159975  0.2570828384249 1.0
C      1  0.2531287935567  0.5294618620484  0.2295551024115 1.0
C      1  0.6806360995479  0.5309350638679  0.7384730238163 1.0
C      1  0.8113154475912  0.4854746711825  0.2093529095439 1.0
C      1  0.7923123727864  0.6794390412951  0.5034635049839 1.0
C      1  0.2201490776076  0.7568753126470  0.4948031104233 1.0
C      1  0.2257166359385  0.2781436025489  0.4919644958402 1.0
C      1  0.5006309329322  0.2463601128057  0.8289679139342 1.0
C      1  0.5333046565473  0.2530746323838  0.3436396559705 1.0
C      1  0.5431095549369  0.7793087227694  0.6725415328388 1.0
C      1  0.4977709827512  0.6519649437502  0.0742303759466 1.0
C      1  0.6565054494256  0.0686781746123  0.4816803727379 1.0
C      1  0.0717052421431  0.5018428169919  0.6633045754154 1.0
C      1  0.5096087414544  0.3007695502952  0.9214298048167 1.0
C      1  0.4956959527574  0.6264538202075  0.9138356549140 1.0
C      1  0.5171447496814  0.3476907572743  0.0904771094701 1.0
C      1  0.6627857400154  0.9026077142419  0.4695772826480 1.0
C      1  0.3385951609002  0.0751259070270  0.5117198889644 1.0
C      1  0.3556348543346  0.8638941510053  0.5199087719929 1.0
C      1  0.1032244474837  0.5313181308151  0.3469383412371 1.0
C      1  0.9120213855602  0.5117748268558  0.3419218829832 1.0
C      1  0.9020326562303  0.4898626969884  0.6679083864063 1.0
C      1  0.4982001482485  0.0562665995352  0.6528390188808 1.0
C      1  0.6661762644416  0.4860886213210  0.0764566640045 1.0
C      1  0.0617186223980  0.6761320282484  0.4979177513611 1.0
C      1  0.5152565343260  0.8762750626714  0.3292419478633 1.0
C      1  0.5065787593903  0.8768457993041  0.6570505531327 1.0
C      1  0.4995127659420  0.0743156520464  0.3282204424238 1.0
C      1  0.6632529792349  0.4655410833301  0.9200579547764 1.0
C      1  0.3588703473885  0.5097743297712  0.0880574013314 1.0
C      1  0.3417806532754  0.4838167752670  0.9076014169754 1.0
C      1  0.0871700028642  0.3783824147740  0.4934292718384 1.0
C      1  0.8949748799549  0.3494015355747  0.5288276597940 1.0
C      1  0.8939696339684  0.6704327875935  0.4925363666193 1.0
C      1  0.7413300681728  0.1122517427486  0.6098202652314 1.0
C      1  0.1028082655035  0.6116357947917  0.7887391235327 1.0
C      1  0.6266447380157  0.7598086781344  0.0917561113949 1.0
C      1  0.7636393010333  0.8712483749696  0.3419591721973 1.0
C      1  0.2228595622956  0.1484328676368  0.3889255914049 1.0
C      1  0.2472070280077  0.8374414490141  0.6364919908523 1.0
C      1  0.1349648922047  0.4006187735376  0.2431222143155 1.0
C      1  0.8883968758282  0.6260272858762  0.2227653361618 1.0
C      1  0.8586829762985  0.3597607366124  0.7747635829081 1.0
C      1  0.6353995865035  0.2060352558483  0.8996845013282 1.0
C      1  0.3808705704514  0.7298796753646  0.8726765465628 1.0
C      1  0.3810481378135  0.2578207994663  0.1375384919685 1.0
C      1  0.7850840891602  0.6099766171126  0.0969851508062 1.0
C      1  0.1091927728744  0.7595160398497  0.6306794036397 1.0
C      1  0.6097054864922  0.1034451512095  0.7763962745385 1.0
C      1  0.7729541343010  0.3423969884902  0.9011420813627 1.0
C      1  0.2455920256375  0.3935709493498  0.1316677213343 1.0
C      1  0.2321008465836  0.6102234057454  0.8875723939744 1.0
C      1  0.1204772632681  0.2706286593800  0.3717378530046 1.0
C      1  0.8195433581898  0.2449365675213  0.6252303473243 1.0
C      1  0.8811083807456  0.7669148292975  0.3537203072562 1.0
C      1  0.6336540165529  0.8557498673177  0.2175199441035 1.0
C      1  0.3836164655388  0.8293320263337  0.7583906773517 1.0
C      1  0.3777297292212  0.1503295087791  0.2447877012049 1.0
C      1  0.7138109331336  0.9401857064031  0.5532274351085 1.0
C      1  0.9399626397898  0.5700771973294  0.7205321394073 1.0
C      1  0.5690527869228  0.6871058724721  0.9437396322911 1.0
C      1  0.6981402692671  0.0919124517541  0.4048133761857 1.0
C      1  0.2912818248020  0.0092860465379  0.3666725113949 1.0
C      1  0.3419962585732  0.0972563203285  0.6061207840049 1.0
C      1  0.9706523817385  0.4296392821065  0.3108364574690 1.0
C      1  0.0415194699136  0.6170196144289  0.3278221810383 1.0
C      1  0.0679206007720  0.4053099475696  0.6634108038696 1.0
C      1  0.6084653092422  0.3155592367844  0.0656130039977 1.0
C      1  0.4047078816023  0.6677495614293  0.0379628309752 1.0
C      1  0.4286856893312  0.2811213435177  0.9783994875819 1.0
C      1  0.7119336907594  0.5524473195678  0.9434179670315 1.0
C      1  0.9403255874118  0.7220195823593  0.5744569765045 1.0
C      1  0.5803742345095  0.9404219184585  0.7091793707001 1.0
C      1  0.6849957071783  0.3877645841968  0.0580650542449 1.0
C      1  0.2958051861421  0.4208623359264  0.9756687752172 1.0
C      1  0.3324241660921  0.5949748014309  0.0457782250137 1.0
C      1  0.9157110878131  0.2818367268320  0.4696169772823 1.0
C      1  0.0741857191033  0.3476252241112  0.5858581327908 1.0
C      1  0.0293191273665  0.6880583904061  0.4043723394743 1.0
C      1  0.5833370957092  0.0820165947347  0.2946542080377 1.0
C      1  0.4176463431644  0.0898699997731  0.6696601580505 1.0
C      1  0.3481820877334  0.0070304113607  0.2985541452450 1.0
C      1  0.3505442529232  0.7264707236096  0.1007730792266 1.0
C      1  0.7436480722165  0.1498585678169  0.3521433497982 1.0
C      1  0.1257559507786  0.3474098664970  0.7180846523680 1.0
C      1  0.3462878236896  0.2780964790488  0.9279528070466 1.0
C      1  0.6413175944497  0.6941309284112  0.8801925230587 1.0
C      1  0.6562177401083  0.2846624628945  0.1520765306813 1.0
C      1  0.7173692007196  0.8769668634162  0.6292743075386 1.0
C      1  0.3167913081279  0.1714751348846  0.6587702832855 1.0
C      1  0.2528217295890  0.9186492341257  0.3326381473783 1.0
C      1  0.1071619220620  0.6887042283862  0.2885870576425 1.0
C      1  0.9092853739759  0.3580657238538  0.3141577386445 1.0
C      1  0.8747906722248  0.6421146284525  0.7087303199362 1.0
C      1  0.3850071776740  0.1622084146495  0.7263267393279 1.0
C      1  0.7308100283737  0.3481933574149  0.1407271166164 1.0
C      1  0.0977658783264  0.7464105643786  0.3593064197602 1.0
C      1  0.3077586499309  0.9193603580493  0.2592508554267 1.0
C      1  0.6563434077202  0.8855257397264  0.7047933652601 1.0
C      1  0.6506679625571  0.1379805845344  0.3156150924303 1.0
C      1  0.7044887334490  0.6259482969435  0.8764547783494 1.0
C      1  0.2852609791455  0.6572806061092  0.1113667196402 1.0
C      1  0.2746236101234  0.3421665912669  0.9315901817361 1.0
C      1  0.1334295105384  0.2908086559193  0.6360446468186 1.0
C      1  0.8855574109901  0.2984213632049  0.3857075569897 1.0
C      1  0.8775274745094  0.7103052320846  0.6437462157364 1.0
C      1  0.7198501473636  0.1846421352860  0.8609627521170 1.0
C      1  0.2206704498246  0.8226704776855  0.7254548470397 1.0
C      1  0.8590018069666  0.7103527706038  0.1969794240757 1.0
C      1  0.7186257517064  0.7668834018222  0.1191251511758 1.0
C      1  0.2855490938901  0.2368527736356  0.1549441147508 1.0
C      1  0.2892816284126  0.7577957111265  0.8572589598138 1.0
C      1  0.2133807324742  0.1700546930104  0.2902682980264 1.0
C      1  0.7885918310657  0.8447835300390  0.2549261378621 1.0
C      1  0.7614666920152  0.1273775468213  0.7068618966149 1.0
C      1  0.8342346251337  0.2644477283036  0.7816400819277 1.0
C      1  0.1371879231439  0.7022863776771  0.7956874552015 1.0
C      1  0.1505341091915  0.3071658169394  0.2174325148330 1.0
C      1  0.7214201927084  0.8342660897753  0.1907875411199 1.0
C      1  0.2152770736368  0.6993758792179  0.8610685321583 1.0
C      1  0.8205063684056  0.2057418383023  0.7101970084845 1.0
C      1  0.7052721988149  0.1210659693418  0.7832395219457 1.0
C      1  0.2825725528412  0.1703305931879  0.2255669543449 1.0
C      1  0.2916691681547  0.8193241410881  0.7859173074323 1.0
C      1  0.2192659006142  0.3030891036118  0.1486442486178 1.0
C      1  0.7837387364776  0.2528804806785  0.8622063630673 1.0
C      1  0.7899280746206  0.7016330086190  0.1225413345458 1.0
C      1  0.8611087237466  0.7807932200918  0.2615580252668 1.0
C      1  0.1391497146533  0.7672601459082  0.7269335456998 1.0
C      1  0.1461704153836  0.2412498100175  0.2827137511843 1.0
C      1  0.5126816342999  0.4331650069682  0.1200561822639 1.0
C      1  0.4274337707668  0.0458648616764  0.4929574587795 1.0
C      1  0.1136968991553  0.5335569536475  0.4434590335201 1.0
C      1  0.5064860419891  0.5365081080722  0.8964583172838 1.0
C      1  0.5102876052441  0.3951738354631  0.8777571033703 1.0
C      1  0.5129215150717  0.5715578969121  0.1125447597823 1.0
C      1  0.4398525009404  0.8866369696675  0.4949593388009 1.0
C      1  0.5634540126855  0.0592667921062  0.4877755528870 1.0
C      1  0.5737448207339  0.8888204149770  0.4861844379633 1.0
C      1  0.1021688618861  0.5276013793013  0.5808852013009 1.0
C      1  0.9035580764273  0.5072075141983  0.5769522266587 1.0
C      1  0.9159577634299  0.5070003096173  0.4402781326164 1.0
C      1  0.4936278822846  0.0650879003277  0.4247912582466 1.0
C      1  0.4435069155221  0.5023187465133  0.1192174867637 1.0
C      1  0.1088087502554  0.4667169612913  0.5059814308973 1.0
C      1  0.5115103426697  0.9141231294219  0.5603926782826 1.0
C      1  0.5024686004233  0.8783813504862  0.4231583855491 1.0
C      1  0.5030154718747  0.0203241862109  0.5597618408800 1.0
C      1  0.4404979537083  0.4693312035352  0.8950004183687 1.0
C      1  0.5839692988472  0.5019995405120  0.1134296905079 1.0
C      1  0.5769188638312  0.4689987483261  0.8957394095860 1.0
C      1  0.1057868671219  0.5990642233291  0.5116407498426 1.0
C      1  0.9133643512493  0.5745644350606  0.5072087485519 1.0
C      1  0.9036082827686  0.4392173742298  0.5070235858201 1.0
C      1  0.0891180387093  0.3549111270219  0.3994073822620 1.0
C      1  0.3016251074484  0.4340223730324  0.0670339547362 1.0
C      1  0.4135853428270  0.0746588678572  0.2803818359242 1.0
C      1  0.0334987967130  0.7263632407536  0.5761734985204 1.0
C      1  0.8404117924006  0.3406978071279  0.6133069588761 1.0
C      1  0.9264564341808  0.6910377264872  0.3936463566794 1.0
C      1  0.3186428658020  0.5833781348928  0.9356957296574 1.0
C      1  0.6933051512993  0.3721082811343  0.9525864839172 1.0
C      1  0.7251130309877  0.5577198770420  0.0366377100103 1.0
C      1  0.4063112151578  0.8700779800929  0.6786044637382 1.0
C      1  0.5689657032815  0.0359256776361  0.7164131656638 1.0
C      1  0.6092317453246  0.8819701825695  0.3057646756406 1.0
C      1  0.0737292599193  0.4297965242865  0.3219886590167 1.0
C      1  0.2776896719752  0.0823846871833  0.4309156156314 1.0
C      1  0.4352971174177  0.2976052565346  0.0679793972311 1.0
C      1  0.0350510302162  0.5678683118527  0.7305387982431 1.0
C      1  0.9373467020063  0.6065710059322  0.3097083802993 1.0
C      1  0.8766647628215  0.3981826759820  0.6909800500570 1.0
C      1  0.3347649094569  0.8667122165923  0.6126856739407 1.0
C      1  0.6787452480156  0.8961453338869  0.3721362597187 1.0
C      1  0.7103770023783  0.0350596347065  0.5585600030676 1.0
C      1  0.4017500517715  0.6566005153591  0.9319584802571 1.0
C      1  0.5720248809692  0.7032462019249  0.0339751979507 1.0
C      1  0.6099791620659  0.2866667893180  0.9575679997367 1.0
C      1  0.2096458616785  0.2739614297622  0.5906308106036 1.0
C      1  0.2396177663499  0.6226452369237  0.1875953039648 1.0
C      1  0.6316357660075  0.2386803661059  0.3266065274095 1.0
C      1  0.1709911224922  0.7857521400746  0.4071780259711 1.0
C      1  0.7852433858561  0.3233571649973  0.3817390734013 1.0
C      1  0.7781496635424  0.7024733143077  0.6167155812392 1.0
C      1  0.2700405156065  0.3476703721633  0.8283709536450 1.0
C      1  0.6947928108549  0.6245546905596  0.7737396847807 1.0
C      1  0.7787107377761  0.3955149700987  0.2044858267438 1.0
C      1  0.6444305055997  0.7822984538059  0.7061088958068 1.0
C      1  0.4093022244756  0.2225950696237  0.7913295226719 1.0
C      1  0.3655009708892  0.8511132544300  0.2284379688416 1.0
C      1  0.1878328858430  0.6466261988500  0.2588916151142 1.0
C      1  0.2959272303073  0.2458802456727  0.6058615601551 1.0
C      1  0.6110258173543  0.2636292644482  0.2279776907417 1.0
C      1  0.1854963247902  0.3778088704845  0.7794238478863 1.0
C      1  0.8093757380495  0.3841995066900  0.3023662913547 1.0
C      1  0.7743793456513  0.6286667030785  0.6940583432610 1.0
C      1  0.2369047391132  0.8433100161144  0.3867393627970 1.0
C      1  0.7200461475699  0.7802597292379  0.6387656019910 1.0
C      1  0.7171295002881  0.2457741249239  0.3869951192349 1.0
C      1  0.6245863232379  0.7089629505514  0.7809735481791 1.0
C      1  0.3885893111720  0.7938902470224  0.1542519823210 1.0
C      1  0.3400518690303  0.2717152025243  0.8343649456651 1.0
C      1  0.5747251746815  0.8122571332822  0.1541390585975 1.0
C      1  0.1717848019532  0.5580811989811  0.8325958863082 1.0
C      1  0.5723432229498  0.1761749259842  0.8339070495502 1.0
C      1  0.4391654846987  0.7639689626391  0.8071602233601 1.0
C      1  0.4299784064070  0.2223316422968  0.2071419753168 1.0
C      1  0.2055857501890  0.4472381477005  0.2000426896570 1.0
C      1  0.8361582954316  0.5639417593976  0.1673474731994 1.0
C      1  0.8217710003369  0.4050286439100  0.8510896868054 1.0
C      1  0.1856642274887  0.7891304971354  0.5814624648643 1.0
C      1  0.7644623060078  0.1989075824393  0.5639183080384 1.0
C      1  0.8089145565922  0.8111729581427  0.4007884168086 1.0
C      1  0.1777733792034  0.2223125878724  0.4293663285277 1.0
C      1  0.4748503602707  0.4280244570922  0.4282042236934 1.0
C      1  0.4143488851797  0.5111773799454  0.4270619483732 1.0
C      1  0.4017225797804  0.4311154848940  0.5622767360200 1.0
C      1  0.5573039814390  0.4648331303821  0.5596900460267 1.0
C      1  0.4755771823258  0.4883325330066  0.5050887826931 1.0
END
