TITL C-45932-9918-1 -9.156 3375.00 -1585.29888020 0 0 191 (C1) n - 1
REM
REM Run started: at 2020.12.21 22:06:59 in /rds/project/t2_vol4/rds-t2-cs072/BORA/CARBON/AIRSS/Generating-Clusters/Str-Search/Higher-Symm/C100-200
REM VASP from code version vasp.5.4.4.18Apr17-6-g9f103f2a35 (build Oct 11 2019 16:45:47) gamma-only
REM
REM
REM
REM
REM ./C.cell (533062f00bc710175b3da973d35f2034)
REM AIRSS Version 0.9.1 bugfix July 2018 build 013d7b7c2542+ Fri, 06 Jul 2018 19:26:36 +0100
REM compiler GCC version 4.8.5 20150623 (Red Hat 4.8.5-39)
REM options -cpp -mtune=generic -march=x86-64 -g -O0
REM seed 192232617 -32245162 189537252 -2111755079 -901201220 119316986 -393609701 449975674 -1413266362 -1436457057 -1466731417 -827281602
REM
REM C.POTCAR (d86ddea03c3ceb6dc662c8ad6801f873)
REM 
CELL 1.54180   15.00000   15.00000   15.00000   90.00000   90.00000   90.00000
LATT -1
SFAC C  
C      1  0.7612136634776  0.2557116853560  0.4631929218355 1.0
C      1  0.4700718975351  0.1156288378458  0.4564310956562 1.0
C      1  0.1698530010637  0.3070044177180  0.4363317264974 1.0
C      1  0.1302785594195  0.6389068160125  0.4505588513863 1.0
C      1  0.3720904051516  0.8567491553111  0.4578789359222 1.0
C      1  0.6780820460830  0.8012735325618  0.4593004897779 1.0
C      1  0.8458019979901  0.5544134277823  0.4722851337522 1.0
C      1  0.3344425398320  0.7986180183365  0.3810637566910 1.0
C      1  0.6287764740852  0.8094667562656  0.3700027086800 1.0
C      1  0.8247516943798  0.6043108029536  0.3887763795743 1.0
C      1  0.7722968042851  0.3121351995231  0.3758910501331 1.0
C      1  0.5212344652962  0.1664374948982  0.3855899943552 1.0
C      1  0.2382098656063  0.2805560375201  0.3662050810196 1.0
C      1  0.1691784713745  0.5695283120500  0.3687726559425 1.0
C      1  0.7501452656255  0.7130668090336  0.3084008342561 1.0
C      1  0.7730844715774  0.4685169242416  0.3024865454350 1.0
C      1  0.6449557005738  0.2141519385887  0.3083635864399 1.0
C      1  0.3923546394972  0.2429913594072  0.2861050129234 1.0
C      1  0.2242104386916  0.4259609120989  0.2874103942341 1.0
C      1  0.2346713535526  0.7133858837067  0.2960101772377 1.0
C      1  0.4736842189895  0.7749098710586  0.2822117398036 1.0
C      1  0.2377757026536  0.5382642781794  0.5223743161344 1.0
C      1  0.3544482323636  0.7027891476127  0.5284305963433 1.0
C      1  0.6135601554096  0.6883881872944  0.5786030040522 1.0
C      1  0.7054055330298  0.5201232270559  0.5776108304170 1.0
C      1  0.6417855648323  0.3382194885115  0.5632605567824 1.0
C      1  0.4835613764511  0.2795245845548  0.5321832922436 1.0
C      1  0.3231084979738  0.3189262796417  0.5058217434252 1.0
C      1  0.3818562360014  0.3905231578424  0.3589255314975 1.0
C      1  0.3618000363525  0.4911633945086  0.3492922265033 1.0
C      1  0.4595473765818  0.6169357252974  0.3865558147259 1.0
C      1  0.5333289074407  0.6829067962557  0.3868012799404 1.0
C      1  0.6104255511762  0.6502322534348  0.4214244888586 1.0
C      1  0.6273658654063  0.4500391351084  0.3177820773272 1.0
C      1  0.5657295476361  0.3806284133638  0.3225624383021 1.0
C      1  0.7292541415381  0.8509976892009  0.6171962235705 1.0
C      1  0.9291974020086  0.5318588086585  0.6265201534778 1.0
C      1  0.7929120257527  0.1820221439658  0.6212642093841 1.0
C      1  0.4120082477216  0.0405105441164  0.5934125527630 1.0
C      1  0.1373373994634  0.2997463458695  0.6009753501605 1.0
C      1  0.1220607401095  0.6721291889375  0.6105589955387 1.0
C      1  0.4049301096106  0.9473565930622  0.5963880132022 1.0
C      1  0.5461316069353  0.4018196728054  0.1761615017684 1.0
C      1  0.4438457996633  0.4056211239252  0.1935947068901 1.0
C      1  0.3782049834902  0.4869934264447  0.1858888588532 1.0
C      1  0.4088924697435  0.5901735716310  0.1708544198227 1.0
C      1  0.5027691077605  0.6338643178340  0.1662800146407 1.0
C      1  0.5994835747396  0.5778356554448  0.1645822100660 1.0
C      1  0.6218523834146  0.4766783615916  0.1698621030313 1.0
C      1  0.4421423802691  0.5738703548547  0.4757920035924 1.0
C      1  0.5330861944757  0.5523778501433  0.5191619862898 1.0
C      1  0.5984619970069  0.5592547173385  0.4465105533187 1.0
C      1  0.5982417266340  0.4847662229763  0.4003855028060 1.0
C      1  0.5316996625021  0.4116261798982  0.4072048203672 1.0
C      1  0.4390143460462  0.4101121409885  0.4429641271642 1.0
C      1  0.3814909754431  0.4967556235732  0.4563577584992 1.0
C      1  0.2033017703770  0.4759772680630  0.7219611278258 1.0
C      1  0.2987545858400  0.7320482639707  0.7509007550267 1.0
C      1  0.5473289380938  0.8024378157421  0.7561397071195 1.0
C      1  0.7776199397867  0.6596360913478  0.7505603113135 1.0
C      1  0.8011684040950  0.3852197372581  0.7358148799380 1.0
C      1  0.6027568945277  0.1939177109095  0.7337136310284 1.0
C      1  0.3388248263967  0.2430947517826  0.7145446363647 1.0
C      1  0.6526694990069  0.2729747786965  0.7763500235369 1.0
C      1  0.4257080531751  0.2463910225749  0.7669769926812 1.0
C      1  0.2628894415427  0.4083942537560  0.7665884283897 1.0
C      1  0.2846471022705  0.6364007632576  0.7847326105375 1.0
C      1  0.4731578241037  0.7610828926514  0.8083639326400 1.0
C      1  0.6912493615168  0.6860582077545  0.7966936077253 1.0
C      1  0.7705023874943  0.4712740031702  0.7820922288409 1.0
C      1  0.6687350263472  0.8432814457442  0.5510125141949 1.0
C      1  0.8947061956908  0.5887868272140  0.5615799954464 1.0
C      1  0.8186026877876  0.2396169386453  0.5543449749069 1.0
C      1  0.4954733151269  0.0786212202341  0.5507429365548 1.0
C      1  0.1791909392015  0.2678197098893  0.5244331089701 1.0
C      1  0.1070303413851  0.6135848275313  0.5440498006153 1.0
C      1  0.3371928218327  0.8837274213210  0.5535565988136 1.0
C      1  0.1472420028624  0.4686043280391  0.6495348264295 1.0
C      1  0.2570455429738  0.7713248164972  0.6785047516425 1.0
C      1  0.5448089611883  0.8396851498557  0.6727254857330 1.0
C      1  0.8239466013988  0.7043569577082  0.6839548751992 1.0
C      1  0.8617854074180  0.3723650375336  0.6672713004483 1.0
C      1  0.6268875313978  0.1316131590787  0.6702688552501 1.0
C      1  0.3098361548618  0.1966697835767  0.6404047583039 1.0
C      1  0.5493376005227  0.3178168638152  0.5840188252419 1.0
C      1  0.4109601180741  0.3496765918505  0.5307550182740 1.0
C      1  0.3156627192023  0.4925129512451  0.5330299032654 1.0
C      1  0.4157774238603  0.6353881985836  0.5565339799771 1.0
C      1  0.5223234568878  0.6403128705720  0.5777767017188 1.0
C      1  0.6557765459429  0.5955998050627  0.6263688254485 1.0
C      1  0.6500754793560  0.4371769393841  0.5890058528031 1.0
C      1  0.3387237917905  0.2285908872891  0.3694377516824 1.0
C      1  0.1684703816131  0.4620453469559  0.3565148618701 1.0
C      1  0.2460909734863  0.7529624714862  0.3775367806693 1.0
C      1  0.5268137180581  0.7858077746833  0.3714425821190 1.0
C      1  0.7940244471409  0.6937640470026  0.3885064567015 1.0
C      1  0.7959124515143  0.4059175076805  0.3759913829569 1.0
C      1  0.6192643902311  0.1784119344485  0.3871207493807 1.0
C      1  0.3172825895561  0.7247250260008  0.2429703494123 1.0
C      1  0.6187772165309  0.7224125599956  0.2290965462830 1.0
C      1  0.7423227237883  0.6311831676915  0.2575989634921 1.0
C      1  0.6835144425674  0.3418794077544  0.2397838346862 1.0
C      1  0.5631481041190  0.2343952494432  0.2557299450040 1.0
C      1  0.3227690302187  0.3009932102728  0.2330842089323 1.0
C      1  0.2627428736262  0.5811704721001  0.2368978022081 1.0
C      1  0.5685903104268  0.3018452360301  0.8149640736324 1.0
C      1  0.3962630141810  0.3294826193476  0.8069564348525 1.0
C      1  0.3084250235464  0.4804063261473  0.8125415227654 1.0
C      1  0.3688055266973  0.6430331271732  0.8321858033725 1.0
C      1  0.5363400991863  0.6950639178629  0.8417174985351 1.0
C      1  0.6830528240521  0.5964351655831  0.8321740703968 1.0
C      1  0.6958206363134  0.4220041836625  0.8195898707750 1.0
C      1  0.1404471086302  0.4013626255851  0.4300783329632 1.0
C      1  0.2134183153416  0.7010603176066  0.4541041032228 1.0
C      1  0.4695060835250  0.8152045723398  0.4534469653665 1.0
C      1  0.7576524485533  0.7360719191250  0.4685247775768 1.0
C      1  0.8289519457574  0.4498959042609  0.4625831002279 1.0
C      1  0.6740783959720  0.1916005086025  0.4670283594073 1.0
C      1  0.3812962026490  0.1683039483216  0.4404563046821 1.0
C      1  0.3325068472572  0.6401433807555  0.2066189542737 1.0
C      1  0.5257295534531  0.7200117711990  0.2190140735742 1.0
C      1  0.6632152503809  0.6401417207350  0.2062429584834 1.0
C      1  0.6935103204816  0.4408464642101  0.2446676383053 1.0
C      1  0.5826105621901  0.3288272387413  0.2343803006986 1.0
C      1  0.4018356313521  0.3489332931916  0.2672308637924 1.0
C      1  0.2959120179334  0.4914914043169  0.2554485090177 1.0
C      1  0.5806239264207  0.5629046706181  0.0631773581457 1.0
C      1  0.6023929458565  0.4705643131619  0.0647695080866 1.0
C      1  0.5337725990419  0.4036901241956  0.0761769094633 1.0
C      1  0.4395775159395  0.4012252348713  0.0860034840338 1.0
C      1  0.3832990284720  0.4790249606261  0.0818984690326 1.0
C      1  0.4138910857965  0.5682468423989  0.0688687590896 1.0
C      1  0.4985830388856  0.6108136206449  0.0608907028925 1.0
C      1  0.7860103457636  0.7817752900538  0.6325800066641 1.0
C      1  0.9019232985712  0.4454372726867  0.6152497138164 1.0
C      1  0.7110875908445  0.1381574234156  0.6184725235860 1.0
C      1  0.3428196116463  0.1147454451154  0.5920904653890 1.0
C      1  0.1198248317260  0.3907110078932  0.5970321097418 1.0
C      1  0.1997228377225  0.7115289975765  0.6256693682741 1.0
C      1  0.4824586078883  0.8840842524954  0.6082527547602 1.0
C      1  0.7198652765845  0.3385434009480  0.7760019134879 1.0
C      1  0.5176557288650  0.2317170611376  0.7711916813647 1.0
C      1  0.3120424205755  0.3297649416994  0.7594559411110 1.0
C      1  0.2537014951951  0.5491710435090  0.7714132624654 1.0
C      1  0.3852170196167  0.7333833907563  0.8014099645435 1.0
C      1  0.6121030584463  0.7354508462946  0.7970372658136 1.0
C      1  0.7638127361946  0.5647406610609  0.7880826460689 1.0
C      1  0.5852442654689  0.4583940074501  0.6625818662266 1.0
C      1  0.5138051943147  0.3998346545987  0.6278500735400 1.0
C      1  0.4201741464899  0.4079824416682  0.6116121526308 1.0
C      1  0.3717373812497  0.4855176473167  0.6143145849885 1.0
C      1  0.4148614735360  0.5711751806693  0.6361341052005 1.0
C      1  0.5013116933650  0.5972222805659  0.6643634183654 1.0
C      1  0.5872341354499  0.5540220929981  0.6786280460583 1.0
C      1  0.5233560333225  0.6038657179791  0.8619399578900 1.0
C      1  0.6042550647215  0.5493715396556  0.8568912947581 1.0
C      1  0.6121169032180  0.4527268651243  0.8513315923960 1.0
C      1  0.5413050658337  0.3867635573072  0.8462655027682 1.0
C      1  0.4455120709108  0.4015710725329  0.8427915843700 1.0
C      1  0.3966455446769  0.4853368826944  0.8457949023015 1.0
C      1  0.4306396811231  0.5753794057449  0.8561173416386 1.0
C      1  0.2581124187022  0.7278496285107  0.5436801189361 1.0
C      1  0.5121866016714  0.8291102860894  0.5405645889121 1.0
C      1  0.8062692721458  0.7321767757761  0.5516294749272 1.0
C      1  0.8741712087207  0.3997417736802  0.5340555891669 1.0
C      1  0.6607173149462  0.1280851990548  0.5401261016568 1.0
C      1  0.3221066732880  0.1580072499785  0.5139122377806 1.0
C      1  0.1173012745370  0.4382411479241  0.5145805651488 1.0
C      1  0.8610597590930  0.6705228393562  0.5939190371679 1.0
C      1  0.8602086123985  0.3191648151430  0.5806147615570 1.0
C      1  0.5782871262744  0.0997047704816  0.5849462480761 1.0
C      1  0.2740839413636  0.2385063534938  0.5479177105305 1.0
C      1  0.1467095962120  0.5237358050788  0.5633157182890 1.0
C      1  0.2866209843493  0.8172651818621  0.5927368170355 1.0
C      1  0.5913385533609  0.7937827535430  0.5939420435247 1.0
C      1  0.7171974372741  0.2811886551766  0.3011816170556 1.0
C      1  0.4854016979034  0.2000980454116  0.2930287955982 1.0
C      1  0.2462604106674  0.3300873050994  0.2821897113928 1.0
C      1  0.1998222960870  0.6226181851268  0.2897621113491 1.0
C      1  0.3804109658685  0.7791594507590  0.2912065103063 1.0
C      1  0.6709093070533  0.7685371960080  0.2979728909470 1.0
C      1  0.7905731002271  0.5612766049733  0.3085752769589 1.0
C      1  0.3213362748311  0.3228147372141  0.4090263668019 1.0
C      1  0.2253013841845  0.5972811471483  0.4466266166647 1.0
C      1  0.3885698366063  0.7572514305687  0.4590580430482 1.0
C      1  0.6582224253391  0.7042045142492  0.4862528884075 1.0
C      1  0.7666637287682  0.5147658994966  0.5114996132111 1.0
C      1  0.6800523582839  0.2852432878954  0.5033313315731 1.0
C      1  0.4710542870063  0.2152107863680  0.4622497045841 1.0
C      1  0.5569146198939  0.4679141531042  0.5640066955268 1.0
C      1  0.4257626938178  0.5628318678536  0.3233665560637 1.0
END
