TITL C-45089-4864-3 -6.906 3375.00 -1213.85856654 0 0 146 (C4h) n - 1
REM
REM Run started: at 2020.12.27 18:59:00 in /rds/project/t2_vol4/rds-t2-cs072/BORA/CARBON/AIRSS/Generating-Clusters/Str-Search/Higher-Symm/C100-200
REM VASP from code version vasp.5.4.4.18Apr17-6-g9f103f2a35 (build Oct 11 2019 16:45:47) gamma-only
REM
REM
REM
REM
REM ./C.cell (533062f00bc710175b3da973d35f2034)
REM AIRSS Version 0.9.1 bugfix July 2018 build 013d7b7c2542+ Fri, 06 Jul 2018 19:26:36 +0100
REM compiler GCC version 4.8.5 20150623 (Red Hat 4.8.5-39)
REM options -cpp -mtune=generic -march=x86-64 -g -O0
REM seed 1150230878 -105943029 -404681212 1362869866 -472498984 -1989770433 -1227784702 1946150618 856784944 -1555944743 67648418 1580898287
REM
REM C.POTCAR (d86ddea03c3ceb6dc662c8ad6801f873)
REM 
CELL 1.54180   15.00000   15.00000   15.00000   90.00000   90.00000   90.00000
LATT -1
SFAC C  
C      1  0.4630587444335  0.4530057580669  0.1674221907235 1.0
C      1  0.8321309897133  0.4529895367035  0.4632726141272 1.0
C      1  0.5360958118885  0.4529974976792  0.8322607753158 1.0
C      1  0.1672256030155  0.4530109712521  0.5363661653617 1.0
C      1  0.4630350261193  0.5498566219317  0.1674583219404 1.0
C      1  0.8321103679472  0.5498627132870  0.4632411868653 1.0
C      1  0.5361021498623  0.5498646224724  0.8322337984628 1.0
C      1  0.1672149346459  0.5498754220171  0.5363742425176 1.0
C      1  0.3095082111380  0.7807889520142  0.6509905549823 1.0
C      1  0.3482898818215  0.7807060308134  0.3096705170004 1.0
C      1  0.6896573673050  0.7807300237304  0.3486885317202 1.0
C      1  0.6506577974699  0.7807387699039  0.6897274980507 1.0
C      1  0.3094483815459  0.2222731165681  0.6509257603974 1.0
C      1  0.3483416588913  0.2223090938271  0.3096703952518 1.0
C      1  0.6897059683644  0.2222687155538  0.3487097262377 1.0
C      1  0.6506476527279  0.2222572004555  0.6897808823817 1.0
C      1  0.4525182177565  0.5972308905352  0.8132541623324 1.0
C      1  0.1861915380543  0.5972559028969  0.4527729365946 1.0
C      1  0.5466228351551  0.5972190850928  0.1864706179470 1.0
C      1  0.8130703678308  0.5972088579492  0.5468435448868 1.0
C      1  0.4525160236413  0.4056264088152  0.8132886942040 1.0
C      1  0.1861966865607  0.4056523983621  0.4527802238704 1.0
C      1  0.5466455347748  0.4056477383947  0.1864311868385 1.0
C      1  0.8131055170236  0.4056438234148  0.5468611065490 1.0
C      1  0.6340133704772  0.4519212009264  0.2046535534380 1.0
C      1  0.7948610252481  0.4519156229939  0.6342266982417 1.0
C      1  0.3651775377015  0.4519269488504  0.7950518297478 1.0
C      1  0.2044103087399  0.4519411521888  0.3654480409281 1.0
C      1  0.6339827041335  0.5509269406416  0.2046879008062 1.0
C      1  0.7948000698009  0.5509159984394  0.6342121125497 1.0
C      1  0.3651902326544  0.5509198193680  0.7949969623003 1.0
C      1  0.2044514261932  0.5509360808792  0.3654670614183 1.0
C      1  0.3795754699159  0.4137717116439  0.1970406568939 1.0
C      1  0.8024960969734  0.4137317376686  0.3798024732362 1.0
C      1  0.6195492059513  0.4137029762486  0.8026101893362 1.0
C      1  0.1968602552675  0.4137835254370  0.6198275165170 1.0
C      1  0.3795774344123  0.5892065789651  0.1970976892890 1.0
C      1  0.8024410779515  0.5892316582729  0.3798219630160 1.0
C      1  0.6195312277038  0.5892618849178  0.8025446198195 1.0
C      1  0.1969038467362  0.5892222904698  0.6197867867225 1.0
C      1  0.2893943934364  0.4046797155119  0.7567915481472 1.0
C      1  0.2425495749246  0.4046717985023  0.2895988434008 1.0
C      1  0.7098803194650  0.4046598693535  0.2427785594537 1.0
C      1  0.7565796856660  0.4046620438577  0.7100100996719 1.0
C      1  0.2894343989044  0.5982816097593  0.7567440960474 1.0
C      1  0.2425782192536  0.5982801513774  0.2896128211957 1.0
C      1  0.7098332380280  0.5982871960956  0.2428173693544 1.0
C      1  0.7565240038422  0.5982869139643  0.7099718931303 1.0
C      1  0.3105310429801  0.3191091514666  0.6986581268287 1.0
C      1  0.3006837483922  0.3191478547615  0.3107176537061 1.0
C      1  0.6887757281740  0.3191005828250  0.3009085255829 1.0
C      1  0.6983984293846  0.3191294294215  0.6888706525728 1.0
C      1  0.3105580959513  0.6839026923579  0.6986207118057 1.0
C      1  0.3007041432473  0.6838415024801  0.3107271045213 1.0
C      1  0.6887425149615  0.6838988732862  0.3009542589606 1.0
C      1  0.6983686422542  0.6838732120392  0.6888301105937 1.0
C      1  0.4265707063865  0.3924333530653  0.6310126785347 1.0
C      1  0.3683034168295  0.3924404730609  0.4268086941757 1.0
C      1  0.5726365874492  0.3925040428187  0.3684964718659 1.0
C      1  0.6308750958198  0.3925417773548  0.5728100074234 1.0
C      1  0.4265335251717  0.6104300161995  0.6309774472676 1.0
C      1  0.3682845905286  0.6104252256911  0.4267639554680 1.0
C      1  0.5726688885772  0.6103499322277  0.3685055935856 1.0
C      1  0.6308199253564  0.6102990789464  0.5728163925219 1.0
C      1  0.4707993266301  0.7481768991181  0.2126605056136 1.0
C      1  0.7868519899154  0.7481603191907  0.4710813026108 1.0
C      1  0.5282609949709  0.7481711492952  0.7870741248181 1.0
C      1  0.2123662115234  0.7482822269479  0.5285680461941 1.0
C      1  0.4708708172558  0.2546346023222  0.2126083202463 1.0
C      1  0.7869139561648  0.2546670203509  0.4711551947757 1.0
C      1  0.5282185467655  0.2546427152848  0.7871089275172 1.0
C      1  0.2122867197536  0.2545778586998  0.5284830586912 1.0
C      1  0.7796577893137  0.4540766299865  0.2916836206502 1.0
C      1  0.7076423947473  0.4540937043533  0.7797335102631 1.0
C      1  0.2196640396509  0.4540997206615  0.7078875744931 1.0
C      1  0.2914541367566  0.4540743268762  0.2198282971094 1.0
C      1  0.7796110027657  0.5488599792577  0.2917120722374 1.0
C      1  0.7076046114530  0.5488584372824  0.7797156481905 1.0
C      1  0.2196834832504  0.5488701919861  0.7078621639027 1.0
C      1  0.2914648083313  0.5488630039445  0.2198365818249 1.0
C      1  0.6357748322436  0.2242971978371  0.5974901239694 1.0
C      1  0.4017176232448  0.2242604354987  0.6359763982260 1.0
C      1  0.3632916588690  0.2242767658328  0.4019258911544 1.0
C      1  0.5974448765916  0.2243072226728  0.3635520591415 1.0
C      1  0.6357811168105  0.7787046285622  0.5974297386949 1.0
C      1  0.4017860483116  0.7788017702995  0.6360288633451 1.0
C      1  0.3632297105088  0.7787533801073  0.4019484904932 1.0
C      1  0.5973732238794  0.7786999627618  0.3635516145026 1.0
C      1  0.7562450530698  0.8009378490629  0.4128583609426 1.0
C      1  0.5863843069490  0.8009002378149  0.7562379429190 1.0
C      1  0.2428647986167  0.8010609019726  0.5868388298507 1.0
C      1  0.4124406972787  0.8009237515932  0.2430574891205 1.0
C      1  0.7562735902089  0.2019970164852  0.4128565367658 1.0
C      1  0.5863886076105  0.2020130969857  0.7562489553776 1.0
C      1  0.2427721730729  0.2019297587216  0.5868417817029 1.0
C      1  0.4124484574398  0.2020328812318  0.2430499975004 1.0
C      1  0.7773611306134  0.6864926357421  0.5390553073568 1.0
C      1  0.4602753723863  0.6865232812904  0.7775786006655 1.0
C      1  0.2217822543297  0.6865983625222  0.4605696392806 1.0
C      1  0.5388183948829  0.6865433077769  0.2220820773075 1.0
C      1  0.7774285145294  0.3163522016278  0.5390811427861 1.0
C      1  0.4602477969929  0.3163209399251  0.7776299172376 1.0
C      1  0.2217602347672  0.3162871043526  0.4605526856276 1.0
C      1  0.5388489360418  0.3163017269757  0.2220225623904 1.0
C      1  0.3603217423535  0.4553150498445  0.4950826920672 1.0
C      1  0.5043080181511  0.4553143849544  0.3605741298592 1.0
C      1  0.6389351769832  0.4553190570699  0.5044597738541 1.0
C      1  0.4948193529971  0.4553174744936  0.6390179439311 1.0
C      1  0.3602788339053  0.5475599555631  0.4950527647508 1.0
C      1  0.5043138737323  0.5475487623058  0.3605663125309 1.0
C      1  0.6389243413488  0.5475437902252  0.5044813572274 1.0
C      1  0.4947762914762  0.5475524817524  0.6390416322208 1.0
C      1  0.5413147673156  0.1992462910304  0.4417000670039 1.0
C      1  0.5575893712997  0.1991920436951  0.5415166711820 1.0
C      1  0.4577208292871  0.1991251594157  0.5578072792280 1.0
C      1  0.4414654968985  0.1991724064559  0.4579253760106 1.0
C      1  0.5412838090004  0.8038218526035  0.4416825139286 1.0
C      1  0.5575822836333  0.8039054866473  0.5414910455907 1.0
C      1  0.4577349003405  0.8039890272312  0.5578325412092 1.0
C      1  0.4414148798481  0.8039039217785  0.4579396862908 1.0
C      1  0.5763776707893  0.5968362967801  0.6461833675259 1.0
C      1  0.3531403850417  0.5969087860023  0.5765698635618 1.0
C      1  0.4227536708943  0.5968548040898  0.3534150406471 1.0
C      1  0.6460839427435  0.5968245612322  0.4228975416730 1.0
C      1  0.5764498864214  0.4061197679637  0.6461985070111 1.0
C      1  0.3531571144198  0.4060721891508  0.5766559378791 1.0
C      1  0.4227071253417  0.4060921500032  0.3534019086819 1.0
C      1  0.6460916900641  0.4061021997128  0.4228594759395 1.0
C      1  0.3835111170915  0.6363473204546  0.2800050314171 1.0
C      1  0.7194978999894  0.6363582359315  0.3836842973768 1.0
C      1  0.6156210956712  0.6363402376390  0.7195787915939 1.0
C      1  0.2797824017752  0.6364553360837  0.6158062886247 1.0
C      1  0.3834279924003  0.3667481181805  0.2800027098578 1.0
C      1  0.7194969202244  0.3667257900687  0.3835902291149 1.0
C      1  0.6157233523326  0.3667456682065  0.7195942610593 1.0
C      1  0.2798016578345  0.3666849680288  0.6159240424700 1.0
C      1  0.3097918981745  0.6922050231233  0.4120519122432 1.0
C      1  0.5873577438355  0.6921915492081  0.3100754692349 1.0
C      1  0.6892754164223  0.6921478949276  0.5874694262217 1.0
C      1  0.4118702173322  0.6922271982762  0.6894969150867 1.0
C      1  0.3097954264882  0.3107342038133  0.4120493909315 1.0
C      1  0.5873853471983  0.3107381709730  0.3100321559897 1.0
C      1  0.6893079069223  0.3107778599699  0.5874907941960 1.0
C      1  0.4118572809373  0.3107125342999  0.6895276913711 1.0
C      1  0.4994138575506  0.7215094160391  0.4997932352247 1.0
C      1  0.4994575025039  0.2815438954911  0.4997940680487 1.0
END
