TITL C-45375-3122-10 -2.934 3375.00 -521.93037319 0 0 65 (C5) n - 1
REM
REM Run started: at 2020.11.23 04:44:34 in /rds/project/t2_vol4/rds-t2-cs072/BORA/CARBON/AIRSS/Generating-Clusters/Str-Search/Higher-Symm
REM VASP from code version vasp.5.4.4.18Apr17-6-g9f103f2a35 (build Oct 11 2019 16:45:47) gamma-only
REM
REM
REM
REM
REM ./C.cell (e5ae0387ce4d49c7c0135a1433873289)
REM AIRSS Version 0.9.1 bugfix July 2018 build 013d7b7c2542+ Fri, 06 Jul 2018 19:26:36 +0100
REM compiler GCC version 4.8.5 20150623 (Red Hat 4.8.5-39)
REM options -cpp -mtune=generic -march=x86-64 -g -O0
REM seed 679329944 -1858837013 -1837332268 1194916181 -883289305 1736673360 -1037710033 -982663338 -1799927082 2093503946 -1900065719 -1137748240
REM
REM C.POTCAR (d86ddea03c3ceb6dc662c8ad6801f873)
REM 
CELL 1.54180   15.00000   15.00000   15.00000   90.00000   90.00000   90.00000
LATT -1
SFAC C  
C      1  0.4769405077428  0.6477442944475  0.3914377391804 1.0
C      1  0.6321353858165  0.5682693599573  0.3907949713223 1.0
C      1  0.6045016975957  0.3944655376170  0.3895292407976 1.0
C      1  0.4326524135588  0.3677680180796  0.3904692434429 1.0
C      1  0.3529859128472  0.5244457063027  0.3908441292059 1.0
C      1  0.4621090455502  0.4238679550430  0.7089926965625 1.0
C      1  0.4173415391559  0.5129498987243  0.7094745891146 1.0
C      1  0.4875585178671  0.5824198140021  0.7098558420766 1.0
C      1  0.5760015499796  0.5366159778673  0.7090873593342 1.0
C      1  0.5600317886528  0.4387001511790  0.7091474465428 1.0
C      1  0.6862568168564  0.6476533805981  0.5742937747543 1.0
C      1  0.6986503892341  0.3678212169642  0.5733002860066 1.0
C      1  0.4364803579233  0.2701399584455  0.5734014699000 1.0
C      1  0.2625567250292  0.4894804348960  0.5745863060007 1.0
C      1  0.4168979498072  0.7225842189253  0.5752584771909 1.0
C      1  0.3357222678358  0.3568736467304  0.3851821884211 1.0
C      1  0.3116734855336  0.6129432329288  0.3863443225903 1.0
C      1  0.5481831229374  0.7146472514522  0.3866063829465 1.0
C      1  0.7169290512780  0.5200263917568  0.3847324936142 1.0
C      1  0.5861186843380  0.2985007066249  0.3844615764941 1.0
C      1  0.4964249472241  0.7654467098053  0.5418092496224 1.0
C      1  0.7509527303698  0.5850310888626  0.5396816254406 1.0
C      1  0.6589893364835  0.2868177544721  0.5392204904125 1.0
C      1  0.3470587979309  0.2829019916720  0.5396158211732 1.0
C      1  0.2465399036330  0.5784535887392  0.5411446531097 1.0
C      1  0.2690290346368  0.4016377800263  0.5489910544796 1.0
C      1  0.3349996523303  0.6894958645074  0.5501136119335 1.0
C      1  0.6293425322635  0.7155210655204  0.5499919225959 1.0
C      1  0.7449965376798  0.4429812037626  0.5481542954460 1.0
C      1  0.5221149381198  0.2491359077526  0.5480775198984 1.0
C      1  0.5153134075913  0.3500919419895  0.3354810930624 1.0
C      1  0.3606985603691  0.4402340696360  0.3357358057572 1.0
C      1  0.3987782069542  0.6140219361583  0.3369675198503 1.0
C      1  0.5755322614914  0.6320380647236  0.3367455068193 1.0
C      1  0.6474043569625  0.4679798961722  0.3350259854427 1.0
C      1  0.4250053513375  0.4648840147133  0.2639073375718 1.0
C      1  0.4417478393966  0.5611621249190  0.2639669553923 1.0
C      1  0.5378791782529  0.5748509960508  0.2638396138643 1.0
C      1  0.5806628395316  0.4869273160896  0.2636973001876 1.0
C      1  0.5109748689739  0.4191566062634  0.2630600808614 1.0
C      1  0.2992099930648  0.6198729916473  0.6070300303653 1.0
C      1  0.5523043476823  0.7278410104562  0.6073074682618 1.0
C      1  0.7334483642599  0.5201590277498  0.6054738154575 1.0
C      1  0.5921491115729  0.2838624137769  0.6051866418510 1.0
C      1  0.3240412381049  0.3456047131902  0.6057503637440 1.0
C      1  0.5881679322564  0.2606329681664  0.4707005995409 1.0
C      1  0.3003618729186  0.3428136090052  0.4714807011564 1.0
C      1  0.2879098176620  0.6417849838765  0.4727682475891 1.0
C      1  0.5689852168379  0.7459311429311  0.4729702011956 1.0
C      1  0.7536282389431  0.5098571080070  0.4710020862997 1.0
C      1  0.5594212308218  0.4362582670969  0.5695957613332 1.0
C      1  0.4585187490901  0.4240086959184  0.5700441130301 1.0
C      1  0.4153609911400  0.5161128094299  0.5703742912389 1.0
C      1  0.4895041772815  0.5855009951556  0.5705020134391 1.0
C      1  0.5783798016945  0.5360640205429  0.5704228469330 1.0
C      1  0.5768952767983  0.5397672067632  0.4657275503152 1.0
C      1  0.5617208958776  0.4390230185435  0.4654218283095 1.0
C      1  0.4613560880115  0.4228189111459  0.4654599820279 1.0
C      1  0.4145053529752  0.5134257818575  0.4659222310306 1.0
C      1  0.4860126910897  0.5856718874388  0.4663121982058 1.0
C      1  0.6481913055637  0.5670725409289  0.6374788782819 1.0
C      1  0.6104829737494  0.3796586890139  0.6368068807119 1.0
C      1  0.4208782036444  0.3575162925679  0.6370665236792 1.0
C      1  0.3410369947452  0.5314227429466  0.6378698787685 1.0
C      1  0.4813568431418  0.6606309974657  0.6382968888146 1.0
END
