TITL C-45089-4864-5 -7.042 3375.00 -1139.79661188 0 0 141 (C1) n - 1
REM
REM Run started: at 2020.12.27 21:34:10 in /rds/project/t2_vol4/rds-t2-cs072/BORA/CARBON/AIRSS/Generating-Clusters/Str-Search/Higher-Symm/C100-200
REM VASP from code version vasp.5.4.4.18Apr17-6-g9f103f2a35 (build Oct 11 2019 16:45:47) gamma-only
REM
REM
REM
REM
REM ./C.cell (533062f00bc710175b3da973d35f2034)
REM AIRSS Version 0.9.1 bugfix July 2018 build 013d7b7c2542+ Fri, 06 Jul 2018 19:26:36 +0100
REM compiler GCC version 4.8.5 20150623 (Red Hat 4.8.5-39)
REM options -cpp -mtune=generic -march=x86-64 -g -O0
REM seed 771803328 -1961790460 -107789148 470442394 1774479113 469401911 -1692327701 -1534570308 247635453 -1918946073 -785319073 -1723573056
REM
REM C.POTCAR (d86ddea03c3ceb6dc662c8ad6801f873)
REM 
CELL 1.54180   15.00000   15.00000   15.00000   90.00000   90.00000   90.00000
LATT -1
SFAC C  
C      1  0.5408975697321  0.8608299188677  0.6717666429797 1.0
C      1  0.3029452183811  0.8540259061370  0.6660880731573 1.0
C      1  0.1132702942190  0.6718331758428  0.6565893260776 1.0
C      1  0.1793264879734  0.4556202436142  0.6575578941920 1.0
C      1  0.1968389749317  0.2046816630422  0.6562633284135 1.0
C      1  0.3691672755470  0.0119107246130  0.6710349078773 1.0
C      1  0.5966268967277  0.1460225853689  0.6988807435121 1.0
C      1  0.8249083591803  0.1518010904295  0.7297999702907 1.0
C      1  0.8676436115977  0.4523982395464  0.6708442739575 1.0
C      1  0.0220668972510  0.6655699725601  0.6565851803866 1.0
C      1  0.7911818639593  0.7935996132691  0.6691181646250 1.0
C      1  0.4375690835200  0.6522414543134  0.6213903432778 1.0
C      1  0.3953706505022  0.5788085480743  0.6728543273242 1.0
C      1  0.3241470707359  0.5193264725335  0.6726871973191 1.0
C      1  0.3567476267038  0.4291066488856  0.6807357478946 1.0
C      1  0.4179273774719  0.3744787987346  0.6675309555545 1.0
C      1  0.5073588632822  0.3510515782892  0.6811904748736 1.0
C      1  0.5874895096218  0.3845802789314  0.6535399546023 1.0
C      1  0.5981453679207  0.4608552295697  0.5866619447770 1.0
C      1  0.6490576880247  0.5438600627412  0.6129977659038 1.0
C      1  0.6115596689646  0.6189457890766  0.6229833879132 1.0
C      1  0.5253622048298  0.6362564972081  0.6564613197848 1.0
C      1  0.6020800222601  0.3531006696269  0.2156719538875 1.0
C      1  0.6692625248257  0.7432112252290  0.2172475415749 1.0
C      1  0.5974870461767  0.7033048416187  0.2120560748952 1.0
C      1  0.5198266606045  0.6543032438237  0.2241859028656 1.0
C      1  0.4749856769838  0.6075372523279  0.1594233547144 1.0
C      1  0.4100060457658  0.5380922158157  0.1408089816321 1.0
C      1  0.3552018280444  0.4683809343742  0.1565548434320 1.0
C      1  0.3379494854092  0.3858758228324  0.1508701695402 1.0
C      1  0.3851840268081  0.3115006371900  0.1528105335838 1.0
C      1  0.4564678871555  0.2656972187746  0.1541215862591 1.0
C      1  0.5378199704966  0.3070578929895  0.1640002567832 1.0
C      1  0.8293074477099  0.7918070824211  0.2135007376380 1.0
C      1  0.7100780516639  0.8835762366546  0.3929035365735 1.0
C      1  0.3897995376791  0.9060660608443  0.2217170976149 1.0
C      1  0.1682864866589  0.7959885422996  0.1805934912001 1.0
C      1  0.1055071024555  0.5811891127331  0.2891717363546 1.0
C      1  0.0702541382584  0.3750181631518  0.3778219790996 1.0
C      1  0.2622212208926  0.1783940837451  0.3279538351226 1.0
C      1  0.4499009791001  0.1343675994774  0.3058335520262 1.0
C      1  0.6917537150499  0.1149420489992  0.4854297286988 1.0
C      1  0.8262715582235  0.3132295553169  0.4193629962939 1.0
C      1  0.8499287921993  0.5673526017810  0.2545575355254 1.0
C      1  0.3104199411155  0.3152185721265  0.4048893684120 1.0
C      1  0.4833409137062  0.2780513371073  0.3814156179255 1.0
C      1  0.5678054231294  0.3267333366474  0.3716912889835 1.0
C      1  0.6206462794179  0.3738177754306  0.3062040459225 1.0
C      1  0.6566809605986  0.4559419327766  0.3378352387420 1.0
C      1  0.6890008205899  0.5451554713435  0.3116505505917 1.0
C      1  0.4927250023782  0.6329272838822  0.3168903595026 1.0
C      1  0.4230586944726  0.6801772561749  0.3743181067067 1.0
C      1  0.3316685145298  0.6554233020414  0.3951545790911 1.0
C      1  0.2576245958321  0.5941920651650  0.3717151729967 1.0
C      1  0.2408378916536  0.3806965989728  0.4085496403432 1.0
C      1  0.4471422302915  0.0559760435204  0.2768069473294 1.0
C      1  0.6841699216139  0.0278451217962  0.4785858764420 1.0
C      1  0.9025317134924  0.3481685765372  0.3941314064980 1.0
C      1  0.9375232655983  0.5707603686952  0.2533592742577 1.0
C      1  0.9116044882226  0.7956431043203  0.1983834990957 1.0
C      1  0.6920262359654  0.9511189314537  0.4467110997946 1.0
C      1  0.4318123430035  0.9752095312707  0.2464385764168 1.0
C      1  0.2516107648135  0.8147459217224  0.1876293737955 1.0
C      1  0.0213868698288  0.5757582735356  0.2658037525022 1.0
C      1 -0.0167995192007  0.3649601848530  0.3798923517632 1.0
C      1  0.2019792585892  0.1241680584678  0.3012706721914 1.0
C      1  0.5731337076890  0.7179058761847  0.8859996221430 1.0
C      1  0.4833768073505  0.7018814059075  0.8954037118030 1.0
C      1  0.3448622537391  0.5895090586006  0.9189354126476 1.0
C      1  0.3461984870424  0.5034367841443  0.9221374994763 1.0
C      1  0.3926842968123  0.4273499803314  0.9216186610410 1.0
C      1  0.4563284034095  0.3703618614863  0.9142877786190 1.0
C      1  0.5462255947054  0.3502620188952  0.9063100494463 1.0
C      1  0.6635750145297  0.4197452584529  0.8895945024372 1.0
C      1  0.6957686039447  0.5063138583933  0.8811677786025 1.0
C      1  0.6840325702411  0.5911344193247  0.8797073588741 1.0
C      1  0.6452887094405  0.6713620657375  0.8790021348309 1.0
C      1  0.9339867554967  0.6988446797076  0.6599652647295 1.0
C      1  0.7083032789760  0.8232305586221  0.6711359799635 1.0
C      1  0.4599669761573  0.8787578749392  0.6716420250707 1.0
C      1  0.2506397813368  0.7893321358265  0.6629768591733 1.0
C      1  0.1918106854493  0.6205065270676  0.6586393788328 1.0
C      1  0.1692878586131  0.3730123019086  0.6565747755607 1.0
C      1  0.2397994965160  0.1273804833263  0.6586663998922 1.0
C      1  0.4482529241700  0.0607135507545  0.6805350740803 1.0
C      1  0.6695867261606  0.1853071243578  0.7041997777908 1.0
C      1  0.7857715139659  0.3028794190339  0.6928133599799 1.0
C      1  0.9091411802292  0.5241816575847  0.6626643263014 1.0
C      1  0.6103102337114  0.4338246826316  0.4937962314837 1.0
C      1  0.6404069188109  0.4898381327897  0.4258867096132 1.0
C      1  0.6363829298351  0.5835378955474  0.3934244461891 1.0
C      1  0.5601985407708  0.6421551128208  0.3959040792606 1.0
C      1  0.4826443364990  0.6764720839735  0.4489931523566 1.0
C      1  0.3383720747900  0.6187841219097  0.4823349780806 1.0
C      1  0.2901636252018  0.5398539375458  0.4533562972182 1.0
C      1  0.3001460695981  0.4463904552922  0.4530519479969 1.0
C      1  0.3718431178516  0.3722475647624  0.4536932890040 1.0
C      1  0.4599336089948  0.3426041246598  0.4532069744806 1.0
C      1  0.5545554023800  0.3687887696813  0.4559500897275 1.0
C      1  0.9486214883626  0.6050041778965  0.6582217257902 1.0
C      1  0.8664794026327  0.7580910554261  0.6658027431762 1.0
C      1  0.6268969643180  0.8415423295483  0.6715291266923 1.0
C      1  0.3737653027736  0.9139270475219  0.6699445914155 1.0
C      1  0.1979453825800  0.7156633150197  0.6597364367750 1.0
C      1  0.2288966545534  0.5350721773685  0.6621377995495 1.0
C      1  0.1721247593128  0.2843554360075  0.6554971169198 1.0
C      1  0.2923530983629  0.0630968565007  0.6628995339132 1.0
C      1  0.5184982163100  0.1040107699321  0.6897637825774 1.0
C      1  0.7588934146083  0.2142324201860  0.7090491907524 1.0
C      1  0.8254687398229  0.3749473704353  0.6815787586138 1.0
C      1  0.7189507967630  0.1928893012419  0.4717225379552 1.0
C      1  0.7653349414256  0.2625984563405  0.4466955168045 1.0
C      1  0.7666722517590  0.5645595511124  0.2698063078345 1.0
C      1  0.7443772688497  0.7893114018462  0.2490115431758 1.0
C      1  0.7301080049617  0.8349100020857  0.3291609710720 1.0
C      1  0.3293150601355  0.8479293097371  0.2007527324369 1.0
C      1  0.0824735303489  0.7914662691923  0.1812744996699 1.0
C      1  0.1833024339672  0.5897216720613  0.3218674129490 1.0
C      1  0.1527248171944  0.3797703292996  0.3868618875779 1.0
C      1  0.3279115465803  0.2325774672905  0.3622073233998 1.0
C      1  0.4253202451891  0.2126039457402  0.3484209323758 1.0
C      1  0.5313612564251  0.5333564188717  0.9390882409605 1.0
C      1  0.6032275068327  0.3702103070697  0.8294671097894 1.0
C      1  0.4279366987401  0.6345672582782  0.5248993187754 1.0
C      1  0.4885884826649  0.5444871331617  0.6841648850041 1.0
C      1  0.5261324221043  0.4935349291593  0.7612411765494 1.0
C      1  0.5202474543898  0.5293459311096  0.8436603663763 1.0
C      1  0.4864592641142  0.5523509944608  0.0878168836337 1.0
C      1  0.4053202767248  0.6575167576144  0.9065789941921 1.0
C      1  0.4665780608285  0.5116034303217  0.4226346721048 1.0
C      1  0.5903518954969  0.3764284321230  0.1274261820470 1.0
C      1  0.4655455110528  0.5332140101838  0.5142288880135 1.0
C      1 -0.0019633703003  0.7934207838123  0.1870417838970 1.0
C      1  0.5646673111446  0.4044764852674  0.7476249343872 1.0
C      1  0.4884555458662  0.6001250078178  0.8948629627979 1.0
C      1  0.8823674444009  0.0913866059285  0.7473297565708 1.0
C      1  0.6186152630183  0.3806427883440  0.9680780023304 1.0
C      1  0.5059186474931  0.5026651900007  0.5900566126725 1.0
C      1  0.5455210218395  0.5061638221138  0.0280776195504 1.0
C      1  0.4625224863686  0.5375301492427  0.3422090103123 1.0
C      1  0.5937876404227  0.4290555396112  0.0479949525877 1.0
END
