TITL C-4675-8135-28 -7.505 3375.00 -1329.35749722 0 0 162 (C1) n - 1
REM
REM Run started: at 2020.12.30 01:36:57 in /gpfs/home/chem/mssmkc/CARBON/AIRSS/Generating-Clusters/Str-Search/Higher-Symm/C100-200
REM VASP from code version vasp.5.4.4.18Apr17-6-g9f103f2a35 (build Oct 11 2019 16:45:47) gamma-only
REM
REM
REM
REM
REM ./C.cell (533062f00bc710175b3da973d35f2034)
REM AIRSS Version 0.9.1 bugfix July 2018 build 013d7b7c2542+ Fri, 06 Jul 2018 19:26:36 +0100
REM compiler GCC version 6.3.0
REM options -cpp -iprefix /gpfs/warwick/csc/orac/software/Core/GCCcore/6.3.0/bin/../lib/gcc/x86_64-pc-linux-gnu/6.3.0/ -mtune=generic -march=x86-64 -g -O0
REM seed -986700609 275142276 2104888365 -2012861756 1661795428 -167752019 -1795347716 -1233877503 1893015759 398905779 -726434691 -1440316240
REM
REM C.POTCAR (d86ddea03c3ceb6dc662c8ad6801f873)
REM 
CELL 1.54180   15.00000   15.00000   15.00000   90.00000   90.00000   90.00000
LATT -1
SFAC C  
C      1  0.8083858011365  0.6374145185787  0.3105484983971 1.0
C      1  0.5501604539390  0.2617366432174  0.2394435827805 1.0
C      1  0.2854033377098  0.5351847738668  0.8051549730898 1.0
C      1  0.6710758723325  0.2016737591694  0.3419922844884 1.0
C      1  0.4536870582323  0.2791238647530  0.2415604985095 1.0
C      1  0.8425576170922  0.6295446519682  0.3986104703766 1.0
C      1  0.2996416666629  0.2188871671291  0.4693061602683 1.0
C      1  0.7767468569601  0.6202220657853  0.4744419596669 1.0
C      1  0.4024927276691  0.7011107949364  0.2866804700408 1.0
C      1  0.4698772361418  0.8334183861018  0.3525777067711 1.0
C      1  0.3481076429173  0.5678906166064  0.8764337891431 1.0
C      1  0.5227489703270  0.8415315127050  0.4305925242638 1.0
C      1  0.4331661601519  0.5217993571719  0.8590112957211 1.0
C      1  0.5465130556954  0.5692706229639  0.2055242518465 1.0
C      1  0.7808066835058  0.6405872001733  0.5842684401088 1.0
C      1  0.6841308276165  0.4843790775151  0.4489859811838 1.0
C      1  0.1869633910519  0.4470458497979  0.5681347716098 1.0
C      1  0.6259951268963  0.5805459250465  0.6236798439183 1.0
C      1  0.7308708030940  0.2604808246757  0.4657766026681 1.0
C      1  0.6947426139096  0.5282521245946  0.6525736928644 1.0
C      1  0.2609787551904  0.2838556809733  0.4082104274174 1.0
C      1  0.4908371597505  0.3874077706145  0.3787271500411 1.0
C      1  0.5829760668051  0.3985155428149  0.6495616465585 1.0
C      1  0.6588400525608  0.7441734971656  0.4743687544139 1.0
C      1  0.1355580878599  0.5983833567828  0.3787428750265 1.0
C      1  0.1551334930404  0.5235465135603  0.5244172996946 1.0
C      1  0.7320270810518  0.7131847615239  0.6173704216951 1.0
C      1  0.7698440429277  0.3680620808251  0.1927451365993 1.0
C      1  0.1670340907524  0.4337179913110  0.3874584424513 1.0
C      1  0.3360436897231  0.4163892281037  0.6544627873418 1.0
C      1  0.6082972829726  0.7566710218504  0.3295450561771 1.0
C      1  0.3803462008539  0.3815811947523  0.5022637633649 1.0
C      1  0.6638235858602  0.3976015029301  0.8979231092669 1.0
C      1  0.3914745766031  0.5428281231230  0.7758200652130 1.0
C      1  0.8022892033191  0.4421678423122  0.1731910919860 1.0
C      1  0.1837489979446  0.3538635629499  0.5385791656695 1.0
C      1  0.2430106521271  0.3969819250243  0.2373451070700 1.0
C      1  0.7089903731432  0.3140797523660  0.2328666382300 1.0
C      1  0.6246152424517  0.4188339321067  0.0569692683771 1.0
C      1  0.4310399305812  0.2810001969156  0.6246957955404 1.0
C      1  0.6818307851384  0.5596171829881  0.8312177018011 1.0
C      1  0.3510435153605  0.6330442200134  0.2334005336020 1.0
C      1  0.8751171684149  0.5388336192105  0.3645103434383 1.0
C      1  0.2240403659867  0.5967123965698  0.7593094034035 1.0
C      1  0.3331398352912  0.5300508341341  0.2233098906518 1.0
C      1  0.1389863494696  0.5171210730088  0.4296795634710 1.0
C      1  0.8316779719699  0.3420651825259  0.5312540996474 1.0
C      1  0.4993458670109  0.5044613694422  0.5415660746820 1.0
C      1  0.4076976871652  0.3555129707737  0.4152635022019 1.0
C      1  0.6463307119873  0.6621135681371  0.3370776799073 1.0
C      1  0.2133927465026  0.7448482523455  0.3312080302152 1.0
C      1  0.2275292569739  0.2910503973065  0.5974278784689 1.0
C      1  0.7719610933180  0.5186063635597  0.4632924653076 1.0
C      1  0.5835747769605  0.1929358868513  0.3003020643056 1.0
C      1  0.4214127888668  0.6636498596536  0.3773426730032 1.0
C      1  0.3206902750541  0.4508085766606  0.5025325280839 1.0
C      1  0.3020691473841  0.8231069494738  0.6142063648764 1.0
C      1  0.5279822026273  0.6658409654954  0.1804284930247 1.0
C      1  0.4157746271924  0.6004207404259  0.7042801160478 1.0
C      1  0.6797296997240  0.7698510255065  0.5586083586748 1.0
C      1  0.2786452965444  0.7978376617477  0.3294502792866 1.0
C      1  0.5760626989435  0.3519172357859  0.4125398938601 1.0
C      1  0.6758527275543  0.2678284914668  0.6895172407244 1.0
C      1  0.3987489452026  0.2378644121314  0.3096772236973 1.0
C      1  0.7696689938446  0.2650431042636  0.5458786240825 1.0
C      1  0.4824133042067  0.8187023301034  0.7581227258015 1.0
C      1  0.6266249626797  0.1822532550703  0.5472867794563 1.0
C      1  0.6074572981898  0.7950682948635  0.4135332104741 1.0
C      1  0.3891772149150  0.1773779802943  0.4617928329117 1.0
C      1  0.8454995279959  0.4707279639262  0.4254205253434 1.0
C      1  0.6909480622628  0.4699460181030  0.8454485121173 1.0
C      1  0.2559360326637  0.7520220608208  0.5697038609960 1.0
C      1  0.8016283692010  0.5296843662285  0.2006516044148 1.0
C      1  0.3370544826993  0.3101054414586  0.3475080549416 1.0
C      1  0.7168680213110  0.5839488264782  0.1976013576339 1.0
C      1  0.2110974008509  0.6039133198736  0.5503138409377 1.0
C      1  0.5332237537789  0.8428499046403  0.6094474905588 1.0
C      1  0.2032380536407  0.6515977493916  0.7005297356621 1.0
C      1  0.5797181705087  0.2993266002096  0.6919454977833 1.0
C      1  0.3035876525982  0.5659061149314  0.5805495445718 1.0
C      1  0.5737014670030  0.5667991468487  0.5418850516148 1.0
C      1  0.4840416070276  0.7271083497917  0.2362604564685 1.0
C      1  0.2401588127387  0.4888092463069  0.2263508425871 1.0
C      1  0.8399753094886  0.3936861901601  0.6091500314644 1.0
C      1  0.5971933900499  0.4271398195979  0.2165372102461 1.0
C      1  0.3644408907933  0.2061014006535  0.6153208183441 1.0
C      1  0.3415006963428  0.5474951011335  0.4832247175253 1.0
C      1  0.1973081012332  0.3503567959139  0.4404842261266 1.0
C      1  0.5535937491270  0.5035106626206  0.2815224454268 1.0
C      1  0.4634341147381  0.2492186143311  0.8082344142944 1.0
C      1  0.6724787972289  0.4360598255853  0.6513898005444 1.0
C      1  0.2935231383562  0.7135855433346  0.4847295395385 1.0
C      1  0.3797987878128  0.7317036471148  0.4405639272085 1.0
C      1  0.6319284945980  0.5629394905281  0.1477238142569 1.0
C      1  0.7833913887347  0.5561165990109  0.6391439616021 1.0
C      1  0.7648835980308  0.3969706532666  0.6727318929292 1.0
C      1  0.5165612676375  0.2483167760474  0.6355341499994 1.0
C      1  0.4795039053320  0.5982239226281  0.4023567060446 1.0
C      1  0.5282800582327  0.7890322878715  0.2875198803598 1.0
C      1  0.3685953867280  0.2444842755542  0.8010057130703 1.0
C      1  0.4355698005217  0.7502467108228  0.5233620746251 1.0
C      1  0.3288733930230  0.3655394183813  0.2655639941014 1.0
C      1  0.3931978044011  0.4463816602904  0.2561379516762 1.0
C      1  0.2589698085494  0.2967226438472  0.6914172431661 1.0
C      1  0.2842273750348  0.2270285368756  0.5597248260354 1.0
C      1  0.1879336847688  0.4435844876039  0.2964197338722 1.0
C      1  0.1606287702701  0.6721841317052  0.3485626754893 1.0
C      1  0.6587182473387  0.6364627507665  0.8092853085241 1.0
C      1  0.8299689698546  0.4726735554154  0.6516425089181 1.0
C      1  0.5566937793510  0.6305344262614  0.6218511767489 1.0
C      1  0.7199200951598  0.6386632018317  0.2740207062606 1.0
C      1  0.7306092210202  0.3313888390523  0.7402516838983 1.0
C      1  0.6704362359875  0.7507396270014  0.6913016783345 1.0
C      1  0.5730696197022  0.5794672916238  0.3635603871538 1.0
C      1  0.4879725619662  0.6705141561584  0.6796470685424 1.0
C      1  0.2825526084557  0.4681902293970  0.5944796883811 1.0
C      1  0.6215375432601  0.4645314403480  0.1359181987811 1.0
C      1  0.6236942666112  0.5676376476794  0.4536705344656 1.0
C      1  0.6645437695607  0.3960475666288  0.4200278698349 1.0
C      1  0.6119024898728  0.3301834522094  0.2228940588418 1.0
C      1  0.3983273761993  0.7257082171551  0.8821438237158 1.0
C      1  0.7022494604478  0.3792047423738  0.8152136295600 1.0
C      1  0.7275983997725  0.2712765997674  0.3167739314040 1.0
C      1  0.4945605266112  0.8223523014062  0.5211012189429 1.0
C      1  0.3754732200078  0.7902998804848  0.3494275848594 1.0
C      1  0.3680225112201  0.6208765161233  0.6278733912401 1.0
C      1  0.8578416133535  0.5635978473562  0.2708960810348 1.0
C      1  0.3704085171915  0.8583645235381  0.6465768526217 1.0
C      1  0.2727448901234  0.6251039849982  0.4763599932278 1.0
C      1  0.4621773540578  0.8586265656855  0.6738985370256 1.0
C      1  0.6963402354671  0.2304644515935  0.6052138810504 1.0
C      1  0.4333956610051  0.1836793239007  0.3773095299992 1.0
C      1  0.5272605730930  0.7294321220019  0.7585998758844 1.0
C      1  0.3145821492136  0.2882117558156  0.8640201602439 1.0
C      1  0.6271567768309  0.7119366605042  0.7650480405127 1.0
C      1  0.4749011634445  0.4510871993314  0.3115792227763 1.0
C      1  0.2639406093510  0.4352575014721  0.8034689765404 1.0
C      1  0.3271246658291  0.2307916082594  0.7135143395161 1.0
C      1  0.4799208764552  0.5890588192773  0.1353022072635 1.0
C      1  0.2788921007988  0.3863938623113  0.7245801735248 1.0
C      1  0.5316590999607  0.2837444697366  0.7776628823111 1.0
C      1  0.5749602224749  0.2571810670947  0.4250723188847 1.0
C      1  0.3578251184197  0.6574671477192  0.9055544931947 1.0
C      1  0.2018817248961  0.6837756502854  0.6105573268940 1.0
C      1  0.8311174193179  0.3742525843502  0.4410389694626 1.0
C      1  0.6554955038136  0.2058681453560  0.4503310401755 1.0
C      1  0.6306017849432  0.3874294969858  0.9813963845324 1.0
C      1  0.4329587578586  0.1612865678109  0.5447628897500 1.0
C      1  0.5262216797459  0.1848486613932  0.3757101915240 1.0
C      1  0.7507072643403  0.3275503799382  0.3992845713212 1.0
C      1  0.5681837411178  0.6339637785369  0.0924174114188 1.0
C      1  0.5324577314973  0.1791220199340  0.5734206554701 1.0
C      1  0.4055824649023  0.3538893398953  0.2069891951118 1.0
C      1  0.4588272225901  0.7654206309038  0.8256706148910 1.0
C      1  0.2808605672957  0.3658623118909  0.8630143684346 1.0
C      1  0.4151673309570  0.3741435184673  0.6041315500236 1.0
C      1  0.4418255182419  0.5480732798222  0.4768684279870 1.0
C      1  0.6841124106523  0.6542970721675  0.4386246470982 1.0
C      1  0.5016905969574  0.4308936100976  0.6045215705852 1.0
C      1  0.3860140284038  0.5904468027955  0.1626138587728 1.0
C      1  0.6230566164038  0.8100379786959  0.6258712747987 1.0
C      1  0.4228010982420  0.6948232999344  0.6004764391910 1.0
END
