TITL C-4646-6725-47 -2.82 3375.00 -480.64132108 0 0 60 (C1) n - 1
REM
REM Run started: at 2020.11.27 15:05:56 in /rds/project/t2_vol4/rds-t2-cs072/BORA/CARBON/AIRSS/Generating-Clusters/Str-Search/Higher-Symm/Only-C60
REM VASP from code version vasp.5.4.4.18Apr17-6-g9f103f2a35 (build Oct 11 2019 16:45:47) gamma-only
REM
REM
REM
REM
REM ./C.cell (5f7b7a0d59291d2373303da1f58b8d66)
REM AIRSS Version 0.9.1 bugfix July 2018 build 013d7b7c2542+ Fri, 06 Jul 2018 19:26:36 +0100
REM compiler GCC version 4.8.5 20150623 (Red Hat 4.8.5-39)
REM options -cpp -mtune=generic -march=x86-64 -g -O0
REM seed -240002435 686686329 1146738276 -637428138 -215980026 -1049496319 285679089 -340458443 -280220798 -385250224 -905970946 196053572
REM
REM C.POTCAR (d86ddea03c3ceb6dc662c8ad6801f873)
REM 
CELL 1.54180   15.00000   15.00000   15.00000   90.00000   90.00000   90.00000
LATT -1
SFAC C  
C      1  0.4732879744779  0.6208708509330  0.2622466570017 1.0
C      1  0.4055375931788  0.5458268205444  0.2784160588526 1.0
C      1  0.3970136757425  0.4429194459995  0.2617295796592 1.0
C      1  0.4682802477618  0.3787748293845  0.2795936853808 1.0
C      1  0.5599247472469  0.4056872971521  0.2699518942796 1.0
C      1  0.6050006593251  0.4932759173186  0.2651496823770 1.0
C      1  0.5651507650052  0.5811419735890  0.2800454203975 1.0
C      1  0.6453026097731  0.6881101568795  0.3970986101639 1.0
C      1  0.4667236823455  0.7014190654774  0.4151169958089 1.0
C      1  0.2803172799544  0.5919227839340  0.3920975708315 1.0
C      1  0.3231596127425  0.4129807924469  0.4051708159153 1.0
C      1  0.4479760635892  0.2726659596631  0.4183765919588 1.0
C      1  0.6214641680645  0.3416131548248  0.4147356772580 1.0
C      1  0.7045794810523  0.4991857325789  0.3972836365208 1.0
C      1  0.6728856946163  0.4098585520658  0.6256971013750 1.0
C      1  0.6588562521723  0.5649452635436  0.6117443990272 1.0
C      1  0.5416926064452  0.6755167068165  0.6159667212173 1.0
C      1  0.3889649770546  0.6450591560179  0.6119252375205 1.0
C      1  0.3121035574159  0.5037208909378  0.6148419592618 1.0
C      1  0.3839793961179  0.3618174927247  0.6304297044558 1.0
C      1  0.5447584180595  0.3142950605940  0.6337767028677 1.0
C      1  0.4270194773476  0.5860179012854  0.6811523897619 1.0
C      1  0.3630850631255  0.5081242029487  0.6931942644365 1.0
C      1  0.4043657606476  0.4190198064410  0.7062933719163 1.0
C      1  0.5490947684712  0.3710937428456  0.7106552008277 1.0
C      1  0.6206435055082  0.4365555105153  0.6992841100693 1.0
C      1  0.5948225563043  0.5343255717171  0.6815180168053 1.0
C      1  0.5268499594956  0.6147786281595  0.6910306403724 1.0
C      1  0.6142051967896  0.6361072544003  0.5535535280536 1.0
C      1  0.4568284282864  0.7022637792147  0.5758645751557 1.0
C      1  0.3320361921875  0.5848439561631  0.5524739745126 1.0
C      1  0.3166157176506  0.4106905565596  0.5802668007890 1.0
C      1  0.4549494826720  0.3047365384552  0.5914264413041 1.0
C      1  0.6298305698395  0.3298901575309  0.5835378378669 1.0
C      1  0.7032189364827  0.4894158377348  0.5768712924089 1.0
C      1  0.4864040263900  0.4299412150768  0.4883498279409 1.0
C      1  0.5683933358228  0.4196753764470  0.4452506474987 1.0
C      1  0.6181095402189  0.5004462700008  0.4495639387879 1.0
C      1  0.5602826100342  0.5707094656537  0.4905908784617 1.0
C      1  0.4758362437380  0.6004903364835  0.4322866171560 1.0
C      1  0.4109131367729  0.5453916849413  0.4936270103824 1.0
C      1  0.3971343772147  0.4516241517816  0.4577500202355 1.0
C      1  0.4548674788199  0.7441374984822  0.4913706021787 1.0
C      1  0.2756871233319  0.6084363066267  0.4738636772193 1.0
C      1  0.3027727079698  0.3978683682783  0.4889213765768 1.0
C      1  0.4425026309456  0.2684697479414  0.5047564831290 1.0
C      1  0.6455175041838  0.3115108839591  0.4948977776697 1.0
C      1  0.7205534762381  0.4880783181637  0.4826745404681 1.0
C      1  0.6577393653101  0.6871385806080  0.4791199079224 1.0
C      1  0.3139736556440  0.5451809122389  0.3194837336170 1.0
C      1  0.3173676454166  0.4478425541149  0.3147298183322 1.0
C      1  0.4488538722355  0.3092807591684  0.3402295556289 1.0
C      1  0.6359599181682  0.3726805959455  0.3236108520522 1.0
C      1  0.6852637822953  0.4593174258024  0.3110842855215 1.0
C      1  0.5933502311752  0.6723864660097  0.3205942096556 1.0
C      1  0.5023457554424  0.7025555061610  0.3203596588459 1.0
C      1  0.4805945467791  0.5582699920288  0.3427044228016 1.0
C      1  0.5023843065275  0.5252173699133  0.6376390142530 1.0
C      1  0.4936410237861  0.5138392390806  0.5433459070469 1.0
C      1  0.4774323285898  0.4043277276948  0.7606765902070 1.0
END
