TITL C-4675-8135-3 -5.26 3375.00 -955.29503882 0 0 115 (D5) n - 1
REM
REM Run started: at 2020.12.29 07:29:38 in /gpfs/home/chem/mssmkc/CARBON/AIRSS/Generating-Clusters/Str-Search/Higher-Symm/C100-200
REM VASP from code version vasp.5.4.4.18Apr17-6-g9f103f2a35 (build Oct 11 2019 16:45:47) gamma-only
REM
REM
REM
REM
REM ./C.cell (533062f00bc710175b3da973d35f2034)
REM AIRSS Version 0.9.1 bugfix July 2018 build 013d7b7c2542+ Fri, 06 Jul 2018 19:26:36 +0100
REM compiler GCC version 6.3.0
REM options -cpp -iprefix /gpfs/warwick/csc/orac/software/Core/GCCcore/6.3.0/bin/../lib/gcc/x86_64-pc-linux-gnu/6.3.0/ -mtune=generic -march=x86-64 -g -O0
REM seed -585001648 -121570091 -173407933 1944105403 -833148149 1607719693 -368408639 -890327672 -1788405973 300895442 1390371414 674683293
REM
REM C.POTCAR (d86ddea03c3ceb6dc662c8ad6801f873)
REM 
CELL 1.54180   15.00000   15.00000   15.00000   90.00000   90.00000   90.00000
LATT -1
SFAC C  
C      1  0.6964401888515  0.3813596672434  0.3133635217031 1.0
C      1  0.6963619174647  0.6407438827339  0.3294371202362 1.0
C      1  0.6961932838596  0.7054862708181  0.5811402743473 1.0
C      1  0.6962667925547  0.4861616721872  0.7206233837923 1.0
C      1  0.6963659557267  0.2858606377055  0.5551586828665 1.0
C      1  0.3028812515642  0.6186551986760  0.3133719816489 1.0
C      1  0.3029805855413  0.3592505263199  0.3294567085518 1.0
C      1  0.3031642311994  0.2944995410537  0.5811537560624 1.0
C      1  0.3030833392539  0.5138349252387  0.7206589188452 1.0
C      1  0.3029937578702  0.7141504342338  0.5551918277669 1.0
C      1  0.6405351922912  0.2454051527370  0.3775187780844 1.0
C      1  0.6405982619197  0.5376817361862  0.2198426677066 1.0
C      1  0.6404309941869  0.7779846606292  0.4494689941346 1.0
C      1  0.6405523441544  0.6340049823540  0.7487771602264 1.0
C      1  0.6405053401444  0.3047385256745  0.7043819079285 1.0
C      1  0.3588459888754  0.7545894028750  0.3775440880983 1.0
C      1  0.3587493823193  0.4623161545694  0.2198402832732 1.0
C      1  0.3589614758707  0.2220096816887  0.4494668154563 1.0
C      1  0.3588400646502  0.3660010832000  0.7487804891390 1.0
C      1  0.3588978376244  0.6952701331366  0.7044039429777 1.0
C      1  0.4479570804375  0.5838825198273  0.4750598351440 1.0
C      1  0.4480331132244  0.5495013372022  0.5719558365702 1.0
C      1  0.4479786210313  0.4468019679313  0.5690246105440 1.0
C      1  0.4479526362691  0.4177430153646  0.4703590698349 1.0
C      1  0.4479145534264  0.5023908119550  0.4122643207754 1.0
C      1  0.5514321388452  0.4161248432890  0.4750324013000 1.0
C      1  0.5513722014408  0.4504939464281  0.5719303620623 1.0
C      1  0.5514381376781  0.5531949834045  0.5690162095771 1.0
C      1  0.5514303015624  0.5822642355500  0.4703478582982 1.0
C      1  0.5514542208974  0.4976218987070  0.4122513593885 1.0
C      1  0.5458905453482  0.7945991334141  0.5771100165561 1.0
C      1  0.5459467907782  0.5176359346143  0.8039193401587 1.0
C      1  0.5459903880153  0.2164833511334  0.6108327284928 1.0
C      1  0.5458789030540  0.3070933786547  0.2646641631716 1.0
C      1  0.5459318935373  0.6641471735458  0.2438275467458 1.0
C      1  0.4534972395593  0.2053891124089  0.5771215582437 1.0
C      1  0.4534271416698  0.4823773396653  0.8039288688257 1.0
C      1  0.4534024790208  0.7834980990208  0.6108310680902 1.0
C      1  0.4534750191285  0.6929020430611  0.2646682644962 1.0
C      1  0.4534232611826  0.3358593265342  0.2438445172598 1.0
C      1  0.5881019745559  0.7504494437735  0.3766045827709 1.0
C      1  0.5882095439886  0.6949931062312  0.7002738677476 1.0
C      1  0.5881942335607  0.3697475414887  0.7474112527437 1.0
C      1  0.5882574248072  0.2246764774530  0.4526482635691 1.0
C      1  0.5882159283738  0.4598516475190  0.2233726423956 1.0
C      1  0.4112746578211  0.2495451365728  0.3765966040575 1.0
C      1  0.4111395277334  0.3049672369237  0.7002916016558 1.0
C      1  0.4111536833581  0.6302613579993  0.7474625271278 1.0
C      1  0.4111018240893  0.7753484422791  0.4526661437321 1.0
C      1  0.4110830335944  0.5401770916712  0.2233111143616 1.0
C      1  0.3852376352707  0.5420628884501  0.7665457416182 1.0
C      1  0.3853366699311  0.2595918135167  0.6222348375310 1.0
C      1  0.3853075253439  0.3096925566234  0.3092668365967 1.0
C      1  0.3852000961285  0.6227270692044  0.2598930125708 1.0
C      1  0.3852541065777  0.7662511946358  0.5425690659466 1.0
C      1  0.6141140068244  0.4579451921240  0.7664946060072 1.0
C      1  0.6140248137727  0.7403831893686  0.6222221819254 1.0
C      1  0.6140402326125  0.6903046844788  0.3092713176067 1.0
C      1  0.6141136697121  0.3772889962377  0.2599131379903 1.0
C      1  0.6141082946944  0.2337710288609  0.5425434804838 1.0
C      1  0.7052952175372  0.5796704333339  0.7072145753759 1.0
C      1  0.7053630953922  0.3274370723539  0.6399955209192 1.0
C      1  0.7054692059292  0.3135901591765  0.3791614781081 1.0
C      1  0.7054265968601  0.5572413506498  0.2852592398419 1.0
C      1  0.7052603541560  0.7216753059498  0.4880662571518 1.0
C      1  0.2940974793998  0.4203270997903  0.7072157565361 1.0
C      1  0.2940157320893  0.6725684072426  0.6400216966630 1.0
C      1  0.2939051610449  0.6864015720209  0.3791936673224 1.0
C      1  0.2939304368102  0.4427589986712  0.2852798495141 1.0
C      1  0.2941280408592  0.2783226440590  0.4880778176743 1.0
C      1  0.7282575136198  0.6112977426967  0.6127483414613 1.0
C      1  0.7283223873584  0.4270459986897  0.6407687411858 1.0
C      1  0.7284666681907  0.3436135063820  0.4741928567878 1.0
C      1  0.7285153101867  0.4761947854962  0.3432740590817 1.0
C      1  0.7283695678410  0.6416263834481  0.4288437748779 1.0
C      1  0.2711330678553  0.3886911970001  0.6127640320525 1.0
C      1  0.2710565222327  0.5729539296746  0.6408005963587 1.0
C      1  0.2709077446734  0.6563822124265  0.4742184580752 1.0
C      1  0.2708487441324  0.5238039638998  0.3432956420658 1.0
C      1  0.2709961413142  0.3583773283458  0.4288690261717 1.0
C      1  0.5657313535577  0.2331602006677  0.3178838491033 1.0
C      1  0.5657876476121  0.5906942412679  0.1899183499067 1.0
C      1  0.5656624327812  0.8230565362973  0.4904804985762 1.0
C      1  0.5656541299594  0.6087638890393  0.8039359495570 1.0
C      1  0.5659031790998  0.2440722127667  0.6977126887725 1.0
C      1  0.4336532838088  0.7668311521181  0.3179043244882 1.0
C      1  0.4335625205260  0.4093090249976  0.1899244850975 1.0
C      1  0.4337175062933  0.1769433145387  0.4904832465940 1.0
C      1  0.4337407477516  0.3912440595755  0.8039216083141 1.0
C      1  0.4335059603799  0.7559171475128  0.6977207860312 1.0
C      1  0.6549732161873  0.5573039755765  0.5649191787206 1.0
C      1  0.6550187441355  0.4558104877041  0.5746640941379 1.0
C      1  0.6550838386190  0.4153400774606  0.4811048031819 1.0
C      1  0.6551273169862  0.4916944713842  0.4135771902337 1.0
C      1  0.6550818453099  0.5794416880209  0.4654269360984 1.0
C      1  0.3444340817264  0.4426933489283  0.5649412592573 1.0
C      1  0.3443924356086  0.5441904801623  0.5746992325704 1.0
C      1  0.3443102065098  0.5846601986697  0.4811313858697 1.0
C      1  0.3442439994670  0.5083076671662  0.4136012115643 1.0
C      1  0.3443025572607  0.4205650769343  0.4654487988990 1.0
C      1  0.2013621450783  0.5817768579940  0.4877170608838 1.0
C      1  0.2013609205334  0.5369480986117  0.5742517218883 1.0
C      1  0.2013635969479  0.4408752031107  0.5583256783061 1.0
C      1  0.2012994038348  0.4263185482871  0.4619990955965 1.0
C      1  0.2012786463647  0.5134489479529  0.4183985154594 1.0
C      1  0.7980390410798  0.4182083718184  0.4876884864831 1.0
C      1  0.7980540677574  0.4630459964086  0.5742250434731 1.0
C      1  0.7980574187484  0.5591261923357  0.5583011480054 1.0
C      1  0.7980914403647  0.5736835938057  0.4619691266070 1.0
C      1  0.7981074162035  0.4865452913831  0.4183610921749 1.0
C      1  0.4996459498769  0.7938097881827  0.4047276153785 1.0
C      1  0.4997897168810  0.6812729362655  0.7502889220777 1.0
C      1  0.4997480138452  0.2061986710703  0.4046928143953 1.0
C      1  0.4996703194627  0.5000187176745  0.1909616492075 1.0
C      1  0.4995946771789  0.3186986266187  0.7502670090450 1.0
END
