TITL C-4646-6725-16 -2.909 3375.00 -515.65267338 0 0 60 (D5d) n - 1
REM
REM Run started: at 2020.11.27 08:12:15 in /rds/project/t2_vol4/rds-t2-cs072/BORA/CARBON/AIRSS/Generating-Clusters/Str-Search/Higher-Symm/Only-C60
REM VASP from code version vasp.5.4.4.18Apr17-6-g9f103f2a35 (build Oct 11 2019 16:45:47) gamma-only
REM
REM
REM
REM
REM ./C.cell (5f7b7a0d59291d2373303da1f58b8d66)
REM AIRSS Version 0.9.1 bugfix July 2018 build 013d7b7c2542+ Fri, 06 Jul 2018 19:26:36 +0100
REM compiler GCC version 4.8.5 20150623 (Red Hat 4.8.5-39)
REM options -cpp -mtune=generic -march=x86-64 -g -O0
REM seed -1500159760 -1633336723 -643254785 -220615124 -1479066043 1878391530 -2110878630 -1503063465 -1154734875 -380295797 -843077094 1135638596
REM
REM C.POTCAR (d86ddea03c3ceb6dc662c8ad6801f873)
REM 
CELL 1.54180   15.00000   15.00000   15.00000   90.00000   90.00000   90.00000
LATT -1
SFAC C  
C      1  0.7169577603545  0.3793391223883  0.5471548244365 1.0
C      1  0.5219950178463  0.3793889259938  0.7206310431469 1.0
C      1  0.2967000732556  0.3793702099667  0.5893593047797 1.0
C      1  0.3522392134321  0.3793676707784  0.3343965340425 1.0
C      1  0.6116895605558  0.3794424009705  0.3085905223936 1.0
C      1  0.7169577738002  0.3793391262862  0.4528450866487 1.0
C      1  0.5219949908731  0.3793889497471  0.2793688939911 1.0
C      1  0.2967000988117  0.3793702302256  0.4106406792693 1.0
C      1  0.3522391920882  0.3793676411624  0.6656034559674 1.0
C      1  0.6116896060794  0.3794423692228  0.6914094683265 1.0
C      1  0.2831262501410  0.6206631459127  0.5471667709799 1.0
C      1  0.3882957371895  0.6205209070660  0.3085707627265 1.0
C      1  0.6477412855284  0.6205910128052  0.3344020946050 1.0
C      1  0.7032691596832  0.6206215300620  0.5893162807823 1.0
C      1  0.4779907512888  0.6206040596058  0.7207360222308 1.0
C      1  0.2831262691321  0.6206631478984  0.4528333152804 1.0
C      1  0.3882957771484  0.6205208741706  0.6914292570897 1.0
C      1  0.6477412582144  0.6205909829397  0.6655979075691 1.0
C      1  0.7032691876683  0.6206215490068  0.4106837289075 1.0
C      1  0.4779907301058  0.6206040802115  0.2792640545157 1.0
C      1  0.4975068760579  0.3092957504725  0.6550545687580 1.0
C      1  0.3515461094078  0.3093858915291  0.5456337958693 1.0
C      1  0.4106869947134  0.3093386540196  0.3731333157872 1.0
C      1  0.5931377256336  0.3093453988629  0.3759908854814 1.0
C      1  0.6467773108808  0.3094328836657  0.5501979189770 1.0
C      1  0.4975068691501  0.3092957462903  0.3449453447437 1.0
C      1  0.3515461219607  0.3093858984133  0.4543661670241 1.0
C      1  0.4106869809407  0.3093386340075  0.6268666493273 1.0
C      1  0.5931377340970  0.3093454055250  0.6240090373257 1.0
C      1  0.6467773224704  0.3094328847164  0.4498019800008 1.0
C      1  0.5892827963084  0.6907168265499  0.3731350632976 1.0
C      1  0.6483472465559  0.6906481832354  0.5456254233419 1.0
C      1  0.5024881397977  0.6907702361133  0.6551205022261 1.0
C      1  0.3533480789479  0.6906078703749  0.5501846079852 1.0
C      1  0.4068929328479  0.6907147731904  0.3759422858121 1.0
C      1  0.5892827813443  0.6907168054054  0.6268649648216 1.0
C      1  0.6483472633359  0.6906481915206  0.4543746020235 1.0
C      1  0.5024881313616  0.6907702364220  0.3448795911085 1.0
C      1  0.3533480922831  0.6906078722004  0.4498155048831 1.0
C      1  0.4068929447701  0.6907147744230  0.6240578005866 1.0
C      1  0.7173592040314  0.4593873502094  0.5977694266312 1.0
C      1  0.4739117468568  0.4594093272424  0.7366748412377 1.0
C      1  0.2664876218336  0.4593436779634  0.5484626015342 1.0
C      1  0.3817677677903  0.4594197947190  0.2933125104163 1.0
C      1  0.6601526332388  0.4593680857560  0.3239559861999 1.0
C      1  0.7173592164140  0.4593873689644  0.4022305153395 1.0
C      1  0.4739117212902  0.4594093565302  0.2633250906144 1.0
C      1  0.2664876251432  0.4593436839059  0.4515374019272 1.0
C      1  0.3817677857876  0.4594197666304  0.7066874550438 1.0
C      1  0.6601526436891  0.4593680727661  0.6760439850004 1.0
C      1  0.3398525916267  0.5405888245039  0.6760448913640 1.0
C      1  0.2827018032991  0.5406002503096  0.4022385380309 1.0
C      1  0.5260581626524  0.5405410450371  0.2633142222367 1.0
C      1  0.7334581933874  0.5406418591195  0.4515581901346 1.0
C      1  0.6182312054881  0.5405343574540  0.7067326766534 1.0
C      1  0.3398525776623  0.5405888421626  0.3239551351662 1.0
C      1  0.2827017924506  0.5406002319311  0.5977615148697 1.0
C      1  0.5260581822800  0.5405410181949  0.7366858398327 1.0
C      1  0.7334581858808  0.5406418529672  0.5484417998895 1.0
C      1  0.6182311931359  0.5405343802750  0.2932673608081 1.0
END
