TITL C-4675-8135-8 -7.156 3375.00 -1272.76945670 0 0 147 (C1) n - 1
REM
REM Run started: at 2020.12.29 11:14:48 in /gpfs/home/chem/mssmkc/CARBON/AIRSS/Generating-Clusters/Str-Search/Higher-Symm/C100-200
REM VASP from code version vasp.5.4.4.18Apr17-6-g9f103f2a35 (build Oct 11 2019 16:45:47) gamma-only
REM
REM
REM
REM
REM ./C.cell (533062f00bc710175b3da973d35f2034)
REM AIRSS Version 0.9.1 bugfix July 2018 build 013d7b7c2542+ Fri, 06 Jul 2018 19:26:36 +0100
REM compiler GCC version 6.3.0
REM options -cpp -iprefix /gpfs/warwick/csc/orac/software/Core/GCCcore/6.3.0/bin/../lib/gcc/x86_64-pc-linux-gnu/6.3.0/ -mtune=generic -march=x86-64 -g -O0
REM seed -1231540799 -999695626 -260222509 1527934040 1895689207 -18800003 -1880219863 1444978676 -1788405973 -2125731056 175765562 1257467081
REM
REM C.POTCAR (d86ddea03c3ceb6dc662c8ad6801f873)
REM 
CELL 1.54180   15.00000   15.00000   15.00000   90.00000   90.00000   90.00000
LATT -1
SFAC C  
C      1  0.6700538096841  0.3567919066712  0.2813258961430 1.0
C      1  0.6841722385401  0.2278189318348  0.5792198696060 1.0
C      1  0.6738146398703  0.4910154312862  0.7810420385337 1.0
C      1  0.6838608098150  0.7740984579683  0.6096007177058 1.0
C      1  0.6892100194825  0.6829895435777  0.2795429233259 1.0
C      1  0.3158757291063  0.3453080053419  0.7392154138451 1.0
C      1  0.3233750775011  0.2294226527977  0.4200860127544 1.0
C      1  0.3247022481881  0.4886570973948  0.2075635102941 1.0
C      1  0.3265995683594  0.7722120766775  0.3934071957064 1.0
C      1  0.3226195376951  0.6866343372788  0.7199028546382 1.0
C      1  0.6258474987558  0.5781960656324  0.1708385429806 1.0
C      1  0.6160316866477  0.2132729773707  0.3282270361488 1.0
C      1  0.6170230795107  0.2497763674263  0.7271011764369 1.0
C      1  0.6124671171976  0.6398333044378  0.8113378344649 1.0
C      1  0.6208389679444  0.8375939536878  0.4703642728541 1.0
C      1  0.3846575547306  0.5763420153141  0.8273076745779 1.0
C      1  0.3840458007009  0.2112943923561  0.6691805840587 1.0
C      1  0.3877613131071  0.2491126097286  0.2694637276900 1.0
C      1  0.3935675724357  0.6398899179476  0.1885948025773 1.0
C      1  0.3906419797075  0.8383109861147  0.5318643751362 1.0
C      1  0.3742959625115  0.1987454636093  0.3494567262669 1.0
C      1  0.3686551226409  0.2672015451008  0.7435874204811 1.0
C      1  0.3727547533659  0.6644446239047  0.7959274587600 1.0
C      1  0.3778391301995  0.8361016939818  0.4389523693770 1.0
C      1  0.3792645329474  0.5511200718941  0.1622524679227 1.0
C      1  0.6318141856330  0.1973650519229  0.6492101640857 1.0
C      1  0.6291848289812  0.2728870847337  0.2592838609838 1.0
C      1  0.6401880586373  0.6668454624965  0.2027024653299 1.0
C      1  0.6325346165635  0.8373800632574  0.5641204319847 1.0
C      1  0.6247398271698  0.5483233808094  0.8329094247838 1.0
C      1  0.4270622739557  0.5806313560345  0.6034229476252 1.0
C      1  0.4412040728458  0.5579864126973  0.3717229994412 1.0
C      1  0.4388685648954  0.4595235184499  0.3597012614878 1.0
C      1  0.4227605412943  0.3204554870256  0.4889964081339 1.0
C      1  0.4234098130520  0.4882423838607  0.6317441858133 1.0
C      1  0.5894540125066  0.6360376792510  0.3887743254343 1.0
C      1  0.5691686206819  0.6112507723471  0.5858099329582 1.0
C      1  0.5807876432892  0.4352064050359  0.6622284049144 1.0
C      1  0.5934255370512  0.3103468450784  0.4654572997452 1.0
C      1  0.5966327948711  0.4205624536002  0.3320787590131 1.0
C      1  0.2690715010217  0.7136891018379  0.4414037537895 1.0
C      1  0.2671988098688  0.5173918836344  0.2771481469176 1.0
C      1  0.2600115215706  0.2997760997901  0.4116839343047 1.0
C      1  0.2636502364462  0.3616849582677  0.6626156730506 1.0
C      1  0.2660082223559  0.6208938491698  0.6786313212067 1.0
C      1  0.7425358276543  0.7160209324488  0.5613087004996 1.0
C      1  0.7369314694283  0.5193165622578  0.7169593001796 1.0
C      1  0.7456266007392  0.3001833575608  0.5848408670411 1.0
C      1  0.7484047187257  0.3678191707377  0.3389480040334 1.0
C      1  0.7495430332406  0.6213027578364  0.3192402581753 1.0
C      1  0.4619430199841  0.8466071938771  0.3936034862277 1.0
C      1  0.4624931519776  0.5098862981134  0.1388603257765 1.0
C      1  0.4581901392548  0.1619429173022  0.3818409768138 1.0
C      1  0.4518154356291  0.2868821158162  0.7878698400844 1.0
C      1  0.4547789661579  0.7143065871451  0.7974745039312 1.0
C      1  0.5483472026335  0.8508041154351  0.6097359297790 1.0
C      1  0.5408875954398  0.5073459492258  0.8575898927452 1.0
C      1  0.5466689291230  0.1630408600352  0.6165222664555 1.0
C      1  0.5484899680155  0.2891301511471  0.2094838187460 1.0
C      1  0.5538787213573  0.7110228052362  0.2072988911316 1.0
C      1  0.2559941166656  0.4591754535709  0.6377911350304 1.0
C      1  0.2344785482934  0.6416459244321  0.5872160942737 1.0
C      1  0.2386876716302  0.6350143201199  0.3925916734925 1.0
C      1  0.2349869872011  0.4462388257153  0.3367200709166 1.0
C      1  0.2310822457148  0.3360017241525  0.4983923639439 1.0
C      1  0.7805111439210  0.4588911648849  0.3438372938122 1.0
C      1  0.7760932474895  0.6421928093161  0.4121006871091 1.0
C      1  0.7724425624259  0.6368871865299  0.6080505714874 1.0
C      1  0.7708329548797  0.4474832983186  0.6599174466365 1.0
C      1  0.7789560003150  0.3371053549422  0.4992240208631 1.0
C      1  0.8196008855764  0.4226112469893  0.5014700141507 1.0
C      1  0.8160623868616  0.4756821104875  0.5819731760155 1.0
C      1  0.8137733410191  0.5687861325417  0.5568471725405 1.0
C      1  0.8171688712174  0.5732736630391  0.4608406223130 1.0
C      1  0.8202990443696  0.4829718220785  0.4263030603389 1.0
C      1  0.1875361765857  0.4202115857222  0.4953397086386 1.0
C      1  0.1922919765111  0.4738271806077  0.4174646923989 1.0
C      1  0.1948133110806  0.5675798986391  0.4439045455198 1.0
C      1  0.1906275810682  0.5737663757094  0.5380967354047 1.0
C      1  0.1753681542811  0.4804597701961  0.5769350989881 1.0
C      1  0.7438695753915  0.5304461304906  0.2848669663175 1.0
C      1  0.7445591715829  0.3075913743342  0.4123798322495 1.0
C      1  0.7386233895584  0.3536613619530  0.6656224579585 1.0
C      1  0.7339035326968  0.6136688783792  0.6944246931820 1.0
C      1  0.7387794214685  0.7183654008005  0.4637697361695 1.0
C      1  0.2735185309026  0.5302539824974  0.7099793384616 1.0
C      1  0.2651315772418  0.2998385113284  0.5880747229627 1.0
C      1  0.2669864225764  0.3535964634393  0.3299961666731 1.0
C      1  0.2735691463516  0.6119053892928  0.3042295284559 1.0
C      1  0.2733006138230  0.7170472172731  0.5390234292116 1.0
C      1  0.6191735823533  0.4100109549268  0.7611898557419 1.0
C      1  0.6368399909774  0.7515365466966  0.6916285699086 1.0
C      1  0.6284766880014  0.7295226717222  0.3442262026583 1.0
C      1  0.6226072916059  0.4284173510964  0.2321868089631 1.0
C      1  0.6276372812142  0.2175614708075  0.4988314604870 1.0
C      1  0.3681742812383  0.4020486358980  0.2050665864938 1.0
C      1  0.3715048646779  0.7485568124798  0.3113619918288 1.0
C      1  0.3690975546652  0.7564492369485  0.6727529303410 1.0
C      1  0.3612244568303  0.4145742473202  0.7915916496820 1.0
C      1  0.3810505263239  0.2229973717183  0.5035000250077 1.0
C      1  0.6603664629456  0.2477661180593  0.4110660315780 1.0
C      1  0.6681414054459  0.3287276038895  0.7311067975145 1.0
C      1  0.6656023469179  0.6736608420661  0.7381813679527 1.0
C      1  0.6706502356750  0.7741153420065  0.4222556496571 1.0
C      1  0.6734937514090  0.5119458460197  0.2171454526471 1.0
C      1  0.3339469659910  0.2305188268510  0.5910503960583 1.0
C      1  0.3360173266314  0.3303496858734  0.2604397027916 1.0
C      1  0.3414338464579  0.6722879819664  0.2620728633089 1.0
C      1  0.3400143983719  0.7771939859437  0.5845316433007 1.0
C      1  0.3339626400136  0.5060704271387  0.7839571782259 1.0
C      1  0.5422825585263  0.3786398141012  0.1864531498280 1.0
C      1  0.5441370102260  0.1656733431215  0.5238355785491 1.0
C      1  0.5346687214131  0.4216773415129  0.8234893701433 1.0
C      1  0.5461216147676  0.7978407662294  0.6874534691414 1.0
C      1  0.5461192149096  0.7590205194148  0.2864716664653 1.0
C      1  0.4506355081725  0.3766845936429  0.8154637443748 1.0
C      1  0.4624469773429  0.1661230762984  0.4748392594567 1.0
C      1  0.4591172069299  0.4200429326398  0.1659010363133 1.0
C      1  0.4621636161255  0.7905762803049  0.3177293368767 1.0
C      1  0.4602454007257  0.7678059555271  0.7202250211549 1.0
C      1  0.6165308777090  0.4561485717251  0.5699744667442 1.0
C      1  0.6162526098999  0.5502314107340  0.5389449460273 1.0
C      1  0.6225528511350  0.5573806735751  0.4433155034051 1.0
C      1  0.6252374297341  0.4668992585257  0.4144970288868 1.0
C      1  0.6219964304977  0.4047657890310  0.4913087444900 1.0
C      1  0.3726096629834  0.4549484594817  0.4270228915618 1.0
C      1  0.3772554930117  0.5493409136978  0.4444209627361 1.0
C      1  0.3665830001963  0.5580556997291  0.5349882751838 1.0
C      1  0.3440967269968  0.4648888301464  0.5769743834291 1.0
C      1  0.3683367767851  0.3999737395530  0.5012059485091 1.0
C      1  0.5278140195590  0.8652262171843  0.4574795603866 1.0
C      1  0.5313587622817  0.5756340890876  0.1410135188601 1.0
C      1  0.5249835381756  0.1812790892808  0.3170130362851 1.0
C      1  0.5210711054207  0.2353260777442  0.7487017250653 1.0
C      1  0.5208810752345  0.6586033866620  0.8357563789132 1.0
C      1  0.4830801081715  0.8670635344750  0.5443108904339 1.0
C      1  0.4753265187996  0.5751456779586  0.8609844229995 1.0
C      1  0.4787667553849  0.1844284978067  0.6786775150807 1.0
C      1  0.4804015427228  0.2317106784743  0.2458298257902 1.0
C      1  0.4876298122388  0.6581324267141  0.1653739458595 1.0
C      1  0.4952368832993  0.4437439799482  0.6542023224488 1.0
C      1  0.5089032152157  0.6134832382821  0.3665194825334 1.0
C      1  0.5066544261973  0.3971251379480  0.3651213307529 1.0
C      1  0.5003417781335  0.3307333961845  0.4347326979176 1.0
C      1  0.4961967799808  0.6401582955597  0.6162015772306 1.0
C      1  0.0071298483817  0.4684555220156  0.6421308424011 1.0
C      1  0.0867515435703  0.4707065156621  0.6175257591927 1.0
END
