TITL C-4646-6725-8 -2.898 3375.00 -504.76900915 0 0 60 (T23) n - 1
REM
REM Run started: at 2020.11.27 05:55:25 in /rds/project/t2_vol4/rds-t2-cs072/BORA/CARBON/AIRSS/Generating-Clusters/Str-Search/Higher-Symm/Only-C60
REM VASP from code version vasp.5.4.4.18Apr17-6-g9f103f2a35 (build Oct 11 2019 16:45:47) gamma-only
REM
REM
REM
REM
REM ./C.cell (5f7b7a0d59291d2373303da1f58b8d66)
REM AIRSS Version 0.9.1 bugfix July 2018 build 013d7b7c2542+ Fri, 06 Jul 2018 19:26:36 +0100
REM compiler GCC version 4.8.5 20150623 (Red Hat 4.8.5-39)
REM options -cpp -mtune=generic -march=x86-64 -g -O0
REM seed 1016624396 -531977250 1177827197 -604522387 -299333645 -247564053 -106461395 -1693774785 874684192 188722210 -1093454682 721707957
REM
REM C.POTCAR (d86ddea03c3ceb6dc662c8ad6801f873)
REM 
CELL 1.54180   15.00000   15.00000   15.00000   90.00000   90.00000   90.00000
LATT -1
SFAC C  
C      1  0.6612877644091  0.5543068223009  0.6786003135393 1.0
C      1  0.6786004052205  0.6612877159288  0.5543066561877 1.0
C      1  0.5543068377230  0.6786004320937  0.6612876373062 1.0
C      1  0.6612877313012  0.4456931040942  0.3213995721711 1.0
C      1  0.3387122541567  0.4456933100941  0.6786004891736 1.0
C      1  0.3387122406606  0.5543067275818  0.3213996194479 1.0
C      1  0.6786003956783  0.3387121959436  0.4456932235771 1.0
C      1  0.3213995646857  0.3387123189941  0.5543069345881 1.0
C      1  0.3213996049267  0.6612877647808  0.4456931649467 1.0
C      1  0.5543067530688  0.3213995390566  0.3387123231777 1.0
C      1  0.4456931994760  0.3213996969938  0.6612878620112 1.0
C      1  0.4456931904059  0.6786003522373  0.3387121681417 1.0
C      1  0.5287265182398  0.7161404120891  0.3706677029835 1.0
C      1  0.3706678665592  0.5287266313279  0.7161404828685 1.0
C      1  0.7161404668692  0.3706677870514  0.5287265097380 1.0
C      1  0.5287264829252  0.2838596188854  0.6293322682940 1.0
C      1  0.4712734517295  0.2838595052662  0.3706679469391 1.0
C      1  0.4712735465793  0.7161405076785  0.6293321010957 1.0
C      1  0.3706677926914  0.4712734221251  0.2838596012346 1.0
C      1  0.6293322177261  0.4712735537119  0.7161404490330 1.0
C      1  0.6293321797582  0.5287264006703  0.2838594876833 1.0
C      1  0.7161404856164  0.6293321072739  0.4712734041001 1.0
C      1  0.2838595540679  0.6293322396559  0.5287265060254 1.0
C      1  0.2838595276612  0.3706678370310  0.4712736206594 1.0
C      1  0.4568842720848  0.5162636354321  0.2592876444422 1.0
C      1  0.2592876209729  0.4568843724798  0.5162637937398 1.0
C      1  0.5162636602384  0.2592876255292  0.4568844452865 1.0
C      1  0.4568843656102  0.4837363937237  0.7407123967522 1.0
C      1  0.5431156618924  0.4837361901838  0.2592876158051 1.0
C      1  0.5431157288768  0.5162637807728  0.7407123619476 1.0
C      1  0.2592876169589  0.5431157124790  0.4837363354827 1.0
C      1  0.7407123901853  0.5431156323291  0.5162636234195 1.0
C      1  0.7407123886314  0.4568842599677  0.4837362360433 1.0
C      1  0.5162637381872  0.7407123822988  0.5431155670777 1.0
C      1  0.4837362969352  0.7407123606021  0.4568842117908 1.0
C      1  0.4837362373548  0.2592876800318  0.5431157890793 1.0
C      1  0.3479385434390  0.3871579434527  0.3092037300925 1.0
C      1  0.3092036477548  0.3479385862978  0.3871581271769 1.0
C      1  0.3871579546422  0.3092036449964  0.3479386881822 1.0
C      1  0.3479386377465  0.6128420870227  0.6907963142320 1.0
C      1  0.6520614099831  0.6128418885414  0.3092036030527 1.0
C      1  0.6520614427631  0.3871580558017  0.6907963349205 1.0
C      1  0.3092037041007  0.6520614881874  0.6128419619319 1.0
C      1  0.6907963286381  0.6520613530891  0.3871578935684 1.0
C      1  0.6907963328341  0.3479386019101  0.6128419931844 1.0
C      1  0.3871580774015  0.6907964234043  0.6520613643028 1.0
C      1  0.6128419804050  0.6907962703069  0.3479384820196 1.0
C      1  0.6128419803213  0.3092037333312  0.6520614480245 1.0
C      1  0.7071635127205  0.5810840720647  0.6013553273790 1.0
C      1  0.6013554626318  0.7071634986372  0.5810839529279 1.0
C      1  0.5810841393909  0.6013554717706  0.7071634329304 1.0
C      1  0.7071635135800  0.4189158240690  0.3986445433563 1.0
C      1  0.2928364759958  0.4189159919097  0.6013555446375 1.0
C      1  0.2928364801629  0.5810840552143  0.3986445742032 1.0
C      1  0.6013553969165  0.2928364438118  0.4189159872001 1.0
C      1  0.3986445511102  0.2928365523530  0.5810842128317 1.0
C      1  0.3986445540458  0.7071634881759  0.4189158516339 1.0
C      1  0.5810840420500  0.3986444725983  0.2928365269967 1.0
C      1  0.4189159245389  0.3986446575716  0.7071635772324 1.0
C      1  0.4189158967636  0.6013553667865  0.2928364621928 1.0
END
