TITL C-4675-8135-27 -5.76 3375.00 -969.38819875 0 0 119 (C1) n - 1
REM
REM Run started: at 2020.12.30 00:26:19 in /gpfs/home/chem/mssmkc/CARBON/AIRSS/Generating-Clusters/Str-Search/Higher-Symm/C100-200
REM VASP from code version vasp.5.4.4.18Apr17-6-g9f103f2a35 (build Oct 11 2019 16:45:47) gamma-only
REM
REM
REM
REM
REM ./C.cell (533062f00bc710175b3da973d35f2034)
REM AIRSS Version 0.9.1 bugfix July 2018 build 013d7b7c2542+ Fri, 06 Jul 2018 19:26:36 +0100
REM compiler GCC version 6.3.0
REM options -cpp -iprefix /gpfs/warwick/csc/orac/software/Core/GCCcore/6.3.0/bin/../lib/gcc/x86_64-pc-linux-gnu/6.3.0/ -mtune=generic -march=x86-64 -g -O0
REM seed 1888055753 -199996912 1609081773 591230378 -2142976875 56686099 -1203696251 1536793868 1357664418 -484516360 -1684516050 -2099724245
REM
REM C.POTCAR (d86ddea03c3ceb6dc662c8ad6801f873)
REM 
CELL 1.54180   15.00000   15.00000   15.00000   90.00000   90.00000   90.00000
LATT -1
SFAC C  
C      1  0.7172561499549  0.8172977050287  0.3398765538579 1.0
C      1  0.2841748262990  0.7957731798588  0.5797742704286 1.0
C      1  0.6892296176310  0.2531593840321  0.5693948494292 1.0
C      1  0.3097981832283  0.2053057722051  0.4448959317406 1.0
C      1  0.4336219913530  0.7698963288944  0.6731560279989 1.0
C      1  0.5536928863414  0.7786143660424  0.3032114637489 1.0
C      1  0.5604766607400  0.2036558825145  0.6741702220675 1.0
C      1  0.4414825735286  0.2141050899421  0.3243705720501 1.0
C      1  0.3924830302028  0.7461495890483  0.7673512331657 1.0
C      1  0.5689838167048  0.7326808626602  0.2067003588470 1.0
C      1  0.4114690146772  0.2804075579636  0.2710626926309 1.0
C      1  0.5934057237773  0.2687234975365  0.7290487570907 1.0
C      1  0.7747888791156  0.7529618358345  0.3730058664680 1.0
C      1  0.2236903164335  0.7336521780202  0.6122493827077 1.0
C      1  0.2579715918890  0.2682986759561  0.4072507272877 1.0
C      1  0.7705489426829  0.2595469391717  0.6227473045337 1.0
C      1  0.5780796729154  0.4384303355387  0.3709996063687 1.0
C      1  0.4166742148549  0.4118553912562  0.6494317552369 1.0
C      1  0.5224955244268  0.5870001755908  0.5509105180108 1.0
C      1  0.3857174826826  0.6211384641471  0.3455138555139 1.0
C      1  0.3408780289555  0.4069394016128  0.5879576197634 1.0
C      1  0.6565630293597  0.4421470580936  0.4249615776408 1.0
C      1  0.7699538472499  0.6362127559342  0.6087553261221 1.0
C      1  0.2865057242308  0.6226445177348  0.3951542932969 1.0
C      1  0.3774729314846  0.5773865638875  0.2491896292890 1.0
C      1  0.6202230792782  0.5686869304886  0.7622918608788 1.0
C      1  0.3960288176592  0.4327284884048  0.7480322268978 1.0
C      1  0.5975428099300  0.4349066995635  0.2690217122010 1.0
C      1  0.2307093044515  0.5392081872878  0.3892955633234 1.0
C      1  0.7957669866431  0.5420941912717  0.6106373729525 1.0
C      1  0.7518588264192  0.4332564307850  0.3814319145240 1.0
C      1  0.2413981968120  0.4213564871345  0.6199724768077 1.0
C      1  0.7618426106096  0.5931655046806  0.3023101631796 1.0
C      1  0.2249849180262  0.5792981673192  0.6990828973639 1.0
C      1  0.7730682220146  0.4010009524037  0.7103158169805 1.0
C      1  0.2336210134868  0.3995881239490  0.2933600792894 1.0
C      1  0.3052990262837  0.5863837642608  0.7600994544433 1.0
C      1  0.6773657123021  0.5896305250293  0.2372687829348 1.0
C      1  0.6867635253309  0.4112316609254  0.7567649503714 1.0
C      1  0.3127740622323  0.4174422847246  0.2382032732232 1.0
C      1  0.7930532153937  0.7004977691111  0.4473540388119 1.0
C      1  0.2182034960087  0.6644112121253  0.5470551857977 1.0
C      1  0.6454413794726  0.3507875321887  0.5707150356240 1.0
C      1  0.3429799333194  0.3895838360605  0.4137955996887 1.0
C      1  0.4221618157113  0.6684407213976  0.6673326498008 1.0
C      1  0.5528854912966  0.6797351985223  0.3141845433522 1.0
C      1  0.5814162066562  0.3811510866083  0.6354068194643 1.0
C      1  0.4156222224975  0.3987571977158  0.3569744210793 1.0
C      1  0.7974898624225  0.3252385474003  0.6664933502595 1.0
C      1  0.2600350641391  0.3495316217748  0.3741025233221 1.0
C      1  0.7883650009089  0.6607597252723  0.3596306717261 1.0
C      1  0.2028367227647  0.6430846512389  0.6381608265143 1.0
C      1  0.6116227088515  0.3551355417416  0.7284151751675 1.0
C      1  0.3924939335621  0.3663753338220  0.2643091162536 1.0
C      1  0.3636043556555  0.6603276010342  0.7437319872482 1.0
C      1  0.6092450525381  0.6560277525643  0.2378213101188 1.0
C      1  0.3986116642746  0.8014845336489  0.5032237487181 1.0
C      1  0.6362153434382  0.8283303156920  0.5385641202959 1.0
C      1  0.4005488940347  0.1216585307629  0.5412911523061 1.0
C      1  0.6013492753461  0.1685156476138  0.4986326824390 1.0
C      1  0.4736695566691  0.8140843302799  0.4507856522665 1.0
C      1  0.5604213191349  0.8412160356171  0.5935168127267 1.0
C      1  0.5335682370351  0.1494451724527  0.4349027750358 1.0
C      1  0.4522615264841  0.1068232799481  0.6157942786664 1.0
C      1  0.4661308098358  0.7829025411249  0.3564589381355 1.0
C      1  0.5308106346602  0.7939458704704  0.6698617953582 1.0
C      1  0.4649338339039  0.1785879012774  0.6736513269359 1.0
C      1  0.5359848874040  0.2001968469466  0.3496238703825 1.0
C      1  0.3091887692468  0.7710394940527  0.4692906395135 1.0
C      1  0.7107402732664  0.7784840143162  0.5688727146583 1.0
C      1  0.6783058153667  0.2222911839435  0.4728031994333 1.0
C      1  0.3260589730384  0.1830894042788  0.5404947265760 1.0
C      1  0.8115512444170  0.4545622659836  0.4582605155791 1.0
C      1  0.1960903823392  0.4527293919808  0.5391866771955 1.0
C      1  0.8171671383504  0.4949247189333  0.5300018021648 1.0
C      1  0.2025006402104  0.4947667935878  0.4685930963802 1.0
C      1  0.4762768960626  0.4717894824989  0.7875171584846 1.0
C      1  0.5170987736499  0.4735846312351  0.2246885909563 1.0
C      1  0.5371488486032  0.5270591100843  0.7852130199890 1.0
C      1  0.4615954895489  0.5345410903419  0.2218024376162 1.0
C      1  0.7676990571948  0.7032219909605  0.5381418149872 1.0
C      1  0.2775455704316  0.6746195102812  0.4771027991727 1.0
C      1  0.6553770555007  0.4033725658934  0.5034299807761 1.0
C      1  0.3755275855959  0.4035575982000  0.5011047293254 1.0
C      1  0.4727532264199  0.6144494954726  0.6140197588697 1.0
C      1  0.4664499537943  0.6749558154803  0.3559085880886 1.0
C      1  0.4997554245004  0.4074080182578  0.5981214750031 1.0
C      1  0.4966169343206  0.4166604485587  0.4080074434739 1.0
C      1  0.6906317520655  0.7581731846611  0.6586598017321 1.0
C      1  0.3042210478806  0.7804388361735  0.3649973386191 1.0
C      1  0.6865810494993  0.2598442579208  0.3896559683555 1.0
C      1  0.3192783941127  0.2380221436949  0.6183888253530 1.0
C      1  0.6052464888224  0.7459460619394  0.7036624261034 1.0
C      1  0.3799344791364  0.7937111309384  0.3112973603727 1.0
C      1  0.3918447424557  0.2399559882449  0.6828177024996 1.0
C      1  0.6098412465794  0.2535567992430  0.3286977146529 1.0
C      1  0.3571533787931  0.6812111540189  0.2604025459896 1.0
C      1  0.6410408846960  0.6560626082444  0.7344137346133 1.0
C      1  0.3740471326074  0.3366715995888  0.7090627885681 1.0
C      1  0.6404211092706  0.3394686132366  0.2848034674199 1.0
C      1  0.2842740303708  0.6953466888830  0.3246441890509 1.0
C      1  0.7232398144039  0.6732082482099  0.6830705439689 1.0
C      1  0.7180803461348  0.3422358337140  0.3436253334919 1.0
C      1  0.2919537649046  0.3323366988254  0.6403198151128 1.0
C      1  0.3168401234196  0.4918377802798  0.7543811515281 1.0
C      1  0.6732538916379  0.4980618318833  0.2503059845505 1.0
C      1  0.3040102705684  0.5137441493034  0.2410491587444 1.0
C      1  0.6900113136107  0.5057472178334  0.7478672631938 1.0
C      1  0.7494523190702  0.5007511674273  0.3112283706429 1.0
C      1  0.2419952658589  0.4843017979459  0.6938253227454 1.0
C      1  0.2343066004365  0.4978512553249  0.3075231245791 1.0
C      1  0.7720404889632  0.4956542870998  0.6888558975723 1.0
C      1  0.6115618940518  0.1906062194994  0.5923293275603 1.0
C      1  0.6359569545318  0.8191306627998  0.3269533185851 1.0
C      1  0.3872638489199  0.1728949378850  0.3944846108024 1.0
C      1  0.3766750738830  0.8055074116550  0.5972876250282 1.0
C      1  0.5498722417399  0.8398586379982  0.5009857745308 1.0
C      1  0.4429387503887  0.1261270145906  0.4539638567366 1.0
C      1  0.4700314337104  0.4115052154496  0.5037688408901 1.0
END
