TITL C-4646-6725-6 -2.919 3375.00 -478.02126691 0 0 60 (C1) n - 1
REM
REM Run started: at 2020.11.27 05:31:07 in /rds/project/t2_vol4/rds-t2-cs072/BORA/CARBON/AIRSS/Generating-Clusters/Str-Search/Higher-Symm/Only-C60
REM VASP from code version vasp.5.4.4.18Apr17-6-g9f103f2a35 (build Oct 11 2019 16:45:47) gamma-only
REM
REM
REM
REM
REM ./C.cell (5f7b7a0d59291d2373303da1f58b8d66)
REM AIRSS Version 0.9.1 bugfix July 2018 build 013d7b7c2542+ Fri, 06 Jul 2018 19:26:36 +0100
REM compiler GCC version 4.8.5 20150623 (Red Hat 4.8.5-39)
REM options -cpp -mtune=generic -march=x86-64 -g -O0
REM seed -192837399 -986762326 -794468805 -877126377 -146236883 580263325 692736848 790427447 1596417030 2017983505 2140841445 -224612542
REM
REM C.POTCAR (d86ddea03c3ceb6dc662c8ad6801f873)
REM 
CELL 1.54180   15.00000   15.00000   15.00000   90.00000   90.00000   90.00000
LATT -1
SFAC C  
C      1  0.4883861071333  0.2666182021594  0.5741856301855 1.0
C      1  0.4892450581973  0.5518784515638  0.2606554513956 1.0
C      1  0.4875692641258  0.6813487199145  0.6646225323932 1.0
C      1  0.6618581322579  0.6442302875372  0.3832030878810 1.0
C      1  0.6607260215097  0.5301784927739  0.6837535179760 1.0
C      1  0.6609163654000  0.3260557185469  0.4340424731901 1.0
C      1  0.7045178757684  0.5593036303077  0.3914028349983 1.0
C      1  0.7037039353713  0.5650143083238  0.6060222231189 1.0
C      1  0.7037361073221  0.3758722764310  0.5032924744970 1.0
C      1  0.2828609580413  0.3738718362931  0.3898069311629 1.0
C      1  0.2859825802228  0.6584645734123  0.4463731796545 1.0
C      1  0.2828539287327  0.4669835889988  0.6664208994742 1.0
C      1  0.4825775323519  0.7433150803625  0.6057368193188 1.0
C      1  0.4837259198067  0.2866349325576  0.6573358304895 1.0
C      1  0.4841684860560  0.4699107640016  0.2361278305001 1.0
C      1  0.4287480439792  0.2991025156426  0.4195719368670 1.0
C      1  0.4300068194987  0.6703452404981  0.3654276165172 1.0
C      1  0.4289710373323  0.5309083672748  0.7146629194113 1.0
C      1  0.4702417283200  0.7337768691055  0.4327198348879 1.0
C      1  0.4700402363560  0.4412875729035  0.7361075870743 1.0
C      1  0.4697984270981  0.3246294501930  0.3309692286388 1.0
C      1  0.3992741417888  0.4021741293513  0.5934808688155 1.0
C      1  0.3995338127586  0.4680527423134  0.3673891688665 1.0
C      1  0.3985509136085  0.6300043924059  0.5378426208796 1.0
C      1  0.5592251140564  0.2924695033887  0.3163965687650 1.0
C      1  0.5598780058930  0.7626813259732  0.4132298801868 1.0
C      1  0.5594606936268  0.4446056976922  0.7710705153196 1.0
C      1  0.5571683955995  0.4431276350600  0.4207301085456 1.0
C      1  0.5569456353373  0.5971212375457  0.4898061687753 1.0
C      1  0.5567953806003  0.4604306695593  0.5887848787813 1.0
C      1  0.4974918630249  0.5934270539898  0.6885448286127 1.0
C      1  0.4977916742039  0.2900589357153  0.4861362864169 1.0
C      1  0.4990783186612  0.6170111397778  0.3243163114112 1.0
C      1  0.3327323878150  0.5372219064676  0.3492925566217 1.0
C      1  0.3320400458441  0.6096624204846  0.6067775767075 1.0
C      1  0.3321532895021  0.3522904129135  0.5428821708204 1.0
C      1  0.4439579137679  0.4092608550741  0.2972252775067 1.0
C      1  0.4427430623853  0.7206453202933  0.5225292675935 1.0
C      1  0.4440453145382  0.3701912339241  0.6792133789625 1.0
C      1  0.3409842623426  0.5423695740083  0.6747610760247 1.0
C      1  0.3408660722453  0.3280510046517  0.4500837328387 1.0
C      1  0.3421506389018  0.6295821566416  0.3749536432782 1.0
C      1  0.2898026007628  0.4128875862676  0.5976716140662 1.0
C      1  0.2900845115712  0.4600273560580  0.3757608940071 1.0
C      1  0.2885162316244  0.6248628921315  0.5271609510945 1.0
C      1  0.4640136856892  0.4774314681470  0.4436773743242 1.0
C      1  0.4637231494583  0.5599153683834  0.5074102332956 1.0
C      1  0.4638391124795  0.4636102264705  0.5473460553016 1.0
C      1  0.7703754524231  0.5266668066602  0.4529483565335 1.0
C      1  0.7698644787127  0.5278227824178  0.5475428074565 1.0
C      1  0.7700322457482  0.4451583023212  0.5011404733837 1.0
C      1  0.6356292761455  0.2853114607166  0.3516035613994 1.0
C      1  0.6365842543070  0.7359413860345  0.3903683542795 1.0
C      1  0.6358908572059  0.4787150428273  0.7600090368023 1.0
C      1  0.5734721179546  0.5475730599365  0.6401449764870 1.0
C      1  0.5736161457764  0.3552453468346  0.4705798481913 1.0
C      1  0.5745018418349  0.5979487069521  0.3888734470716 1.0
C      1  0.6152693579977  0.4004258520238  0.5490853436233 1.0
C      1  0.6160621798032  0.5073856330265  0.3890130435081 1.0
C      1  0.6152212991223  0.5929005967578  0.5617759038124 1.0
END
