TITL C-4646-6725-3 -2.823 3375.00 -491.29060240 0 0 60 (Cs) n - 1
REM
REM Run started: at 2020.11.27 04:54:55 in /rds/project/t2_vol4/rds-t2-cs072/BORA/CARBON/AIRSS/Generating-Clusters/Str-Search/Higher-Symm/Only-C60
REM VASP from code version vasp.5.4.4.18Apr17-6-g9f103f2a35 (build Oct 11 2019 16:45:47) gamma-only
REM
REM
REM
REM
REM ./C.cell (5f7b7a0d59291d2373303da1f58b8d66)
REM AIRSS Version 0.9.1 bugfix July 2018 build 013d7b7c2542+ Fri, 06 Jul 2018 19:26:36 +0100
REM compiler GCC version 4.8.5 20150623 (Red Hat 4.8.5-39)
REM options -cpp -mtune=generic -march=x86-64 -g -O0
REM seed 727145046 -1502252089 -1764916276 300889535 1133713177 -88219930 -572205578 -429851249 -1102228834 -1807775927 -1557621797 879059609
REM
REM C.POTCAR (d86ddea03c3ceb6dc662c8ad6801f873)
REM 
CELL 1.54180   15.00000   15.00000   15.00000   90.00000   90.00000   90.00000
LATT -1
SFAC C  
C      1  0.6067623617873  0.2808391956863  0.5927777452914 1.0
C      1  0.6067624649083  0.2808392022611  0.4072222587404 1.0
C      1  0.6018240184108  0.7369771323741  0.5470684711448 1.0
C      1  0.6018239519341  0.7369769756941  0.4529309868390 1.0
C      1  0.5507294618087  0.2197533152293  0.5487077612751 1.0
C      1  0.5507295632105  0.2197534169826  0.4512921232073 1.0
C      1  0.2709073097498  0.5951781190496  0.4529167732485 1.0
C      1  0.2709077027041  0.5951778504754  0.5470828954973 1.0
C      1  0.6773115581338  0.3286662977707  0.4529121290069 1.0
C      1  0.6773116103658  0.3286662309144  0.5470880546687 1.0
C      1  0.5076200520973  0.5848953373880  0.3828352817243 1.0
C      1  0.5076199935801  0.5848954525155  0.6171642618160 1.0
C      1  0.4576207983660  0.5285979841960  0.3172062552784 1.0
C      1  0.4576209174898  0.5285982431568  0.6827933330447 1.0
C      1  0.3519936798443  0.3694977753984  0.4505335204666 1.0
C      1  0.3519958442773  0.3694995205106  0.5494693561387 1.0
C      1  0.5492708305867  0.3533940122941  0.3729085517709 1.0
C      1  0.5492710563916  0.3533940758257  0.6270914512928 1.0
C      1  0.4496925392058  0.2357190340115  0.4529691732647 1.0
C      1  0.4496925467514  0.2357187674532  0.5470308333643 1.0
C      1  0.5194195514429  0.5205464105188  0.5446950277983 1.0
C      1  0.5194194361128  0.5205463293311  0.4553047563336 1.0
C      1  0.6129282168828  0.5333232747143  0.6817734256627 1.0
C      1  0.6129279296429  0.5333230017819  0.3182263608459 1.0
C      1  0.5900152736070  0.6302993146934  0.3332468073573 1.0
C      1  0.5900150666990  0.6302995370204  0.6667527296147 1.0
C      1  0.5304024660984  0.4827772417031  0.2812815952396 1.0
C      1  0.5304025635592  0.4827775134205  0.7187183134674 1.0
C      1  0.6625319446149  0.4309205319659  0.4474715885422 1.0
C      1  0.6625321444467  0.4309203537516  0.5525283656520 1.0
C      1  0.6759332249250  0.5129383533380  0.3918359977638 1.0
C      1  0.6759331607106  0.5129385451271  0.6081640643293 1.0
C      1  0.4038684035064  0.3028040222121  0.4041835964951 1.0
C      1  0.4038695259178  0.3028036034043  0.5958175472470 1.0
C      1  0.3673264326833  0.5226439502756  0.3518822737137 1.0
C      1  0.3673265406284  0.5226442609099  0.6481177958661 1.0
C      1  0.6451010574020  0.6653654495609  0.5932233476608 1.0
C      1  0.6451011198661  0.6653653249136  0.4067763764119 1.0
C      1  0.5569814818265  0.4246425481159  0.5528742075774 1.0
C      1  0.5569816053385  0.4246424074054  0.4471259651918 1.0
C      1  0.5160609667714  0.3874369670138  0.2863301445614 1.0
C      1  0.5160612799580  0.3874372509637  0.7136697281892 1.0
C      1  0.4949818751893  0.6793045441766  0.3511791824501 1.0
C      1  0.4949818723066  0.6793048183258  0.6488202844778 1.0
C      1  0.5162391935836  0.7504943652692  0.4138885238355 1.0
C      1  0.5162391821787  0.7504946505193  0.5861108082957 1.0
C      1  0.3937705619437  0.6873036566478  0.3807303307735 1.0
C      1  0.3937707127516  0.6873037449949  0.6192691642166 1.0
C      1  0.6886208368569  0.5912916023778  0.4495727379141 1.0
C      1  0.6886210069309  0.5912918419349  0.5504269231850 1.0
C      1  0.3386470414320  0.6123098408192  0.6132802700840 1.0
C      1  0.3386467944061  0.6123096973988  0.3867194033299 1.0
C      1  0.4282795824823  0.7487705461793  0.4522152233624 1.0
C      1  0.4282796268434  0.7487707583400  0.5477841665741 1.0
C      1  0.3205843888959  0.4523534259960  0.5962399694745 1.0
C      1  0.3205839762714  0.4523527583378  0.4037609987769 1.0
C      1  0.4604675580519  0.3341911033908  0.3315647211976 1.0
C      1  0.4604680430832  0.3341910116579  0.6684357988666 1.0
C      1  0.2541048464828  0.4967634237425  0.5475712273221 1.0
C      1  0.2541050460653  0.4967636785627  0.4524290332617 1.0
END
