TITL C-4675-8135-9 -5.189 3375.00 -940.37425331 0 0 114 (C1) n - 1
REM
REM Run started: at 2020.12.29 11:49:16 in /gpfs/home/chem/mssmkc/CARBON/AIRSS/Generating-Clusters/Str-Search/Higher-Symm/C100-200
REM VASP from code version vasp.5.4.4.18Apr17-6-g9f103f2a35 (build Oct 11 2019 16:45:47) gamma-only
REM
REM
REM
REM
REM ./C.cell (533062f00bc710175b3da973d35f2034)
REM AIRSS Version 0.9.1 bugfix July 2018 build 013d7b7c2542+ Fri, 06 Jul 2018 19:26:36 +0100
REM compiler GCC version 6.3.0
REM options -cpp -iprefix /gpfs/warwick/csc/orac/software/Core/GCCcore/6.3.0/bin/../lib/gcc/x86_64-pc-linux-gnu/6.3.0/ -mtune=generic -march=x86-64 -g -O0
REM seed -1416167121 1858939490 -152538059 499376102 784324361 -138349059 -1632246363 -302570660 863333219 -1037083580 1466782530 -1099943911
REM
REM C.POTCAR (d86ddea03c3ceb6dc662c8ad6801f873)
REM 
CELL 1.54180   15.00000   15.00000   15.00000   90.00000   90.00000   90.00000
LATT -1
SFAC C  
C      1  0.2665013843914  0.3330635068331  0.6089910435341 1.0
C      1  0.6094622291219  0.2579319329545  0.3292294587973 1.0
C      1  0.3277731913185  0.5922469595945  0.2701615779268 1.0
C      1  0.7138527107642  0.6699461688185  0.6017775420061 1.0
C      1  0.7317205359347  0.3339156768645  0.4034539605528 1.0
C      1  0.2707424001323  0.6593459295614  0.4057908595765 1.0
C      1  0.4045066457796  0.7219197233861  0.3330878765168 1.0
C      1  0.4026054512319  0.2591500872718  0.6596099523889 1.0
C      1  0.5877474712409  0.7432756851075  0.6736497310865 1.0
C      1  0.6678245053325  0.3975874271597  0.2650150205979 1.0
C      1  0.6477745950111  0.6042336165166  0.7330773416695 1.0
C      1  0.3500240116365  0.4060428325501  0.7319450934503 1.0
C      1  0.3293219518110  0.2616450337240  0.6027869489808 1.0
C      1  0.2616735338965  0.5944644856035  0.3380914298189 1.0
C      1  0.6106798071480  0.3246717950906  0.2625302153447 1.0
C      1  0.6457281489431  0.7339821553870  0.6016656923149 1.0
C      1  0.3436167003863  0.7249065599728  0.4073009829197 1.0
C      1  0.6678574550847  0.2630453159670  0.4012166503932 1.0
C      1  0.7318138655648  0.4015345672873  0.3353988869591 1.0
C      1  0.2757788961414  0.4036301480124  0.6687582906435 1.0
C      1  0.7149344869041  0.6043581772342  0.6680094180934 1.0
C      1  0.3973798384951  0.6539809455432  0.2640368410356 1.0
C      1  0.5888842604104  0.6755692877600  0.7421718308964 1.0
C      1  0.4102714832976  0.3310246928796  0.7264282628699 1.0
C      1  0.5031735098771  0.7800226597241  0.6393729102510 1.0
C      1  0.5989636185214  0.5162592020789  0.7441985943033 1.0
C      1  0.7320985086260  0.6312572246303  0.5135601576558 1.0
C      1  0.4941358870110  0.2468302917200  0.6145927149773 1.0
C      1  0.4969340611870  0.7294660416670  0.3631571656119 1.0
C      1  0.5097330007970  0.2670898339954  0.3455814368067 1.0
C      1  0.4004771804450  0.5061259509333  0.7388689463729 1.0
C      1  0.3631772484003  0.5012453279697  0.2622412053010 1.0
C      1  0.6225039587398  0.4866993068779  0.2547927401864 1.0
C      1  0.2769392314016  0.3566037946429  0.5107922906258 1.0
C      1  0.2594613452173  0.6164296349602  0.4950506064822 1.0
C      1  0.7424405670227  0.3827005071358  0.4933847001713 1.0
C      1  0.7339595852527  0.5158893707190  0.6297634244455 1.0
C      1  0.5054603750087  0.6405595278589  0.7805726121120 1.0
C      1  0.5957518265211  0.7433625102818  0.5142375256553 1.0
C      1  0.2633023042692  0.4913684544475  0.6221036719456 1.0
C      1  0.7418674363570  0.4924203931943  0.3829873424487 1.0
C      1  0.2569578724893  0.4952391624198  0.3673948185387 1.0
C      1  0.5017308767517  0.3633716850360  0.7315535964259 1.0
C      1  0.5125011208480  0.3420840337604  0.2695537347208 1.0
C      1  0.4903512901461  0.6110717685415  0.2479718512951 1.0
C      1  0.3434732958791  0.2778329233071  0.5039429175407 1.0
C      1  0.6238762725045  0.2540367171181  0.4905543012179 1.0
C      1  0.3962941144489  0.7346446474299  0.5067435694963 1.0
C      1  0.2572397241556  0.5653310714616  0.6860357765527 1.0
C      1  0.6879690118129  0.2483970876216  0.5660541887400 1.0
C      1  0.5635779104313  0.6775146654547  0.2341850696819 1.0
C      1  0.7444110924186  0.4497992108530  0.6934282877245 1.0
C      1  0.7386515978957  0.5812747776994  0.3221845002170 1.0
C      1  0.2455928044902  0.4321693071706  0.2840307765037 1.0
C      1  0.3267481862862  0.7351153178329  0.5850529862126 1.0
C      1  0.2968180261577  0.2578160731124  0.4162033358582 1.0
C      1  0.6678474981986  0.7605557248073  0.4424567499572 1.0
C      1  0.4463478103947  0.3440884613409  0.2020131717194 1.0
C      1  0.4360941435331  0.7033049974033  0.7729219962164 1.0
C      1  0.5814950502247  0.3076920920794  0.7362042505654 1.0
C      1  0.5685971817694  0.2352257186395  0.6804522881907 1.0
C      1  0.2548962457808  0.6805994208416  0.5689543242315 1.0
C      1  0.6851661076338  0.5633636315189  0.2480430240937 1.0
C      1  0.4350123480042  0.7723291555392  0.7033263562952 1.0
C      1  0.5759077622482  0.7342362162529  0.3060564286094 1.0
C      1  0.4345970062866  0.2074691036672  0.3440748464215 1.0
C      1  0.7412627625674  0.3229781318332  0.5824574687509 1.0
C      1  0.2396027830945  0.3334410898970  0.4217462256598 1.0
C      1  0.7415301906120  0.6942540338131  0.4467927769913 1.0
C      1  0.3150473365109  0.4276457786171  0.2245489066560 1.0
C      1  0.6721402543573  0.4456205017565  0.7608934480273 1.0
C      1  0.3289470767675  0.5829393203070  0.7400785132104 1.0
C      1  0.5008182765244  0.4179259423038  0.3476103479254 1.0
C      1  0.3514097914822  0.4919503312596  0.4209285286168 1.0
C      1  0.4261494056371  0.3465383426943  0.4954646018396 1.0
C      1  0.4997544205106  0.5658997728362  0.3447320437734 1.0
C      1  0.5036774175730  0.4168947683886  0.6442440239629 1.0
C      1  0.5021115003006  0.5516656703248  0.6136678639769 1.0
C      1  0.6448700700489  0.4967340326857  0.4241092420100 1.0
C      1  0.6499886982109  0.4976012229516  0.5716218181391 1.0
C      1  0.3550025965261  0.4953509018141  0.5707122263497 1.0
C      1  0.5728132595258  0.6390872872395  0.4922569527262 1.0
C      1  0.5742847342087  0.3479051624584  0.4962631583052 1.0
C      1  0.4273329393158  0.6355023388954  0.4921445035196 1.0
C      1  0.4257126747505  0.4910468454093  0.3452279652295 1.0
C      1  0.5005667805317  0.3455223384582  0.4212137141609 1.0
C      1  0.3560583578245  0.4229324982641  0.4980495755304 1.0
C      1  0.5737572037827  0.4935823657305  0.3489267901610 1.0
C      1  0.4297236181985  0.4927535366599  0.6388452257977 1.0
C      1  0.5748350418276  0.4932868594739  0.6401613820888 1.0
C      1  0.5010790179387  0.6417158919762  0.4164702295000 1.0
C      1  0.5007703594948  0.6119310033552  0.5511089551887 1.0
C      1  0.5007842092760  0.3437139500072  0.5689906110564 1.0
C      1  0.6491394173577  0.5714292053693  0.4968511691053 1.0
C      1  0.3525162712896  0.5673159223111  0.4947558776784 1.0
C      1  0.6452457179366  0.4235807153610  0.4980970481988 1.0
C      1  0.6210187946586  0.6118378250756  0.1950600916030 1.0
C      1  0.6653377943959  0.3510295992842  0.7411697964533 1.0
C      1  0.3485354701275  0.6749171980085  0.7485197806395 1.0
C      1  0.6250793451016  0.1943892455085  0.6152440085830 1.0
C      1  0.3477155277179  0.7452145413260  0.6765179387605 1.0
C      1  0.3659530653403  0.3567245761948  0.1889878201012 1.0
C      1  0.2104076643223  0.4060003298019  0.3648101254369 1.0
C      1  0.3525838684139  0.2172647082970  0.3526557661398 1.0
C      1  0.7329243230181  0.6709593752306  0.3539553926872 1.0
C      1  0.7369431187452  0.3562105775183  0.6716107195062 1.0
C      1  0.2061510471417  0.6187042800338  0.6242154339060 1.0
C      1  0.6602565879576  0.7402082897624  0.3484164715121 1.0
C      1  0.1997413773331  0.5505172088768  0.5570064943595 1.0
C      1  0.5582489569658  0.1902893842294  0.5459557946531 1.0
C      1  0.5552485536468  0.5416515598978  0.1913860814324 1.0
C      1  0.8010962247349  0.4635250919817  0.4637384879259 1.0
C      1  0.4955531450576  0.7764658629757  0.5436515732294 1.0
C      1  0.4991447959154  0.5447855687193  0.7785577281819 1.0
END
