TITL C-4675-8135-24 -5.451 3375.00 -928.20848363 0 0 114 (C3) n - 1
REM
REM Run started: at 2020.12.29 22:21:00 in /gpfs/home/chem/mssmkc/CARBON/AIRSS/Generating-Clusters/Str-Search/Higher-Symm/C100-200
REM VASP from code version vasp.5.4.4.18Apr17-6-g9f103f2a35 (build Oct 11 2019 16:45:47) gamma-only
REM
REM
REM
REM
REM ./C.cell (533062f00bc710175b3da973d35f2034)
REM AIRSS Version 0.9.1 bugfix July 2018 build 013d7b7c2542+ Fri, 06 Jul 2018 19:26:36 +0100
REM compiler GCC version 6.3.0
REM options -cpp -iprefix /gpfs/warwick/csc/orac/software/Core/GCCcore/6.3.0/bin/../lib/gcc/x86_64-pc-linux-gnu/6.3.0/ -mtune=generic -march=x86-64 -g -O0
REM seed -717382108 1520811692 -1029598860 101419941 864890565 -1235364826 -135144955 1923408890 -435841233 758348396 1702959546 -2031957116
REM
REM C.POTCAR (d86ddea03c3ceb6dc662c8ad6801f873)
REM 
CELL 1.54180   15.00000   15.00000   15.00000   90.00000   90.00000   90.00000
LATT -1
SFAC C  
C      1  0.6878556291217  0.3412742350290  0.2912518761505 1.0
C      1  0.6875413440444  0.7605116702765  0.4666152948341 1.0
C      1  0.6879777663658  0.3987325544006  0.7416318180460 1.0
C      1  0.3221251955754  0.6118375123911  0.6953971108211 1.0
C      1  0.3221818683822  0.2748454525580  0.4996185621631 1.0
C      1  0.3216737974175  0.6127701196325  0.3048910373123 1.0
C      1  0.5547619926978  0.5341449324971  0.2004303784668 1.0
C      1  0.5549546705613  0.7421266273719  0.6795815366336 1.0
C      1  0.5551985389278  0.2236086012419  0.6198077622361 1.0
C      1  0.5559626677304  0.6322490058094  0.4285535293383 1.0
C      1  0.5560699960984  0.4960580446012  0.6505612424652 1.0
C      1  0.5563924296864  0.3720571056440  0.4213776344405 1.0
C      1  0.7132552752869  0.2434228600679  0.5413913606765 1.0
C      1  0.7127938012245  0.5923291917881  0.2567080635014 1.0
C      1  0.7131310872618  0.6645350543038  0.7015017897150 1.0
C      1  0.4748087325131  0.2167998851819  0.5657159788835 1.0
C      1  0.4742238312119  0.5842849203697  0.2212184804077 1.0
C      1  0.4745646129304  0.6986465946220  0.7125307613318 1.0
C      1  0.2094173494856  0.5031970994027  0.6841317083015 1.0
C      1  0.2092990870410  0.3397845431558  0.4116378305468 1.0
C      1  0.2098881184838  0.6567955441083  0.4055627374460 1.0
C      1  0.6035913001613  0.3760010314350  0.2678149445488 1.0
C      1  0.6033383757689  0.7633770598140  0.5086319761889 1.0
C      1  0.6037781123227  0.3610043234742  0.7233189725112 1.0
C      1  0.3918596763090  0.2788496892941  0.5727035881425 1.0
C      1  0.3913419965083  0.5474479577418  0.2717811313044 1.0
C      1  0.3916449075221  0.6733900209799  0.6553478747724 1.0
C      1  0.3574291104493  0.5517755392941  0.7622564390696 1.0
C      1  0.3573969791611  0.2468560379270  0.4142040757741 1.0
C      1  0.3570258163751  0.7006582518029  0.3235190468651 1.0
C      1  0.4900533231236  0.7981470006013  0.4000665048906 1.0
C      1  0.4904323537922  0.4369691050463  0.8084108703823 1.0
C      1  0.4905699071460  0.2647292322866  0.2918417188203 1.0
C      1  0.4607411394947  0.1819996811946  0.3192989650653 1.0
C      1  0.4603911397597  0.8150924309673  0.3144210091894 1.0
C      1  0.4606394909861  0.5023693070920  0.8660157098590 1.0
C      1  0.6712101344752  0.2424951433481  0.4419245329377 1.0
C      1  0.6705777900694  0.6789970672728  0.3056969374865 1.0
C      1  0.6712165323099  0.5786176914228  0.7519607957639 1.0
C      1  0.5246965929744  0.4277482116244  0.7175323698360 1.0
C      1  0.5247160847430  0.3480659525999  0.3290404827190 1.0
C      1  0.5243375813172  0.7243726540367  0.4538867814436 1.0
C      1  0.8318815348332  0.4678252055412  0.5441995711478 1.0
C      1  0.8315272414687  0.4781976861505  0.4496230426266 1.0
C      1  0.8316054624418  0.5549445113006  0.5057664051323 1.0
C      1  0.7176128847626  0.7319286311448  0.3817195016157 1.0
C      1  0.7182032304261  0.4864129020994  0.7594964548472 1.0
C      1  0.7181466529189  0.2820169915979  0.3582811364300 1.0
C      1  0.3773815503626  0.3335966914020  0.6601982762133 1.0
C      1  0.3771046057820  0.4443075504572  0.2760427434162 1.0
C      1  0.3770816547002  0.7219339714343  0.5639534164606 1.0
C      1  0.4991303825166  0.6743032585296  0.2334897947515 1.0
C      1  0.4995699819140  0.6428395570639  0.7842068323210 1.0
C      1  0.4996998695567  0.1822934766155  0.4816909838532 1.0
C      1  0.4373416610117  0.7318821326593  0.2756478540216 1.0
C      1  0.4378079315318  0.5775611076824  0.8131249672283 1.0
C      1  0.4377897333976  0.1898133959251  0.4108128449347 1.0
C      1  0.5993881727730  0.1763750581078  0.4789798539659 1.0
C      1  0.5988136428153  0.6797295121750  0.2299712062781 1.0
C      1  0.5992510619801  0.6434755392407  0.7907094312134 1.0
C      1  0.5521280588574  0.5497842215430  0.4796806857386 1.0
C      1  0.5520014040033  0.4929377117559  0.5536553740970 1.0
C      1  0.5522465032611  0.4573118595744  0.4674308746004 1.0
C      1  0.8025925083813  0.4059449506433  0.6125248904054 1.0
C      1  0.8021338810381  0.4497541750056  0.3619223935096 1.0
C      1  0.8020517703587  0.6450007395225  0.5250262998856 1.0
C      1  0.6318457709106  0.1948394685981  0.5666829026276 1.0
C      1  0.6313533107927  0.5945509369081  0.2021970552137 1.0
C      1  0.6315872266047  0.7104375469385  0.7310080953157 1.0
C      1  0.4733446720384  0.7161245811461  0.5398971676483 1.0
C      1  0.4736142738298  0.3575800713966  0.6671745346461 1.0
C      1  0.4734395104565  0.4265772766189  0.2933132922113 1.0
C      1  0.4254176853069  0.4944479283962  0.3538927490646 1.0
C      1  0.4253647496007  0.6295649284787  0.5680716896856 1.0
C      1  0.4255921795917  0.3764507012338  0.5781268598681 1.0
C      1  0.3079147422207  0.3796821256177  0.3047504940830 1.0
C      1  0.3078276547625  0.7294632340216  0.4936044720043 1.0
C      1  0.3080828139914  0.3906037744093  0.7019148243035 1.0
C      1  0.6754423448354  0.5876770808158  0.5977721435186 1.0
C      1  0.6758071271172  0.3716687842297  0.5267627818084 1.0
C      1  0.6755824779694  0.5414013674921  0.3756272481582 1.0
C      1  0.6261239073145  0.3292482720349  0.4596699971617 1.0
C      1  0.6257619463392  0.6205466365315  0.3723838945647 1.0
C      1  0.6260504135359  0.5504680670965  0.6680812384190 1.0
C      1  0.5531197396548  0.7528052083186  0.5882278734783 1.0
C      1  0.5533887007804  0.2973961266181  0.6746221587262 1.0
C      1  0.5531120524616  0.4499424748426  0.2371501182347 1.0
C      1  0.1475323074285  0.4520438721714  0.5261556311015 1.0
C      1  0.1475160341213  0.5014703268013  0.4457518421615 1.0
C      1  0.1474439336464  0.5463376441433  0.5288073191196 1.0
C      1  0.7653127540892  0.4289458711670  0.6954929741283 1.0
C      1  0.7650940851736  0.3662540776385  0.3406382647739 1.0
C      1  0.7647859516631  0.7052817979774  0.4635299583319 1.0
C      1  0.2018370957049  0.4995315976223  0.3679963173093 1.0
C      1  0.2022587695970  0.6142704933089  0.5659472094312 1.0
C      1  0.2023827014897  0.3859925101873  0.5664712920087 1.0
C      1  0.2329377294546  0.4096998450284  0.3521063038343 1.0
C      1  0.2330744073628  0.6731130357653  0.4960876276139 1.0
C      1  0.2332016507965  0.4169315627039  0.6523343200687 1.0
C      1  0.3403550255941  0.4546291936125  0.7704312379539 1.0
C      1  0.3403191131932  0.2883999894979  0.3260158015253 1.0
C      1  0.3399403225229  0.7563648894641  0.4035896369025 1.0
C      1  0.3948064864173  0.5487486698297  0.5255945550030 1.0
C      1  0.3948824835897  0.4536217854289  0.5294203991712 1.0
C      1  0.3947828665953  0.4980072232359  0.4451162197539 1.0
C      1  0.7447258079139  0.5234914313171  0.3218761830423 1.0
C      1  0.7448641334194  0.6428050105765  0.6090729569789 1.0
C      1  0.7453828696128  0.3342069782778  0.5685552494436 1.0
C      1  0.2425025591052  0.3270819810685  0.4995223739250 1.0
C      1  0.2421106202714  0.5868809586917  0.3504203432912 1.0
C      1  0.2424217881173  0.5855947208730  0.6504001409775 1.0
C      1  0.4021102124482  0.4247051415564  0.8390061619188 1.0
C      1  0.4023311159498  0.2444181771202  0.2658620416061 1.0
C      1  0.4017557566969  0.8305487423101  0.3949194919000 1.0
END
