TITL C-4675-8135-37 -4.848 3375.00 -835.56056370 0 0 102 (C1) n - 1
REM
REM Run started: at 2020.12.30 08:26:07 in /gpfs/home/chem/mssmkc/CARBON/AIRSS/Generating-Clusters/Str-Search/Higher-Symm/C100-200
REM VASP from code version vasp.5.4.4.18Apr17-6-g9f103f2a35 (build Oct 11 2019 16:45:47) gamma-only
REM
REM
REM
REM
REM ./C.cell (533062f00bc710175b3da973d35f2034)
REM AIRSS Version 0.9.1 bugfix July 2018 build 013d7b7c2542+ Fri, 06 Jul 2018 19:26:36 +0100
REM compiler GCC version 6.3.0
REM options -cpp -iprefix /gpfs/warwick/csc/orac/software/Core/GCCcore/6.3.0/bin/../lib/gcc/x86_64-pc-linux-gnu/6.3.0/ -mtune=generic -march=x86-64 -g -O0
REM seed -273546471 -110113141 1824003502 1800089247 582850192 1200143316 2003368585 -1814868445 -1483765415 1676124945 1891027451 1131369299
REM
REM C.POTCAR (d86ddea03c3ceb6dc662c8ad6801f873)
REM 
CELL 1.54180   15.00000   15.00000   15.00000   90.00000   90.00000   90.00000
LATT -1
SFAC C  
C      1  0.1953614112908  0.4184979294212  0.3867140656664 1.0
C      1  0.3916818078124  0.5397615440936  0.7598273262175 1.0
C      1  0.5366166248152  0.6394294497796  0.5750254543013 1.0
C      1  0.4829147404957  0.5094772093527  0.7917374519121 1.0
C      1  0.7478003407022  0.6785499252625  0.4375829170608 1.0
C      1  0.2930696925498  0.3317172691089  0.5090694073108 1.0
C      1  0.6720910799927  0.3603858720137  0.6709487962220 1.0
C      1  0.7358903637342  0.5959556791282  0.6694719755972 1.0
C      1  0.5782067957414  0.2703497261044  0.3403728467529 1.0
C      1  0.3550147498637  0.4246227762871  0.1973029299193 1.0
C      1  0.4546653146843  0.4440305215918  0.2007990870323 1.0
C      1  0.3949459655524  0.4197425477568  0.3927607342855 1.0
C      1  0.4003753681091  0.6380968622259  0.7368977815165 1.0
C      1  0.4830257106034  0.6901373483876  0.3923808986957 1.0
C      1  0.7194628817093  0.5380148669802  0.3315345421938 1.0
C      1  0.4515144563404  0.4686514773891  0.5748628238043 1.0
C      1  0.5299940460189  0.5874671477142  0.8124835911316 1.0
C      1  0.4995095857824  0.7393290698790  0.5780017091731 1.0
C      1  0.4538550156286  0.1365547382709  0.5430014652274 1.0
C      1  0.6558867344608  0.2842786305541  0.6141182349162 1.0
C      1  0.3453237306796  0.4089216094198  0.4726618410381 1.0
C      1  0.3953955100565  0.7357966363655  0.5893750015554 1.0
C      1  0.6064688909083  0.4376780042559  0.2791011337406 1.0
C      1  0.5976785565035  0.6078736613890  0.2580744233167 1.0
C      1  0.2063478876329  0.3733149750587  0.4731242665445 1.0
C      1  0.4060270594310  0.5835921168346  0.3546020955828 1.0
C      1  0.5004148491268  0.3842361851454  0.5593058091420 1.0
C      1  0.5863752891824  0.6031639038353  0.4938467532254 1.0
C      1  0.7403293407538  0.4545354192835  0.3758812326674 1.0
C      1  0.3415179849538  0.2497379207024  0.5438947492101 1.0
C      1  0.6649975528983  0.7329513750681  0.6013440045984 1.0
C      1  0.4385086896012  0.4952624699417  0.3598894611652 1.0
C      1  0.6894321871765  0.5788778118717  0.7516149695710 1.0
C      1  0.6260784418057  0.7568003338793  0.3734025862754 1.0
C      1  0.5219520830351  0.3358866261964  0.6319686142584 1.0
C      1  0.4047045149583  0.5750853471442  0.5144375848256 1.0
C      1  0.4165814862880  0.0903184199195  0.4687143692919 1.0
C      1  0.4758569230037  0.3611861656883  0.7136636736911 1.0
C      1  0.3863395658561  0.3306725892153  0.6913289726542 1.0
C      1  0.7300498865644  0.4187968715705  0.6152532439923 1.0
C      1  0.3717731892206  0.4816435416852  0.5275545350075 1.0
C      1  0.2351446590813  0.3765596561918  0.3109823283087 1.0
C      1  0.6855960163905  0.3866271359681  0.3284211453506 1.0
C      1  0.5272992531945  0.3913753794445  0.2316407182979 1.0
C      1  0.3761777740293  0.1709158640574  0.5003058660725 1.0
C      1  0.2188707182768  0.5906684133965  0.6684292701045 1.0
C      1  0.6460381197688  0.5277012578850  0.2686282810973 1.0
C      1  0.3206922125145  0.4831344560830  0.7369789027456 1.0
C      1  0.2369106088433  0.5038975935185  0.6882659025523 1.0
C      1  0.6759209788146  0.4881797401250  0.7659319385741 1.0
C      1  0.4811152926009  0.6629667713625  0.7740260010094 1.0
C      1  0.7769810561712  0.4535811150038  0.4657966232000 1.0
C      1  0.5306962586258  0.4564757836879  0.3631014076534 1.0
C      1  0.4483934028791  0.6600029723980  0.3001645981418 1.0
C      1  0.2994200255524  0.5020549016530  0.1796794011238 1.0
C      1  0.5105226172924  0.3171609180676  0.2995900421593 1.0
C      1  0.3580417005179  0.5692783728062  0.2096429822669 1.0
C      1  0.7204814848194  0.6274856936592  0.3616377271992 1.0
C      1  0.6339790554169  0.6658309613965  0.3319619207873 1.0
C      1  0.3939768004632  0.2594964938091  0.6220310177072 1.0
C      1  0.5371499362896  0.7709366273297  0.4173361010032 1.0
C      1  0.5682177820845  0.6391623811725  0.4089364589394 1.0
C      1  0.2368067922870  0.4143518897783  0.6485817714704 1.0
C      1  0.2660257357626  0.6595563027984  0.6599832837193 1.0
C      1  0.4795037629823  0.1992315673088  0.6102822685687 1.0
C      1  0.7094147024033  0.2971368241668  0.5291889655294 1.0
C      1  0.2742658075958  0.6590012762044  0.3577330255907 1.0
C      1  0.6236818131475  0.4195894761737  0.7397685190039 1.0
C      1  0.3491142262164  0.6332700927515  0.2876359778242 1.0
C      1  0.2228460981170  0.3816247413208  0.5631915066205 1.0
C      1  0.7343563368843  0.6659358073340  0.6041806686358 1.0
C      1  0.6158071725238  0.6285782129636  0.7852006593638 1.0
C      1  0.5797675494677  0.2684106795804  0.4396134969403 1.0
C      1  0.6467761955957  0.7806894971723  0.5236157694354 1.0
C      1  0.1865982471891  0.5110553774040  0.3779261543041 1.0
C      1  0.5238771758751  0.4268412576223  0.7577983506699 1.0
C      1  0.5605049199870  0.2482803865777  0.6200274226991 1.0
C      1  0.5778047721645  0.4455810769273  0.4473830604505 1.0
C      1  0.5643186734068  0.6944989276964  0.7375944487202 1.0
C      1  0.3219754709366  0.6950078434247  0.4415984171886 1.0
C      1  0.4051738099208  0.6368019465923  0.4385108558261 1.0
C      1  0.4764482192044  0.3663123686726  0.3806177411534 1.0
C      1  0.3373734244413  0.7437609032390  0.5156082100331 1.0
C      1  0.7526650401177  0.5156204433816  0.6145272766957 1.0
C      1  0.6136723850326  0.5094306486695  0.5048171931958 1.0
C      1  0.6737498213343  0.2659592844076  0.4481790138935 1.0
C      1  0.7708121874563  0.6319828050715  0.5176154719218 1.0
C      1  0.5750867119629  0.7106444059701  0.6430940238463 1.0
C      1  0.5062684319726  0.6104907895538  0.2359314822482 1.0
C      1  0.6610572522947  0.4878803056154  0.5818689685316 1.0
C      1  0.2963811305684  0.3768017507133  0.2538594521781 1.0
C      1  0.4514638117860  0.5446079390597  0.1972377345097 1.0
C      1  0.7838408697416  0.5359241339194  0.5223202384900 1.0
C      1  0.6935374521811  0.7591138157002  0.4410031773226 1.0
C      1  0.4691081155630  0.5698465075205  0.5806709839352 1.0
C      1  0.3165849629760  0.3911191888491  0.7020838054360 1.0
C      1  0.5504839852624  0.7895463125994  0.5076377972537 1.0
C      1  0.2132683777251  0.5906494235445  0.3685922537070 1.0
C      1  0.7562119812407  0.3798523870723  0.5302005345617 1.0
C      1  0.3533050371309  0.6884600394182  0.6650752196803 1.0
C      1  0.6721358733534  0.2976795227542  0.3535397725730 1.0
C      1  0.5322634070406  0.3539984756828  0.4682831316871 1.0
END
