TITL C-4675-8135-53 -5.397 3375.00 -920.60630348 0 0 113 (C1) n - 1
REM
REM Run started: at 2020.12.30 23:16:10 in /gpfs/home/chem/mssmkc/CARBON/AIRSS/Generating-Clusters/Str-Search/Higher-Symm/C100-200
REM VASP from code version vasp.5.4.4.18Apr17-6-g9f103f2a35 (build Oct 11 2019 16:45:47) gamma-only
REM
REM
REM
REM
REM ./C.cell (533062f00bc710175b3da973d35f2034)
REM AIRSS Version 0.9.1 bugfix July 2018 build 013d7b7c2542+ Fri, 06 Jul 2018 19:26:36 +0100
REM compiler GCC version 6.3.0
REM options -cpp -iprefix /gpfs/warwick/csc/orac/software/Core/GCCcore/6.3.0/bin/../lib/gcc/x86_64-pc-linux-gnu/6.3.0/ -mtune=generic -march=x86-64 -g -O0
REM seed 253539823 -1168629848 -2141267432 -936899144 -115309023 943473905 2012839571 -1513142861 -1048867850 1446914731 -1800414811 664361987
REM
REM C.POTCAR (d86ddea03c3ceb6dc662c8ad6801f873)
REM 
CELL 1.54180   15.00000   15.00000   15.00000   90.00000   90.00000   90.00000
LATT -1
SFAC C  
C      1  0.5780687177583  0.8217405461211  0.4328858338291 1.0
C      1  0.2307860563840  0.3710295279961  0.4458774447462 1.0
C      1  0.7383955582627  0.2836242508642  0.4288887460651 1.0
C      1  0.5727557430829  0.6253488586084  0.4012175883820 1.0
C      1  0.3596747041792  0.5038060012519  0.3975452662809 1.0
C      1  0.5749615737814  0.3851717007102  0.4202082201031 1.0
C      1  0.5601357423789  0.5568039585676  0.6351702294202 1.0
C      1  0.4150068095773  0.5707903543716  0.5853521322732 1.0
C      1  0.5147169756433  0.3969768032388  0.6610253976838 1.0
C      1  0.6809000488974  0.7245185307310  0.6555245162505 1.0
C      1  0.2128103212528  0.5387891046369  0.6566061587721 1.0
C      1  0.5678819914654  0.2173088179256  0.6559775387149 1.0
C      1  0.8891775206048  0.5614430946084  0.5282809796871 1.0
C      1  0.2215760925523  0.7876068842939  0.5466985430977 1.0
C      1  0.3231597834579  0.2510024228575  0.5264487263575 1.0
C      1  0.4969646387687  0.4151532464689  0.5604933669285 1.0
C      1  0.5771874167503  0.5811062931410  0.5510384086641 1.0
C      1  0.4232256362941  0.4841702405800  0.5515120856597 1.0
C      1  0.4683417929704  0.7619736389181  0.6446234943008 1.0
C      1  0.3049497722547  0.3411935966666  0.6846055882097 1.0
C      1  0.7358653482379  0.4048569608328  0.6504221591115 1.0
C      1  0.5038452329514  0.2316386931660  0.4932371654440 1.0
C      1  0.7257340863958  0.6485860588685  0.4985105071179 1.0
C      1  0.2630473444531  0.6086893956532  0.5058816919151 1.0
C      1  0.5653405584651  0.2365292447357  0.5633380231233 1.0
C      1  0.6926680267616  0.7103841779504  0.5599757990860 1.0
C      1  0.2241559104828  0.5460253311868  0.5616946354497 1.0
C      1  0.7801839660808  0.4876958165607  0.6610239520187 1.0
C      1  0.3739412971775  0.7580298908756  0.6534231044086 1.0
C      1  0.3565878183274  0.2588490681905  0.6903624961719 1.0
C      1  0.4804150100129  0.6850846520911  0.7124831992947 1.0
C      1  0.3425378440371  0.4100841830228  0.7385116239787 1.0
C      1  0.6684761273065  0.4300173076928  0.7232929365238 1.0
C      1  0.5936263873212  0.5043507957894  0.1613070166696 1.0
C      1  0.4480639998243  0.5784870843460  0.1711833306987 1.0
C      1  0.4623579952800  0.4196472143683  0.1922906252993 1.0
C      1  0.5327673833961  0.7920055287730  0.5814174130783 1.0
C      1  0.2515784247235  0.3699882798507  0.6068200925160 1.0
C      1  0.7209141896872  0.3354816569513  0.5847145531275 1.0
C      1  0.4347094799771  0.7482730113693  0.2861620143828 1.0
C      1  0.3278626287300  0.3181132399625  0.2865391835651 1.0
C      1  0.7482222181170  0.4348858647961  0.2626701810481 1.0
C      1  0.3606081672861  0.5444950011767  0.2066264877493 1.0
C      1  0.5408532084824  0.3535113623570  0.1842626716346 1.0
C      1  0.6063478145334  0.5938925513125  0.1994064189619 1.0
C      1  0.3641273779420  0.2197218442999  0.6038381979202 1.0
C      1  0.8247828844390  0.5374719625616  0.5935534893537 1.0
C      1  0.3010310426486  0.7612892575878  0.5918239878481 1.0
C      1  0.2179350069729  0.4330146090801  0.3920349972843 1.0
C      1  0.7010125583471  0.2727030187216  0.3534728640784 1.0
C      1  0.6105667125765  0.7828561119257  0.3656498866309 1.0
C      1  0.6219488007481  0.7616993198815  0.5929047103719 1.0
C      1  0.2187953182757  0.4605162452311  0.6042728446612 1.0
C      1  0.6324672230753  0.2968601707314  0.5973556322187 1.0
C      1  0.5851846392806  0.4386063576726  0.5001117041260 1.0
C      1  0.5175209836019  0.6311243473245  0.4860422460203 1.0
C      1  0.3931065002199  0.4450439525416  0.4693567196825 1.0
C      1  0.4531807073669  0.5280774009947  0.7480179055770 1.0
C      1  0.5119247517941  0.4181171327090  0.8156453065676 1.0
C      1  0.5433250750875  0.5083687389452  0.7858258354351 1.0
C      1  0.6182140168885  0.4103824154216  0.1725039580851 1.0
C      1  0.5185370409040  0.6399339787910  0.1959455730551 1.0
C      1  0.3619049411580  0.4465862327682  0.1974342749982 1.0
C      1  0.4443042921329  0.5111699918486  0.3453455972952 1.0
C      1  0.5581287714033  0.4452921890202  0.3502694669671 1.0
C      1  0.5313863569005  0.5405121556927  0.3670342825782 1.0
C      1  0.7524511552860  0.5064728001294  0.3046004019483 1.0
C      1  0.3645134274501  0.7129167768349  0.3155878170692 1.0
C      1  0.4013966207510  0.2811704445837  0.3012564592874 1.0
C      1  0.6284106970230  0.5204886573369  0.4959383987912 1.0
C      1  0.4256367593706  0.6208025224644  0.4988800172439 1.0
C      1  0.4494172178544  0.3716708825207  0.4756300666387 1.0
C      1  0.5921940006841  0.6963149980880  0.3237707787894 1.0
C      1  0.2809868682984  0.4771592756620  0.3295064351061 1.0
C      1  0.6561535930239  0.2982067238181  0.2767383843224 1.0
C      1  0.3192215004748  0.6402356782416  0.3434343436742 1.0
C      1  0.4898722433264  0.2814576250472  0.3252206531585 1.0
C      1  0.7078866001920  0.5805443375160  0.3354882104360 1.0
C      1  0.3383350346493  0.5985210459570  0.4364165689575 1.0
C      1  0.5080328127595  0.3064526986357  0.4229470165219 1.0
C      1  0.6697829385045  0.5927868794120  0.4300800696384 1.0
C      1  0.4714859473375  0.5897477092043  0.6674283435694 1.0
C      1  0.4420630732881  0.4243947194916  0.7357444269411 1.0
C      1  0.5814071609843  0.4758977703558  0.6900378053922 1.0
C      1  0.7262687323356  0.5162518613464  0.7381910030722 1.0
C      1  0.3754834133986  0.6981959512960  0.7293935355524 1.0
C      1  0.4181038886192  0.2506711383842  0.7614443845242 1.0
C      1  0.5308135168755  0.8470495838311  0.5047245381856 1.0
C      1  0.2595271869506  0.3235575995433  0.5225232265741 1.0
C      1  0.7658518215026  0.3145906185742  0.5065349491637 1.0
C      1  0.3064660028155  0.4908647100785  0.7724488625213 1.0
C      1  0.6187091574134  0.3476660401789  0.7649978661726 1.0
C      1  0.5690959918398  0.6690477198154  0.7670684107169 1.0
C      1  0.6555150598622  0.6311378656021  0.2737454936314 1.0
C      1  0.3010026367128  0.5679883190876  0.2797615149958 1.0
C      1  0.5600320563532  0.2929262884624  0.2577666850642 1.0
C      1  0.2576930511756  0.7004396139298  0.5371351406534 1.0
C      1  0.4142670867849  0.2180260905920  0.5238546957461 1.0
C      1  0.8025427603215  0.5999808809713  0.5286003064406 1.0
C      1  0.3111757992782  0.4065281715103  0.2640478570716 1.0
C      1  0.6907262986371  0.3729237417038  0.2252664209889 1.0
C      1  0.5129021099902  0.7064640083101  0.2619562841323 1.0
C      1  0.6875476053612  0.5928214098265  0.7715445849780 1.0
C      1  0.3236205520265  0.6294821284621  0.7630054450588 1.0
C      1  0.4801683850618  0.2657987936366  0.8150203962562 1.0
C      1  0.5475488025702  0.3320077960128  0.8292974745866 1.0
C      1  0.5957717503339  0.5873926543762  0.8082974510528 1.0
C      1  0.3728881305337  0.5541139745468  0.7983895442623 1.0
C      1  0.6629087887173  0.6825166168789  0.7349217225262 1.0
C      1  0.2501311807432  0.5628451279078  0.7373234850324 1.0
C      1  0.5791374990958  0.3141468344619  0.6792243453347 1.0
C      1  0.4989159328558  0.5018377886449  0.1519274870915 1.0
C      1  0.4823147844481  0.4425827485402  0.2891175625714 1.0
END
