TITL C-4675-8135-31 -6.271 3375.00 -1018.43675374 0 0 125 (Cs) n - 1
REM
REM Run started: at 2020.12.30 04:31:32 in /gpfs/home/chem/mssmkc/CARBON/AIRSS/Generating-Clusters/Str-Search/Higher-Symm/C100-200
REM VASP from code version vasp.5.4.4.18Apr17-6-g9f103f2a35 (build Oct 11 2019 16:45:47) gamma-only
REM
REM
REM
REM
REM ./C.cell (533062f00bc710175b3da973d35f2034)
REM AIRSS Version 0.9.1 bugfix July 2018 build 013d7b7c2542+ Fri, 06 Jul 2018 19:26:36 +0100
REM compiler GCC version 6.3.0
REM options -cpp -iprefix /gpfs/warwick/csc/orac/software/Core/GCCcore/6.3.0/bin/../lib/gcc/x86_64-pc-linux-gnu/6.3.0/ -mtune=generic -march=x86-64 -g -O0
REM seed -2078033702 -1804978136 -1176541219 474836594 1383653931 1986101834 1613862932 1845739835 1578097045 518211375 228622640 -1042426205
REM
REM C.POTCAR (d86ddea03c3ceb6dc662c8ad6801f873)
REM 
CELL 1.54180   15.00000   15.00000   15.00000   90.00000   90.00000   90.00000
LATT -1
SFAC C  
C      1  0.7214486922735  0.7573984247768  0.3352828077098 1.0
C      1  0.2786970539556  0.2436115432215  0.3349278990023 1.0
C      1  0.7281724543603  0.7545491667816  0.6622247073242 1.0
C      1  0.2761877846263  0.2501524371059  0.6628159211920 1.0
C      1  0.2786731986731  0.7575010995259  0.3347567644095 1.0
C      1  0.7213924283617  0.2437405044565  0.3354872821636 1.0
C      1  0.2759709158327  0.7511374571736  0.6622693403025 1.0
C      1  0.7280233472487  0.2468392967896  0.6626699955915 1.0
C      1  0.5949823490263  0.3987999376881  0.6092558783604 1.0
C      1  0.4050462816754  0.6022295130669  0.6080845248948 1.0
C      1  0.5962789092020  0.3934070615205  0.3980247750037 1.0
C      1  0.4040091947918  0.6074389393212  0.3967917714858 1.0
C      1  0.4050372027345  0.3987271740786  0.6081334655167 1.0
C      1  0.5949831741145  0.6021758140357  0.6092084530151 1.0
C      1  0.4039776121812  0.3932381281525  0.3968966157993 1.0
C      1  0.5962127354773  0.6072711764373  0.3978858749899 1.0
C      1  0.8146226589552  0.6291528315528  0.6263027715431 1.0
C      1  0.1855382936207  0.3731111301083  0.6261419345679 1.0
C      1  0.8375876140630  0.6688185558363  0.3705696883399 1.0
C      1  0.1623046348777  0.3318759490152  0.3701715951528 1.0
C      1  0.1854747928269  0.6279505702698  0.6259267034391 1.0
C      1  0.8146034898091  0.3719813889943  0.6265466927964 1.0
C      1  0.1623692863381  0.6691209165030  0.3700626762287 1.0
C      1  0.8376349784569  0.3321785102335  0.3707272755472 1.0
C      1  0.2612642764242  0.4557807389611  0.2003089151674 1.0
C      1  0.7386584017363  0.5454178365741  0.2003301969021 1.0
C      1  0.2685300570571  0.4546628604610  0.8131145453711 1.0
C      1  0.7206949523587  0.5461167211816  0.7959968545538 1.0
C      1  0.7386736738766  0.4557485430376  0.2004776056300 1.0
C      1  0.2612662541656  0.5454084123157  0.2001220048208 1.0
C      1  0.7206831134886  0.4554181549593  0.7960679401711 1.0
C      1  0.2683721304059  0.5471582380121  0.8130975720679 1.0
C      1  0.6047343263882  0.7574649190602  0.5488669690843 1.0
C      1  0.3964042470513  0.2432597634358  0.5482589328445 1.0
C      1  0.6035343736357  0.7597464338210  0.4561288308217 1.0
C      1  0.3970289582315  0.2409411901777  0.4555310582783 1.0
C      1  0.3965242634320  0.7576633266894  0.5479877262974 1.0
C      1  0.6047986049204  0.2434276249342  0.5491662944322 1.0
C      1  0.3971291627220  0.7599217916470  0.4552572839043 1.0
C      1  0.6035473236761  0.2410904549279  0.4564118122462 1.0
C      1  0.2586002412726  0.6310013200170  0.7705618438753 1.0
C      1  0.7443946738965  0.3667216871537  0.7723775215053 1.0
C      1  0.2487747877885  0.6357202203206  0.2270272558892 1.0
C      1  0.7509996041846  0.3655770534648  0.2277587379904 1.0
C      1  0.7443586412043  0.6347863811716  0.7720846037539 1.0
C      1  0.2588074928575  0.3707029734558  0.7708096720072 1.0
C      1  0.7510967251852  0.6356296686258  0.2275339998444 1.0
C      1  0.2488456329200  0.3654874805036  0.2272355871557 1.0
C      1  0.5498832789571  0.5490803356436  0.3391055520027 1.0
C      1  0.4508702660941  0.4514668949081  0.3387345538906 1.0
C      1  0.5478469782074  0.5494267856343  0.6668823643453 1.0
C      1  0.4512982465780  0.4514449239193  0.6665878757284 1.0
C      1  0.4508335559954  0.5490777558372  0.3386172788499 1.0
C      1  0.5499392145377  0.4514738251015  0.3391667509259 1.0
C      1  0.4513075817655  0.5494683453301  0.6665291185299 1.0
C      1  0.5478578243673  0.4515175059753  0.6669403699144 1.0
C      1  0.3271821514558  0.2166505882850  0.6065873857263 1.0
C      1  0.6744507003596  0.7844652317313  0.6064937088391 1.0
C      1  0.3282838146178  0.2168917510737  0.3956329424747 1.0
C      1  0.6719446706916  0.7841531474972  0.3960353780981 1.0
C      1  0.6744871671442  0.2166412165220  0.6069220265773 1.0
C      1  0.3272582411473  0.7844870876111  0.6062194221156 1.0
C      1  0.6720285045672  0.2168173903560  0.3962973481030 1.0
C      1  0.3283887397605  0.7840796678678  0.3954098667412 1.0
C      1  0.7775728849743  0.6827845525833  0.6981434825923 1.0
C      1  0.2263261955094  0.3216039518351  0.6981443605204 1.0
C      1  0.7797627237856  0.6901014625723  0.3009964689125 1.0
C      1  0.2201219281208  0.3107014900306  0.3005842718586 1.0
C      1  0.2260415497084  0.6798221369917  0.6977701180280 1.0
C      1  0.7774945152351  0.3185492218830  0.6985096109617 1.0
C      1  0.2201408391208  0.6903641823212  0.3004733526146 1.0
C      1  0.7797828566342  0.3109659354710  0.3011393850474 1.0
C      1  0.4142106883128  0.3730860326875  0.1592299727367 1.0
C      1  0.5858073231984  0.6279612497435  0.1592292055886 1.0
C      1  0.4141163395136  0.3641210788418  0.8591886848456 1.0
C      1  0.5850679303904  0.6433857311157  0.8543580452050 1.0
C      1  0.5857830388043  0.3730880917365  0.1593361119293 1.0
C      1  0.4142156367946  0.6280036588241  0.1591401938013 1.0
C      1  0.5852136538324  0.3582086125336  0.8548029270270 1.0
C      1  0.4139347891306  0.6378313037871  0.8588319567281 1.0
C      1  0.8323610755652  0.3883869229416  0.5394912370913 1.0
C      1  0.1672894662980  0.6125514350652  0.5386978432993 1.0
C      1  0.8266721918945  0.3846761587162  0.4432088900209 1.0
C      1  0.1732188499599  0.6162906421367  0.4423183280184 1.0
C      1  0.1673097997762  0.3882706219775  0.5388885925410 1.0
C      1  0.8324192574724  0.6124602556597  0.5392857114257 1.0
C      1  0.1731870290571  0.3845538987139  0.4425387966690 1.0
C      1  0.8265750493108  0.6162226753151  0.4429632490388 1.0
C      1  0.2321294413134  0.4501704025500  0.5862180367874 1.0
C      1  0.7681278986319  0.5510479226965  0.5876064797770 1.0
C      1  0.2392397828018  0.4550847452490  0.4204071216919 1.0
C      1  0.7604977171331  0.5457554864908  0.4211350162455 1.0
C      1  0.7680920552498  0.4499695547173  0.5876628454117 1.0
C      1  0.2320978000745  0.5507905381680  0.5861672160985 1.0
C      1  0.7605551093487  0.4551258032984  0.4212862826720 1.0
C      1  0.2392605825702  0.5457642226552  0.4202914519409 1.0
C      1  0.3322233755902  0.4464280665212  0.5567866854350 1.0
C      1  0.6679606681934  0.5544284395811  0.5582743085970 1.0
C      1  0.3348619771029  0.4449083066868  0.4494245986210 1.0
C      1  0.6650587500562  0.5558281442402  0.4508336821147 1.0
C      1  0.6679374421616  0.4465396873243  0.5583057243056 1.0
C      1  0.3322014419607  0.5544909827847  0.5567702282600 1.0
C      1  0.6650988408360  0.4449785583581  0.4509135694099 1.0
C      1  0.3348764115220  0.5558750427259  0.4493960089438 1.0
C      1  0.4522464446456  0.3132349412155  0.4143337311455 1.0
C      1  0.5481666254153  0.6874827268630  0.4147139105108 1.0
C      1  0.4534916281999  0.3168480390989  0.5858556748058 1.0
C      1  0.5472853291291  0.6841288125158  0.5865230906680 1.0
C      1  0.5481603507014  0.3132690547429  0.4149610811812 1.0
C      1  0.4522542307445  0.6875097362636  0.4140751402820 1.0
C      1  0.5472818661352  0.3167969257093  0.5866421893599 1.0
C      1  0.4534970187703  0.6840789255319  0.5857339910735 1.0
C      1  0.6662957155418  0.6222120163167  0.8248128578531 1.0
C      1  0.3317272427344  0.3848295612430  0.8312334502655 1.0
C      1  0.6714127179096  0.6172052111135  0.1815262218125 1.0
C      1  0.3285895260924  0.3839008862415  0.1814402175948 1.0
C      1  0.3314841540805  0.6171957898948  0.8310515631337 1.0
C      1  0.6663618542635  0.3793245929289  0.8250943369039 1.0
C      1  0.3285596454630  0.6172921047524  0.1812898982335 1.0
C      1  0.6713366387721  0.3839608976634  0.1817249385403 1.0
C      1  0.5000104772744  0.6276486875631  0.1534871892693 1.0
C      1  0.4999978564994  0.3733243869042  0.1535414504181 1.0
C      1  0.4994492946001  0.6398280871531  0.8626314152399 1.0
C      1  0.4995802543056  0.3617200784513  0.8631001056241 1.0
C      1  0.4999861831669  0.5003799554538  0.4214468714178 1.0
END
