TITL C-48994-6165-6 -14.139 3375.00 -2191.67294978 0 0 268 (C1) n - 1
REM
REM Run started: at 2020.11.24 06:20:06 in /rds/project/t2_vol4/rds-t2-cs072/BORA/CARBON/AIRSS/Generating-Clusters/Str-Search/Higher-Symm
REM VASP from code version vasp.5.4.4.18Apr17-6-g9f103f2a35 (build Oct 11 2019 16:45:47) gamma-only
REM
REM
REM
REM
REM ./C.cell (e5ae0387ce4d49c7c0135a1433873289)
REM AIRSS Version 0.9.1 bugfix July 2018 build 013d7b7c2542+ Fri, 06 Jul 2018 19:26:36 +0100
REM compiler GCC version 4.8.5 20150623 (Red Hat 4.8.5-39)
REM options -cpp -mtune=generic -march=x86-64 -g -O0
REM seed 587107840 -565108454 760540957 1828280657 -267846932 2129191487 968076533 404866853 291348573 -1322377967 -1053789925 -1476708048
REM
REM C.POTCAR (d86ddea03c3ceb6dc662c8ad6801f873)
REM 
CELL 1.54180   15.00000   15.00000   15.00000   90.00000   90.00000   90.00000
LATT -1
SFAC C  
C      1  0.2812112579087  0.3002577881521  0.0021157583537 1.0
C      1  0.7304813143378  0.3076098358011  0.0078366526723 1.0
C      1  0.2780778480559  0.6996891238628  0.9959029991312 1.0
C      1  0.7236160004035  0.6813376105017  0.9960172183597 1.0
C      1  0.9793925198563  0.1828245971983  0.3047885789722 1.0
C      1  0.9937418255068  0.2966645536220  0.7228401059522 1.0
C      1  0.0053610575072  0.7848058592532  0.2774846205455 1.0
C      1  0.9885586262338  0.6862889460767  0.7338162315386 1.0
C      1  0.2005762835901  0.6386411264631  0.9646530941011 1.0
C      1  0.8096826460726  0.6283564421827  0.0253120993529 1.0
C      1  0.2116208564152  0.3714611973755  0.0388265547328 1.0
C      1  0.8062938763951  0.3600758356422  0.9595622724403 1.0
C      1  0.9707207128634  0.6257968739361  0.2111921975798 1.0
C      1  0.0220660793332  0.6309561065057  0.8152881657339 1.0
C      1  0.0415293279819  0.3804394059915  0.2119247077733 1.0
C      1  0.9552909369749  0.3603307984750  0.7973415650771 1.0
C      1  0.9891494275942  0.4570862635553  0.2477599142422 1.0
C      1  0.0093308795078  0.4485711494830  0.7947631535433 1.0
C      1  0.9579452271118  0.5399200741026  0.8201577702825 1.0
C      1  0.0244867276966  0.5521820118212  0.2458343318350 1.0
C      1  0.2261276549013  0.4547694511827  0.9786731741423 1.0
C      1  0.8278939810594  0.4499510533853  0.0131798215336 1.0
C      1  0.8108689970147  0.5409797145922  0.9558124244897 1.0
C      1  0.1977371140635  0.5461716206069  0.0226318063693 1.0
C      1  0.1597847119295  0.2669809182070  0.7624519724875 1.0
C      1  0.8483405397383  0.2666922201574  0.2522872737793 1.0
C      1  0.1727128013947  0.7397691633230  0.2413541325949 1.0
C      1  0.8257840713401  0.7287013759207  0.7584523945611 1.0
C      1  0.7744530664811  0.2667310238927  0.1702120824133 1.0
C      1  0.2379609656083  0.2677860083484  0.8353419302842 1.0
C      1  0.2466281405027  0.7368348669419  0.1628505884371 1.0
C      1  0.7478675320569  0.7267886437580  0.8306382935720 1.0
C      1  0.4204749804815  0.0613880285060  0.1034185220979 1.0
C      1  0.5878296323468  0.0443122135435  0.9125634381663 1.0
C      1  0.4141279564660  0.9690242022194  0.9172865460089 1.0
C      1  0.5894208876563  0.9601600490820  0.0948350423824 1.0
C      1  0.1055782421002  0.0436849944170  0.4185572486704 1.0
C      1  0.9408101245841  0.0107771864789  0.5839277984073 1.0
C      1  0.9124174974589  0.9383189272448  0.4190796548964 1.0
C      1  0.1150043659652  0.9494067353479  0.5854265569986 1.0
C      1  0.7210524389557  0.9049898417339  0.9033875302183 1.0
C      1  0.2694154581305  0.9180177779570  0.0833294240098 1.0
C      1  0.7342478127056  0.0900618713074  0.0993307089512 1.0
C      1  0.2828684877497  0.0315056972854  0.8697471570051 1.0
C      1  0.8622813811733  0.9708694137478  0.7040242597581 1.0
C      1  0.1359052677215  0.9796508099780  0.2820475141643 1.0
C      1  0.0826041650108  0.0913451811834  0.7295743931670 1.0
C      1  0.8693060384332  0.0115570674289  0.2914420987768 1.0
C      1  0.0873719111686  0.9066603739699  0.6625493711997 1.0
C      1  0.9177678015831  0.9328815159835  0.3248838301572 1.0
C      1  0.0924085583608  0.0561525671689  0.3258201546211 1.0
C      1  0.9327281101846  0.0311572872213  0.6766560679047 1.0
C      1  0.6594702615345  0.9206999804016  0.0548370443091 1.0
C      1  0.3210452458602  0.9608064180061  0.9269371648272 1.0
C      1  0.3417501960997  0.1006268544657  0.0771969300911 1.0
C      1  0.6597416154058  0.0764670225804  0.9537284165989 1.0
C      1  0.6366719628129  0.8954358521556  0.8555575891545 1.0
C      1  0.3499795878411  0.9151501113050  0.1398689471683 1.0
C      1  0.6532225295964  0.1047104181128  0.1504370692453 1.0
C      1  0.3559821654319  0.0862978902550  0.8376753622402 1.0
C      1  0.8429136306493  0.9073841073762  0.6320781579706 1.0
C      1  0.1685986919960  0.9218097236724  0.3506279294377 1.0
C      1  0.1367467829158  0.0988647328227  0.6503447316479 1.0
C      1  0.8453317386981  0.0690053139456  0.3658539105590 1.0
C      1  0.4675506038900  0.4575331830625  0.5949841078827 1.0
C      1  0.5283008208683  0.4577912263700  0.3982117363498 1.0
C      1  0.4720089387699  0.5463019321792  0.3971231404447 1.0
C      1  0.5238013864982  0.5460621087365  0.5958586058408 1.0
C      1  0.5976454255881  0.4576164119529  0.4705238351442 1.0
C      1  0.3982461333790  0.4578515687908  0.5225816239602 1.0
C      1  0.3994360823589  0.5464931223489  0.4662339710888 1.0
C      1  0.5964773747559  0.5462482234582  0.5268795889311 1.0
C      1  0.4965938096531  0.8685320580931  0.5716944822842 1.0
C      1  0.5037619700092  0.8708899557623  0.4212400689589 1.0
C      1  0.4985052147261  0.1346680359234  0.4218544397309 1.0
C      1  0.4969282935603  0.1351828725736  0.5719455145051 1.0
C      1  0.5752504732729  0.8692491726224  0.4975256116136 1.0
C      1  0.4254575106768  0.8701694563645  0.4953084474344 1.0
C      1  0.4220317025093  0.1350154882729  0.4938401058373 1.0
C      1  0.5729975113198  0.1349516199247  0.4997533794872 1.0
C      1  0.5105424547387  0.1763797111087  0.0372617037512 1.0
C      1  0.5056542952512  0.1771829319588  0.9534327146154 1.0
C      1  0.4870609583375  0.8277057982081  0.9677594199230 1.0
C      1  0.4890983094499  0.8419398758315  0.0506402950923 1.0
C      1  0.0375172811457  0.1684413554739  0.5031548925402 1.0
C      1  0.9562189974311  0.1549364586794  0.5145373004876 1.0
C      1  0.9960641094833  0.8101343948285  0.4819021112337 1.0
C      1  0.0771276207098  0.8243221054210  0.4947301511508 1.0
C      1  0.7383738023115  0.7012330555470  0.5254878840422 1.0
C      1  0.2586843975574  0.7031295599688  0.4663155732960 1.0
C      1  0.7375760363632  0.3031946589427  0.4776719136698 1.0
C      1  0.2604259644813  0.3021283140252  0.5185516892303 1.0
C      1  0.5246158851860  0.6978244351751  0.7318083811278 1.0
C      1  0.4656234073066  0.6988573966240  0.2650496217697 1.0
C      1  0.4690337039767  0.3015994481050  0.7369291117787 1.0
C      1  0.5334847552477  0.3041420159340  0.2614545483941 1.0
C      1  0.6590870699191  0.3009384092696  0.5195077437882 1.0
C      1  0.3370930596085  0.3015112160611  0.4739068807492 1.0
C      1  0.6610296872733  0.7025732313828  0.4810373625018 1.0
C      1  0.3360216709453  0.7036688517229  0.5110278526363 1.0
C      1  0.5134852994383  0.3011322309613  0.6594917535470 1.0
C      1  0.4839016331804  0.3011511050034  0.3353605811808 1.0
C      1  0.4774503579655  0.7028761978998  0.6563837806096 1.0
C      1  0.5179422782158  0.7035352636016  0.3369939881491 1.0
C      1  0.7853984168173  0.3685613674674  0.1718493241605 1.0
C      1  0.2328935902494  0.3713173891845  0.8276606101125 1.0
C      1  0.7486159661056  0.6232700874925  0.8203367808514 1.0
C      1  0.2381491717672  0.6347548913009  0.1713734141359 1.0
C      1  0.1635093221721  0.3701847048050  0.7676146694041 1.0
C      1  0.8403582685662  0.3693339024855  0.2455891289640 1.0
C      1  0.8166892460923  0.6247920822661  0.7585909372465 1.0
C      1  0.1770377893665  0.6373992907584  0.2398502119055 1.0
C      1  0.9887208339162  0.2737678602740  0.8382241515111 1.0
C      1  0.0142744501571  0.2887423859343  0.1921990208105 1.0
C      1  0.9936074896472  0.7216593578891  0.1906832677906 1.0
C      1  0.9944887551101  0.7217645106131  0.8485410580407 1.0
C      1  0.8427077493038  0.2722658041683  0.9924195608362 1.0
C      1  0.1649916077534  0.2890849653455  0.0072267042115 1.0
C      1  0.1609136439855  0.7241182305422  0.9993974172511 1.0
C      1  0.8376685812272  0.7188008016500  0.9953972395156 1.0
C      1  0.8807858814625  0.0279133122062  0.4404964846502 1.0
C      1  0.1104084225766  0.0448925981946  0.5763217075388 1.0
C      1  0.9067013533160  0.9187479082709  0.5693910742077 1.0
C      1  0.1406818183029  0.9558639212269  0.4305418608149 1.0
C      1  0.4326625222233  0.0546949069379  0.8754481005894 1.0
C      1  0.5824629978951  0.0559036657464  0.1160066154521 1.0
C      1  0.5702343563305  0.9484793431254  0.8941296080956 1.0
C      1  0.4262418049149  0.9678604452880  0.1190962490757 1.0
C      1  0.1759503206795  0.8840016329095  0.9518331390104 1.0
C      1  0.8172689451871  0.8779028398183  0.0403968921985 1.0
C      1  0.1782339577712  0.1324229127932  0.0480040415248 1.0
C      1  0.8156307531678  0.1132140766783  0.9559047630440 1.0
C      1  0.9362062560561  0.8682687139875  0.1785077660869 1.0
C      1  0.0431113878834  0.8782253990428  0.8220573627659 1.0
C      1  0.0604600799183  0.1309153535497  0.1838601869832 1.0
C      1  0.9425771464964  0.1144389729363  0.8146803683435 1.0
C      1  0.3070823233037  0.7912173970081  0.2278743918329 1.0
C      1  0.6930093987925  0.7851584791512  0.7635717672261 1.0
C      1  0.2945723228111  0.2136622324205  0.7655097255432 1.0
C      1  0.7133047446960  0.2155737660696  0.2400877068889 1.0
C      1  0.2433245443179  0.7911418790854  0.2962028454324 1.0
C      1  0.7607822993493  0.7872592134243  0.6992845334662 1.0
C      1  0.7787917103295  0.2093058259109  0.3067553103994 1.0
C      1  0.2261970984089  0.2128240789574  0.7030410349329 1.0
C      1  0.2284817179739  0.2691570745184  0.9341878407135 1.0
C      1  0.7829181860161  0.2652250613433  0.0701236226869 1.0
C      1  0.2320080282668  0.7376051681223  0.0654680781434 1.0
C      1  0.7653096012909  0.7271076892535  0.9287147436640 1.0
C      1  0.9445605648805  0.2446367044565  0.2490727301377 1.0
C      1  0.0617860942940  0.2624845605064  0.7739969151226 1.0
C      1  0.0773857221156  0.7583057929795  0.2337922270344 1.0
C      1  0.9238764865193  0.7319384997158  0.7790435014171 1.0
C      1  0.2459168969899  0.5576872607763  0.1138532706464 1.0
C      1  0.7420047754364  0.5446127569201  0.8783133027227 1.0
C      1  0.2441708941804  0.4486121502439  0.8870899335487 1.0
C      1  0.7828338897452  0.4413664606034  0.1061040483574 1.0
C      1  0.1213007472089  0.5603086551085  0.2558702172340 1.0
C      1  0.8751451738964  0.5472698412555  0.7542782201303 1.0
C      1  0.8937370403314  0.4486084483127  0.2586973506234 1.0
C      1  0.0990013316160  0.4451617010886  0.7668060331838 1.0
C      1  0.8472458383616  0.9576183424728  0.0767048563567 1.0
C      1  0.1432297697050  0.9578936154986  0.9083385878867 1.0
C      1  0.8380995801587  0.0341078853051  0.9150079735387 1.0
C      1  0.1463102374857  0.0465358104217  0.0710575742496 1.0
C      1  0.0701197183943  0.9641726407028  0.8505712056153 1.0
C      1  0.9049414369592  0.9483081907738  0.1492518776429 1.0
C      1  0.8927372966797  0.0423946464397  0.8412892688719 1.0
C      1  0.0885001667873  0.0535615666738  0.1451230998181 1.0
C      1  0.5026274325970  0.1060782034596  0.0995039850946 1.0
C      1  0.5114331052066  0.1014140067930  0.8983819630105 1.0
C      1  0.4859972177483  0.9103679852472  0.9182955092927 1.0
C      1  0.5044506333883  0.9163299232021  0.1057908416858 1.0
C      1  0.0961418571113  0.0931760962353  0.4955907894592 1.0
C      1  0.9130438153364  0.0706577442229  0.5184995946303 1.0
C      1  0.9291541447406  0.8770007205547  0.4852924362471 1.0
C      1  0.1299304797873  0.9015268439612  0.5066776049813 1.0
C      1  0.7929517385283  0.9543062902069  0.8726668690165 1.0
C      1  0.1891614960841  0.9625204557227  0.1117298720507 1.0
C      1  0.8063451217881  0.0386419478942  0.1236090259434 1.0
C      1  0.1899769326423  0.0302464150154  0.8623153406494 1.0
C      1  0.8458779489917  0.9732925986349  0.7938423530748 1.0
C      1  0.1358015046477  0.9801658766843  0.1893478740032 1.0
C      1  0.1124560831237  0.0467316691619  0.8076421540697 1.0
C      1  0.8612316492230  0.0163022019514  0.2001418290532 1.0
C      1  0.3086436459290  0.0935354760183  0.6107331232324 1.0
C      1  0.6834282019455  0.0935125583601  0.3855124330173 1.0
C      1  0.3275905922190  0.9125220739327  0.3761441790077 1.0
C      1  0.6759049649028  0.9075264891586  0.6185573057489 1.0
C      1  0.6193415072328  0.0964566139387  0.3180800714045 1.0
C      1  0.3764127029061  0.0960362346842  0.6742464131980 1.0
C      1  0.3910436297377  0.9165157053469  0.3091761730648 1.0
C      1  0.6087430580249  0.9075919444037  0.6837789085672 1.0
C      1  0.5476064408581  0.6114519344006  0.3748322159425 1.0
C      1  0.4481053141285  0.6111626818885  0.6182053542939 1.0
C      1  0.5425100479463  0.3926391170551  0.6211022890858 1.0
C      1  0.4535208632940  0.3928743680862  0.3724757409750 1.0
C      1  0.3736211981170  0.6117111870226  0.5409226108368 1.0
C      1  0.6223356214770  0.6112661512923  0.4519473825840 1.0
C      1  0.6200280653036  0.3928449014497  0.5467296602432 1.0
C      1  0.3759839257907  0.3931583065380  0.4464727756525 1.0
C      1  0.2238552991530  0.5260462801722  0.8353230109838 1.0
C      1  0.7852567275715  0.5191735176597  0.1538063878639 1.0
C      1  0.2367084978884  0.4821958272475  0.1657154074194 1.0
C      1  0.7526759652705  0.4667514689476  0.8286475622595 1.0
C      1  0.8436386728883  0.5229135474119  0.2322575829461 1.0
C      1  0.1513358951443  0.5232948969390  0.7761936526621 1.0
C      1  0.1709002844775  0.4839762291873  0.2377957810227 1.0
C      1  0.8247582287230  0.4693139800618  0.7602761681691 1.0
C      1  0.3926760770311  0.2231079994016  0.4528196247719 1.0
C      1  0.6027588274802  0.2232017032495  0.5404008028705 1.0
C      1  0.3925683074095  0.7810431505229  0.5333886941030 1.0
C      1  0.6064071596796  0.7809091031533  0.4577373060345 1.0
C      1  0.4595875353439  0.2231501743542  0.3898412800737 1.0
C      1  0.5361707576902  0.2233640652656  0.6038435996813 1.0
C      1  0.5428452184607  0.7817169363306  0.3911955351688 1.0
C      1  0.4557804189383  0.7803534404254  0.6002633464529 1.0
C      1  0.2715358621775  0.1323813546296  0.0486139831293 1.0
C      1  0.7285577855628  0.1021658128017  0.0017114171658 1.0
C      1  0.2657164801839  0.9083759254685  0.9872972473022 1.0
C      1  0.7246518892012  0.8926483774630  0.0022838521134 1.0
C      1  0.0472335866436  0.1249492289038  0.2798562335113 1.0
C      1  0.9840567314123  0.0891917360722  0.7298688309668 1.0
C      1  0.9517394981754  0.8643105126149  0.2720335644498 1.0
C      1  0.0504256910486  0.8751996251333  0.7288499109928 1.0
C      1  0.3432148225612  0.4846189304107  0.4028950676341 1.0
C      1  0.6525816065099  0.4845452411702  0.5903551048642 1.0
C      1  0.3393646332206  0.5198359408156  0.5832001725798 1.0
C      1  0.6564293556687  0.5196648582405  0.4096407734226 1.0
C      1  0.4112633739405  0.4845619200368  0.3379932535408 1.0
C      1  0.5844953836055  0.4845396042017  0.6552002087278 1.0
C      1  0.5913991394868  0.5197172243796  0.3417805045705 1.0
C      1  0.4043570637251  0.5196903719111  0.6511431601999 1.0
C      1  0.8672313939882  0.1933120710587  0.9375205640478 1.0
C      1  0.1294709387366  0.2170727814899  0.0670531040892 1.0
C      1  0.8684178675618  0.7928009786119  0.0548445613773 1.0
C      1  0.1252395592014  0.8002172053139  0.9448919798447 1.0
C      1  0.9346534389732  0.1946067133455  0.8680181212021 1.0
C      1  0.0665404107499  0.2187849121374  0.1414207665909 1.0
C      1  0.0550663916759  0.7975351956728  0.8778858632759 1.0
C      1  0.9351215912176  0.7879915459913  0.1269113911539 1.0
C      1  0.6189696853516  0.0498306095534  0.4603173175038 1.0
C      1  0.3767098206804  0.0495909480432  0.5326948442812 1.0
C      1  0.6172360575518  0.9537702973746  0.5408789189539 1.0
C      1  0.3837629806706  0.9562359500057  0.4546053901904 1.0
C      1  0.4534617630444  0.0510990970004  0.6147952751280 1.0
C      1  0.5403871198383  0.0494224916382  0.3785206470037 1.0
C      1  0.5348414460947  0.9531023945095  0.6182511041152 1.0
C      1  0.4673711737255  0.9583428219710  0.3761038347858 1.0
C      1  0.6289266219715  0.8553681573245  0.7687895117757 1.0
C      1  0.3625565359430  0.8687926224080  0.2210373550109 1.0
C      1  0.6454805676433  0.1488154153208  0.2343457487086 1.0
C      1  0.3593149323975  0.1450808242827  0.7608520037612 1.0
C      1  0.7600617481225  0.8556925837556  0.6340293452243 1.0
C      1  0.2434951973355  0.8614686982959  0.3570277270918 1.0
C      1  0.2207687757533  0.1404073269187  0.6406929124952 1.0
C      1  0.7732920592824  0.1358961017462  0.3674204671150 1.0
C      1  0.7977690766604  0.3836406293496  0.8645894366624 1.0
C      1  0.2028333164165  0.3958626336423  0.1337915606472 1.0
C      1  0.8199420897257  0.6030358310435  0.1195945082839 1.0
C      1  0.1877444755818  0.6129945831166  0.8725311138755 1.0
C      1  0.8607916023558  0.3846543623146  0.7987390309762 1.0
C      1  0.1332125517465  0.4025162873308  0.1969452996129 1.0
C      1  0.1161256640890  0.6075504863127  0.8170587573398 1.0
C      1  0.8820425332135  0.6026289988156  0.1917761265756 1.0
C      1  0.9347063247235  0.4822669594792  0.9919682805673 1.0
C      1  0.9087585706181  0.5273087751105  0.9154129844919 1.0
C      1  0.0241943020749  0.4901133371973  0.0217107346491 1.0
C      1  0.1003503526561  0.5216023496091  0.0314958201690 1.0
END
