TITL C-48930-2993-20 -1.456 3375.00 -235.66795391 0 0 30 (D6h) n - 1
REM
REM Run started: at 2020.12.01 04:38:12 in /rds/project/t2_vol4/rds-t2-cs072/BORA/CARBON/AIRSS/Generating-Clusters/Str-Search/Higher-Symm/C10-100
REM VASP from code version vasp.5.4.4.18Apr17-6-g9f103f2a35 (build Oct 11 2019 16:45:47) gamma-only
REM
REM
REM
REM
REM ./C.cell (f39ce9773e2efe3fa5bbdf770a4156b8)
REM AIRSS Version 0.9.1 bugfix July 2018 build 013d7b7c2542+ Fri, 06 Jul 2018 19:26:36 +0100
REM compiler GCC version 4.8.5 20150623 (Red Hat 4.8.5-39)
REM options -cpp -mtune=generic -march=x86-64 -g -O0
REM seed 137858438 -846750443 1382152185 1825792647 1896779484 -72214902 933349731 -885038694 1520434835 662996278 -1273257490 -2005788411
REM
REM C.POTCAR (d86ddea03c3ceb6dc662c8ad6801f873)
REM 
CELL 1.54180   15.00000   15.00000   15.00000   90.00000   90.00000   90.00000
LATT -1
SFAC C  
C      1  0.4512665121808  0.4629786297730  0.3288898363446 1.0
C      1  0.6237039937342  0.4630115515055  0.3723931822569 1.0
C      1  0.6724281192308  0.4629798253114  0.5433991348137 1.0
C      1  0.5487334808097  0.4629788124399  0.6711103970296 1.0
C      1  0.3762960448199  0.4630116954671  0.6276070888309 1.0
C      1  0.3275718684568  0.4629797787586  0.4566011697751 1.0
C      1  0.4512899759590  0.5539624560460  0.3289152632799 1.0
C      1  0.6237132025023  0.5539447602506  0.3724124912061 1.0
C      1  0.6723960193939  0.5539488564581  0.5434132447605 1.0
C      1  0.5487100363658  0.5539626363891  0.6710845209895 1.0
C      1  0.3762867575350  0.5539449003479  0.6275872547475 1.0
C      1  0.3276039941114  0.5539488093932  0.4565864651183 1.0
C      1  0.5659683449323  0.4095279321511  0.4316989303618 1.0
C      1  0.5922934135848  0.4094505566009  0.5230961893808 1.0
C      1  0.5262500685458  0.4094501069538  0.5915480143137 1.0
C      1  0.4340316620021  0.4095278803508  0.5683014840692 1.0
C      1  0.4077065964413  0.4094505867824  0.4769042290952 1.0
C      1  0.4737499393195  0.4094501883048  0.4084523927867 1.0
C      1  0.5659613624430  0.6072809603701  0.4317248696806 1.0
C      1  0.5922873204350  0.6073563073514  0.5231040544471 1.0
C      1  0.5262306403213  0.6073482841222  0.5915152076854 1.0
C      1  0.4340386352167  0.6072809006487  0.5682747279080 1.0
C      1  0.4077126623141  0.6073563417603  0.4768955476944 1.0
C      1  0.4737693455782  0.6073483745385  0.4084843945603 1.0
C      1  0.3167580612301  0.5084745416852  0.6882655868042 1.0
C      1  0.6832418878926  0.5084741197792  0.3117343872359 1.0
C      1  0.5723397485304  0.5085010277755  0.7527100512761 1.0
C      1  0.7545215156474  0.5084939303661  0.5652606044151 1.0
C      1  0.2454785046080  0.5084937693269  0.4347393241250 1.0
C      1  0.4276602858577  0.5085004789915  0.2472899550079 1.0
END
