TITL C-48994-6165-8 -5.943 3375.00 -1012.74852981 0 0 123 (C1) n - 1
REM
REM Run started: at 2020.11.24 07:43:47 in /rds/project/t2_vol4/rds-t2-cs072/BORA/CARBON/AIRSS/Generating-Clusters/Str-Search/Higher-Symm
REM VASP from code version vasp.5.4.4.18Apr17-6-g9f103f2a35 (build Oct 11 2019 16:45:47) gamma-only
REM
REM
REM
REM
REM ./C.cell (e5ae0387ce4d49c7c0135a1433873289)
REM AIRSS Version 0.9.1 bugfix July 2018 build 013d7b7c2542+ Fri, 06 Jul 2018 19:26:36 +0100
REM compiler GCC version 4.8.5 20150623 (Red Hat 4.8.5-39)
REM options -cpp -mtune=generic -march=x86-64 -g -O0
REM seed -103126086 1388695607 1994812654 -1062082821 412100929 -537587607 -1198767495 -902985220 -1608122647 222106064 356107424 -97343161
REM
REM C.POTCAR (d86ddea03c3ceb6dc662c8ad6801f873)
REM 
CELL 1.54180   15.00000   15.00000   15.00000   90.00000   90.00000   90.00000
LATT -1
SFAC C  
C      1  0.6501728924912  0.4069828670654  0.5471825104769 1.0
C      1  0.3664704227693  0.4123239049963  0.6201420193616 1.0
C      1  0.4635203291655  0.3938499577501  0.3350890991172 1.0
C      1  0.7898203755263  0.4796615238513  0.4363784360991 1.0
C      1  0.4051409168022  0.4834071924742  0.7930776473638 1.0
C      1  0.3076078050977  0.4739783283901  0.2642420048503 1.0
C      1  0.4357930942791  0.8214946748349  0.5796129627322 1.0
C      1  0.4694102550176  0.8418624723925  0.4168822314986 1.0
C      1  0.5947575298969  0.8158571896665  0.5203005600770 1.0
C      1  0.5393722202559  0.6997985192630  0.8157787575830 1.0
C      1  0.2148824964065  0.6934035481208  0.3730102648546 1.0
C      1  0.7178715418310  0.6932696416919  0.2937374144585 1.0
C      1  0.3517438305530  0.7180896814990  0.2410043290960 1.0
C      1  0.8200383749975  0.6659872530166  0.4989992227555 1.0
C      1  0.3336388594352  0.6682666835703  0.7826457374168 1.0
C      1  0.6249226854409  0.3810402234378  0.7492206943330 1.0
C      1  0.2363092885043  0.3827406612207  0.4822407815142 1.0
C      1  0.6605984827383  0.3625912876493  0.2672007051192 1.0
C      1  0.2064055113821  0.6055186569870  0.3995397282057 1.0
C      1  0.7327563351949  0.5969628439095  0.2875375343510 1.0
C      1  0.5606326630241  0.6092849074646  0.8030434738782 1.0
C      1  0.3738190116685  0.7843589735774  0.2864483625811 1.0
C      1  0.7343241135081  0.6979977304723  0.5196399511299 1.0
C      1  0.3609924229397  0.7026373857098  0.7003277264257 1.0
C      1  0.6065351861153  0.8066096951372  0.3457961338324 1.0
C      1  0.5691078989438  0.7930804937193  0.6761160879857 1.0
C      1  0.3167473583608  0.7986131798046  0.4808989909004 1.0
C      1  0.5941906698806  0.1639977273553  0.5314341525842 1.0
C      1  0.4357622383779  0.1670004433436  0.5708382868420 1.0
C      1  0.4807660821642  0.1609217628873  0.4130849328783 1.0
C      1  0.5144260762405  0.4431896730592  0.3761040874790 1.0
C      1  0.5825926241933  0.4449438119069  0.5746916229679 1.0
C      1  0.4138837481547  0.4762958246614  0.5785570746311 1.0
C      1  0.7540529501320  0.4471525449260  0.3550724931744 1.0
C      1  0.4955276472035  0.4525994742430  0.7965085065442 1.0
C      1  0.2611773123540  0.4513639405612  0.3437877807063 1.0
C      1  0.6671609146637  0.6249127673631  0.3406561567654 1.0
C      1  0.5899554016267  0.6237838408126  0.7134290963419 1.0
C      1  0.2569122082328  0.6557188124244  0.4698069720557 1.0
C      1  0.7406960370664  0.6107933421736  0.5648323713872 1.0
C      1  0.3176067306011  0.6164559642697  0.6803454082695 1.0
C      1  0.3853894397245  0.6360585432676  0.2073508141598 1.0
C      1  0.4422815604913  0.6155036112615  0.4909195119415 1.0
C      1  0.5314606450261  0.5979721581209  0.4575052705021 1.0
C      1  0.5222630803468  0.5988338439430  0.5547403520270 1.0
C      1  0.4129616231092  0.1672650923883  0.4768032474905 1.0
C      1  0.5731961100599  0.1638757917649  0.4402408112459 1.0
C      1  0.5249946629207  0.1684097388979  0.5983732246122 1.0
C      1  0.6513285434917  0.2370691486014  0.6574096761669 1.0
C      1  0.2996737992982  0.2394958502158  0.5521147961379 1.0
C      1  0.5635987543536  0.2245862558572  0.2976936086947 1.0
C      1  0.5551312775447  0.5175036184292  0.4044781558571 1.0
C      1  0.5103754771422  0.5038446378762  0.5990467434805 1.0
C      1  0.3820188299527  0.5373921718820  0.5101654622634 1.0
C      1  0.5949310298594  0.4859439462091  0.1747371994092 1.0
C      1  0.7219574246799  0.5135280900166  0.7057524043656 1.0
C      1  0.2142796332084  0.5187153800830  0.5883651155283 1.0
C      1  0.7121270265446  0.2707761812718  0.4994726120769 1.0
C      1  0.4022851205191  0.2739982861920  0.6896888090232 1.0
C      1  0.3958209384647  0.2627861102834  0.3173667740351 1.0
C      1  0.3657768646755  0.7732829194582  0.6317785657927 1.0
C      1  0.4502691844989  0.8200832023709  0.3249438903624 1.0
C      1  0.6727951914972  0.7668902245075  0.5536429884709 1.0
C      1  0.5408318186539  0.5881925214974  0.6449950027692 1.0
C      1  0.3465223625102  0.6099942352157  0.4730360506644 1.0
C      1  0.5989611518557  0.5948700930659  0.3899334122827 1.0
C      1  0.8034214827425  0.4206463833375  0.5086664605393 1.0
C      1  0.3370867683566  0.4228962735172  0.7704486167462 1.0
C      1  0.3638774307132  0.4087303668052  0.2203437960959 1.0
C      1  0.3362085402784  0.2225479037513  0.4621984001970 1.0
C      1  0.6232150909051  0.2154096292337  0.3770410694041 1.0
C      1  0.5541517094873  0.2228872386658  0.6719328093974 1.0
C      1  0.8251803751027  0.4827552928096  0.5745885669772 1.0
C      1  0.2695657952970  0.4859148257088  0.7474429112063 1.0
C      1  0.4196170222860  0.4729320544230  0.1791056484028 1.0
C      1  0.7377096780180  0.3555477707676  0.5443962660214 1.0
C      1  0.3473977042528  0.3545266240056  0.7005784733308 1.0
C      1  0.4225698082218  0.3416372436501  0.2626655131991 1.0
C      1  0.6657480602775  0.4521329158717  0.2257335590675 1.0
C      1  0.6482172408487  0.4750596543214  0.7591553307814 1.0
C      1  0.2142716702746  0.4758544137367  0.4975209429603 1.0
C      1  0.2023204168240  0.2348824240580  0.5802493525876 1.0
C      1  0.5927569168336  0.2086134567597  0.2037319170430 1.0
C      1  0.7214570201744  0.2300468882115  0.7284203046076 1.0
C      1  0.2963101432469  0.7598832037169  0.5695564757303 1.0
C      1  0.5343856075408  0.7927190744990  0.2823521379611 1.0
C      1  0.6525893166301  0.7516998808688  0.6461173637192 1.0
C      1  0.5291762788165  0.8244354634534  0.5952073169554 1.0
C      1  0.4059819854007  0.8337004601470  0.4876147444528 1.0
C      1  0.5646920325252  0.8311247705272  0.4315295438234 1.0
C      1  0.2717807991228  0.3640103994704  0.3952968138866 1.0
C      1  0.7113437471809  0.3545392595969  0.3449095671583 1.0
C      1  0.5325386633979  0.3638987498334  0.7632066343219 1.0
C      1  0.6894188348773  0.7694200993173  0.3289641578727 1.0
C      1  0.5383812024635  0.7644376648519  0.7593696440350 1.0
C      1  0.2703979264351  0.7481238847453  0.4177574979710 1.0
C      1  0.7798056834588  0.4551041704335  0.6564154444768 1.0
C      1  0.2320300710193  0.4619396396699  0.6630590916136 1.0
C      1  0.5118523403190  0.4409270975395  0.1715782791444 1.0
C      1  0.2737488502410  0.3770747964486  0.6364657881280 1.0
C      1  0.5082351906746  0.3516146549884  0.2080465865735 1.0
C      1  0.7514233546967  0.3649244125258  0.6445277587492 1.0
C      1  0.5694520403309  0.5139752781804  0.8043806312996 1.0
C      1  0.2173099175114  0.5138962534514  0.4062044744234 1.0
C      1  0.7340334149877  0.4990051089560  0.2755379683495 1.0
C      1  0.3351969643723  0.5634680728550  0.7627419730707 1.0
C      1  0.3620677657105  0.5458149650491  0.2113843406155 1.0
C      1  0.8030744331675  0.5596030515520  0.5088424571047 1.0
C      1  0.2401380094742  0.6835343149312  0.5623705404099 1.0
C      1  0.5276602737197  0.7291797939288  0.2145259003304 1.0
C      1  0.6703436514630  0.6714109977911  0.6887542789274 1.0
C      1  0.4725161992489  0.6720100683391  0.1879490787246 1.0
C      1  0.7253660432011  0.6011938786219  0.6600855870486 1.0
C      1  0.2430387154653  0.6084410958926  0.6178800778450 1.0
C      1  0.4696362156002  0.2065419061447  0.3311121070012 1.0
C      1  0.6680543642140  0.2151925860582  0.5601353918748 1.0
C      1  0.3735836270461  0.2193077143002  0.6184891775403 1.0
C      1  0.4951597451086  0.2823399471586  0.7177150865578 1.0
C      1  0.3264425167710  0.2793562781870  0.3854331170088 1.0
C      1  0.6913238582376  0.2764144803706  0.4046846661956 1.0
C      1  0.6867370901583  0.3228253556857  0.7022246756670 1.0
C      1  0.2434765831866  0.3230401183277  0.5595611245349 1.0
C      1  0.5871896184178  0.3051786316141  0.2379955503477 1.0
END
