TITL C-48994-6165-3 -7.994 3375.00 -1422.58557182 0 0 173 (C1) n - 1
REM
REM Run started: at 2020.11.24 01:26:14 in /rds/project/t2_vol4/rds-t2-cs072/BORA/CARBON/AIRSS/Generating-Clusters/Str-Search/Higher-Symm
REM VASP from code version vasp.5.4.4.18Apr17-6-g9f103f2a35 (build Oct 11 2019 16:45:47) gamma-only
REM
REM
REM
REM
REM ./C.cell (e5ae0387ce4d49c7c0135a1433873289)
REM AIRSS Version 0.9.1 bugfix July 2018 build 013d7b7c2542+ Fri, 06 Jul 2018 19:26:36 +0100
REM compiler GCC version 4.8.5 20150623 (Red Hat 4.8.5-39)
REM options -cpp -mtune=generic -march=x86-64 -g -O0
REM seed -1753097784 -2055805858 1385180846 -923007117 835111261 -708017627 -961336348 -832129932 -1883522166 2146034071 384048561 -1240669823
REM
REM C.POTCAR (d86ddea03c3ceb6dc662c8ad6801f873)
REM 
CELL 1.54180   15.00000   15.00000   15.00000   90.00000   90.00000   90.00000
LATT -1
SFAC C  
C      1  0.2443415427892  0.3375412776157  0.2367356889692 1.0
C      1  0.2448726963143  0.3488010524818  0.7391948813772 1.0
C      1  0.7517218944910  0.3312043045395  0.7572990894796 1.0
C      1  0.7526786869600  0.3430840845253  0.2565085922670 1.0
C      1  0.2494928032802  0.6564566329066  0.7484755125650 1.0
C      1  0.2470559769462  0.6579910664327  0.2484780667782 1.0
C      1  0.7502085220382  0.6595396680417  0.2475388064837 1.0
C      1  0.7523368695020  0.6532806000047  0.7450477881137 1.0
C      1  0.4512501786619  0.3194107443892  0.5539916190357 1.0
C      1  0.5415116238312  0.2882135739410  0.5422023015688 1.0
C      1  0.5444002519573  0.3302423052788  0.4528343352438 1.0
C      1  0.4415804248904  0.3233773964067  0.4540524715985 1.0
C      1  0.4481854550104  0.6749430489125  0.4430459154528 1.0
C      1  0.5481649137358  0.6751463480616  0.4519207136721 1.0
C      1  0.5362972472350  0.6668285030276  0.5509472036809 1.0
C      1  0.4378504833616  0.6762586493830  0.5432952867532 1.0
C      1  0.4350949322023  0.4779754456138  0.1298248399248 1.0
C      1  0.1234119518858  0.4842940742476  0.5608573003083 1.0
C      1  0.5664014688290  0.4735734346730  0.8323125559981 1.0
C      1  0.8393692319755  0.4791355117872  0.4370182101370 1.0
C      1  0.4382282650056  0.5292032548921  0.8309562772281 1.0
C      1  0.1596072279371  0.5325861145007  0.4334146445247 1.0
C      1  0.5611180518977  0.5281803599713  0.1749785226055 1.0
C      1  0.8782223215266  0.5321391362258  0.5574401334852 1.0
C      1  0.6201008290677  0.4376378424097  0.5799714880820 1.0
C      1  0.5685589817048  0.4304039508193  0.4411989372246 1.0
C      1  0.3749222465798  0.3846007127682  0.4158958632126 1.0
C      1  0.4632377698252  0.4197084221947  0.5907955094147 1.0
C      1  0.6131002054094  0.6065036977182  0.4257774365261 1.0
C      1  0.5580631791997  0.5728658018097  0.5876190883271 1.0
C      1  0.3804708981670  0.6023410132118  0.5739456957117 1.0
C      1  0.4151495141628  0.5991314574368  0.3917310814728 1.0
C      1  0.3721892666824  0.7567607735109  0.2637449996443 1.0
C      1  0.2640906946277  0.7582636015658  0.6254419543103 1.0
C      1  0.6300315993361  0.7622755484819  0.7348441338405 1.0
C      1  0.7322169254940  0.7602462846856  0.3734704001976 1.0
C      1  0.3677363448123  0.2517923619961  0.7352600943414 1.0
C      1  0.2601693773916  0.2595880509542  0.3702355687200 1.0
C      1  0.6252366750980  0.2556218474103  0.2685295609960 1.0
C      1  0.7373623525875  0.2525146002893  0.6241748346056 1.0
C      1  0.5610060241080  0.4623416587029  0.7242976668303 1.0
C      1  0.7323569400293  0.4731437424206  0.4618907897731 1.0
C      1  0.4519058435316  0.4543929834379  0.3154910218223 1.0
C      1  0.3129694554482  0.4544105885625  0.5471666906498 1.0
C      1  0.5562964300571  0.5393917007889  0.2873188423109 1.0
C      1  0.7242912041367  0.5708003097722  0.5682173166108 1.0
C      1  0.4425349272574  0.5393576721815  0.7164784143452 1.0
C      1  0.2684133226928  0.5295101526687  0.4389681516493 1.0
C      1  0.2514570627567  0.7432490413549  0.3917978810015 1.0
C      1  0.3928663653648  0.7404492034065  0.7462435112623 1.0
C      1  0.7472816584788  0.7441801465486  0.6039239448335 1.0
C      1  0.6052403928594  0.7414520871500  0.2525664792914 1.0
C      1  0.2451886727343  0.2708691236462  0.6000072696767 1.0
C      1  0.3911903814772  0.2669167385352  0.2516931134559 1.0
C      1  0.7510369416724  0.2643097859594  0.3963749295343 1.0
C      1  0.6029844030241  0.2596511911309  0.7467472387009 1.0
C      1  0.3700023673375  0.4088674557322  0.1503873317468 1.0
C      1  0.1584520676420  0.4202109319224  0.6257555007838 1.0
C      1  0.6342828970176  0.3999138729046  0.8380923307645 1.0
C      1  0.8393042854116  0.4082019115948  0.3668548608831 1.0
C      1  0.3691335345063  0.6004966920889  0.8373636741562 1.0
C      1  0.1557495758826  0.6059751755927  0.3656714120452 1.0
C      1  0.6300326410180  0.5991458288978  0.1647150903914 1.0
C      1  0.8230151095853  0.5923140132540  0.6154204603886 1.0
C      1  0.7227216938526  0.7352476776448  0.6967168966239 1.0
C      1  0.6986706800860  0.7354899095051  0.2790220291626 1.0
C      1  0.2790242021286  0.7345076411852  0.2983623470937 1.0
C      1  0.2993853086541  0.7328250780354  0.7181365334998 1.0
C      1  0.7210023079664  0.2691602890197  0.3042118680847 1.0
C      1  0.6979778708488  0.2648914684826  0.7171663713148 1.0
C      1  0.2748137970951  0.2731480004402  0.6932504866250 1.0
C      1  0.2962570916909  0.2674596291505  0.2774508323117 1.0
C      1  0.6768019799216  0.2252679362201  0.5539021113754 1.0
C      1  0.5516913618202  0.2323721312549  0.3272167838750 1.0
C      1  0.3188893484908  0.2274340887122  0.4433808360825 1.0
C      1  0.4403264507684  0.2223006943351  0.6748055950823 1.0
C      1  0.6684171095155  0.7770611754604  0.4449843688503 1.0
C      1  0.5553979964168  0.7708070380506  0.6730967383002 1.0
C      1  0.3246339931043  0.7802343803773  0.5538574565159 1.0
C      1  0.4431608428725  0.7785960806402  0.3238638098805 1.0
C      1  0.4001157315972  0.2441470715827  0.5884561773891 1.0
C      1  0.5850825978766  0.2286114834588  0.5914586317518 1.0
C      1  0.5910182704089  0.2534186027659  0.4131275131903 1.0
C      1  0.4118826788021  0.2365783830995  0.4116318363002 1.0
C      1  0.4108340823681  0.7648710392446  0.4151268759103 1.0
C      1  0.5777081474121  0.7638471727413  0.4125316591851 1.0
C      1  0.5875468732168  0.7440739341280  0.5873639354347 1.0
C      1  0.4151951175405  0.7643427218761  0.5858930576294 1.0
C      1  0.2773231314667  0.4164424961047  0.1874993024310 1.0
C      1  0.1979946722272  0.4276688649317  0.7160761328747 1.0
C      1  0.7239492580486  0.4064320436686  0.8076460168472 1.0
C      1  0.8042457506390  0.4195893382955  0.2784554840347 1.0
C      1  0.2818563478689  0.5800166003077  0.8008396456499 1.0
C      1  0.1904211570545  0.5872583520424  0.2799814592803 1.0
C      1  0.7173902130028  0.5797106495970  0.1996684566959 1.0
C      1  0.8002260174497  0.5790117573445  0.7119427747325 1.0
C      1  0.6794027598118  0.2349617967759  0.4581601657511 1.0
C      1  0.4530720614651  0.2343234610436  0.3220709590455 1.0
C      1  0.3119750692545  0.2324159156189  0.5388828291901 1.0
C      1  0.5390145477589  0.2236880245047  0.6801370300492 1.0
C      1  0.6729881162044  0.7664063035987  0.5423160132596 1.0
C      1  0.4551949488401  0.7686333665877  0.6769139749196 1.0
C      1  0.3204858270897  0.7760905473056  0.4548365621845 1.0
C      1  0.5413103456420  0.7727345604154  0.3206211172566 1.0
C      1  0.1800020949077  0.3375207321495  0.5708280265426 1.0
C      1  0.5752505526820  0.3206737061186  0.8175683504480 1.0
C      1  0.8200366417985  0.3278840729465  0.4237923983537 1.0
C      1  0.4221964591728  0.3290184001347  0.1810002476329 1.0
C      1  0.1791356141835  0.6847551449603  0.4208057827150 1.0
C      1  0.5764651262175  0.6789477406826  0.1828019811666 1.0
C      1  0.8171312679265  0.6842902330176  0.5685128470859 1.0
C      1  0.4221259865522  0.6803876911187  0.8184202576986 1.0
C      1  0.4687992951869  0.4409467200324  0.6908198389192 1.0
C      1  0.7131786714692  0.4678617200592  0.5622489253766 1.0
C      1  0.5455735807393  0.4478715845417  0.3380086927626 1.0
C      1  0.3099018819273  0.4362726026243  0.4596347425355 1.0
C      1  0.4551068033785  0.5529916763321  0.3095740581908 1.0
C      1  0.7011556891945  0.5731371019635  0.4649419829659 1.0
C      1  0.5364945620082  0.5597194750301  0.6876853144953 1.0
C      1  0.2983847063277  0.5512775142053  0.5388813456660 1.0
C      1  0.1935110981488  0.6971113643316  0.6010115157246 1.0
C      1  0.6047701239882  0.7004817183749  0.8054472784194 1.0
C      1  0.8051736140635  0.7021317197631  0.3955389944239 1.0
C      1  0.3964184755300  0.6938827125609  0.1944620295960 1.0
C      1  0.1943266902613  0.3272148022931  0.3886878572210 1.0
C      1  0.6032733956640  0.3235558426402  0.2043672564228 1.0
C      1  0.8101561302811  0.3134738724561  0.6065712197371 1.0
C      1  0.3888307246290  0.3142499603290  0.8053626324216 1.0
C      1  0.3677077775933  0.5717056436370  0.6596927072147 1.0
C      1  0.6500594582304  0.5932565610357  0.6224035288603 1.0
C      1  0.6309704795139  0.5796837126734  0.3408728333441 1.0
C      1  0.3291716876428  0.5724394794915  0.3718965328337 1.0
C      1  0.3729204609207  0.4096341851022  0.3267256426930 1.0
C      1  0.6648976714994  0.4279432224959  0.4073079736899 1.0
C      1  0.6318162712737  0.4252154462046  0.6680408531948 1.0
C      1  0.3633077135411  0.4198762315949  0.6143606231545 1.0
C      1  0.5258113665304  0.5687714965316  0.8518100613271 1.0
C      1  0.8739248312985  0.5730075648740  0.4730278817296 1.0
C      1  0.4747783479400  0.5668218864908  0.1429336603864 1.0
C      1  0.1350614007126  0.5730971587809  0.5211890174415 1.0
C      1  0.5214051771507  0.4403787261214  0.1419092496697 1.0
C      1  0.8700412698737  0.4398408044142  0.5229998839181 1.0
C      1  0.4772118513947  0.4366310261218  0.8548944695945 1.0
C      1  0.1247660860438  0.4444991022562  0.4738759355417 1.0
C      1  0.4788897210995  0.6591264340950  0.1627161156081 1.0
C      1  0.1594961194028  0.6638912150046  0.5178900163089 1.0
C      1  0.5205899720263  0.6608266254378  0.8356311044045 1.0
C      1  0.8413532089667  0.6659529862363  0.4772365117448 1.0
C      1  0.4762572220205  0.3461595977418  0.8358127691764 1.0
C      1  0.1600604344575  0.3578543348742  0.4736852621872 1.0
C      1  0.5196930003499  0.3515583230231  0.1705078858343 1.0
C      1  0.8427053585990  0.3498017399925  0.5229096291994 1.0
C      1  0.2879068765380  0.4322208988851  0.2892219365571 1.0
C      1  0.3757445055078  0.4089716023418  0.7027567117072 1.0
C      1  0.7292148158951  0.4367649090229  0.6597686292414 1.0
C      1  0.6377147722175  0.4139047265043  0.3205035727065 1.0
C      1  0.2711189239821  0.5725986002444  0.6340100527802 1.0
C      1  0.3609515069450  0.5750598070738  0.2781663984375 1.0
C      1  0.7255073868623  0.5850293480437  0.3652947078918 1.0
C      1  0.6257154822631  0.5936769794701  0.7112542468321 1.0
C      1  0.3274666893555  0.6244046309129  0.2057209771054 1.0
C      1  0.2030755236820  0.6271149881733  0.6688622499200 1.0
C      1  0.6684438348317  0.6286788641668  0.7884432201716 1.0
C      1  0.7968740187465  0.6321093138877  0.3270671812809 1.0
C      1  0.3200380190834  0.3937043042733  0.7831731648943 1.0
C      1  0.1942710801142  0.3862925619018  0.3050603256340 1.0
C      1  0.6759034870075  0.3971376121696  0.2274404397115 1.0
C      1  0.8046358430706  0.3745740401201  0.6874544256277 1.0
C      1  0.7421155427942  0.4848806748544  0.2215617543710 1.0
C      1  0.7786239409982  0.4787154066643  0.7352105345675 1.0
C      1  0.2114504392318  0.4850097406382  0.2550872847229 1.0
C      1  0.2554631028920  0.4862456689232  0.7808245868849 1.0
C      1  0.5397251889426  0.4730496399012  0.5370848709180 1.0
END
