TITL C-48930-2993-22 -0.7 3375.00 -108.97699404 0 0 14 (C2v) n - 1
REM
REM Run started: at 2020.12.01 04:45:38 in /rds/project/t2_vol4/rds-t2-cs072/BORA/CARBON/AIRSS/Generating-Clusters/Str-Search/Higher-Symm/C10-100
REM VASP from code version vasp.5.4.4.18Apr17-6-g9f103f2a35 (build Oct 11 2019 16:45:47) gamma-only
REM
REM
REM
REM
REM ./C.cell (f39ce9773e2efe3fa5bbdf770a4156b8)
REM AIRSS Version 0.9.1 bugfix July 2018 build 013d7b7c2542+ Fri, 06 Jul 2018 19:26:36 +0100
REM compiler GCC version 4.8.5 20150623 (Red Hat 4.8.5-39)
REM options -cpp -mtune=generic -march=x86-64 -g -O0
REM seed 728375536 -309799096 1685741504 1120711680 -1448787465 -648369968 1928435895 -1605497635 2019292218 -1797199220 -1879629223 1762892974
REM
REM C.POTCAR (d86ddea03c3ceb6dc662c8ad6801f873)
REM 
CELL 1.54180   15.00000   15.00000   15.00000   90.00000   90.00000   90.00000
LATT -1
SFAC C  
C      1  0.4017729931475  0.5065866030395  0.3732242338959 1.0
C      1  0.5982269982219  0.5065866213437  0.6267757639450 1.0
C      1  0.5982270306787  0.5065867780970  0.3732242579877 1.0
C      1  0.4017729783519  0.5065867838502  0.6267757382037 1.0
C      1  0.4500186289526  0.5047956499365  0.4502402781189 1.0
C      1  0.5499813727496  0.5047956656757  0.5497597148694 1.0
C      1  0.5499813850737  0.5047956843048  0.4502403044308 1.0
C      1  0.4500186146404  0.5047956924432  0.5497596879131 1.0
C      1  0.5521030942373  0.5091918429629  0.2975743754082 1.0
C      1  0.4478969098062  0.5091918347308  0.7024256278708 1.0
C      1  0.4478969529806  0.5091917441377  0.2975743754338 1.0
C      1  0.5521030418136  0.5091917434345  0.7024256287149 1.0
C      1  0.4999999812303  0.5134985564966  0.7789679356226 1.0
C      1  0.5000000181158  0.5134985995467  0.2210320775853 1.0
END
