TITL C-49642-5029-4 -7.82 3375.00 -1365.20852686 0 0 170 (Cs) n - 1
REM
REM Run started: at 2020.12.03 11:20:45 in /rds/project/t2_vol4/rds-t2-cs072/BORA/CARBON/AIRSS/Generating-Clusters/Str-Search/Higher-Symm/C100-200
REM VASP from code version vasp.5.4.4.18Apr17-6-g9f103f2a35 (build Oct 11 2019 16:45:47) gamma-only
REM
REM
REM
REM
REM ./C.cell (533062f00bc710175b3da973d35f2034)
REM AIRSS Version 0.9.1 bugfix July 2018 build 013d7b7c2542+ Fri, 06 Jul 2018 19:26:36 +0100
REM compiler GCC version 4.8.5 20150623 (Red Hat 4.8.5-39)
REM options -cpp -mtune=generic -march=x86-64 -g -O0
REM seed 357541916 2031086835 -919373218 -128948139 -1955101273 -830302550 1555849669 1987928535 -1815278770 352610295 1012838208 -1848679664
REM
REM C.POTCAR (d86ddea03c3ceb6dc662c8ad6801f873)
REM 
CELL 1.54180   15.00000   15.00000   15.00000   90.00000   90.00000   90.00000
LATT -1
SFAC C  
C      1  0.1856782662253  0.5672957077163  0.7109322625746 1.0
C      1  0.7150715224074  0.7341847575606  0.7091208158902 1.0
C      1  0.5965051141820  0.1994639582645  0.7118078019024 1.0
C      1  0.1854900647051  0.5672543834460  0.2862890145567 1.0
C      1  0.7151652631137  0.7337293200254  0.2876374023706 1.0
C      1  0.5964469921618  0.1991802459004  0.2861694269035 1.0
C      1  0.8128431325396  0.5702469322266  0.7119853848469 1.0
C      1  0.2805581655269  0.7323405801677  0.7122630396867 1.0
C      1  0.4049986488077  0.1980196670791  0.7119106862130 1.0
C      1  0.8130674900179  0.5700961891067  0.2849400893954 1.0
C      1  0.2804009317050  0.7320595806218  0.2849754708121 1.0
C      1  0.4051014074810  0.1976329089623  0.2859455729794 1.0
C      1  0.6098086428596  0.5001505132638  0.2138824843987 1.0
C      1  0.4432597224951  0.4050099720468  0.2165911976394 1.0
C      1  0.4404445063033  0.5942276444688  0.2100637719721 1.0
C      1  0.6097633735447  0.5005508120084  0.7833003973895 1.0
C      1  0.4433332093751  0.4052623308881  0.7808963830729 1.0
C      1  0.4404609193496  0.5944238290165  0.7868028727804 1.0
C      1  0.3878775106195  0.5007971610860  0.2159993241826 1.0
C      1  0.5525290286839  0.4054104340620  0.2187528040869 1.0
C      1  0.5554133794402  0.5936991085097  0.2110511537017 1.0
C      1  0.3879702528071  0.5009717899428  0.7812130830289 1.0
C      1  0.5524710322716  0.4056962853723  0.7787088273904 1.0
C      1  0.5553346054988  0.5940950028933  0.7857822842234 1.0
C      1  0.4538481456279  0.5860169414093  0.6151903639231 1.0
C      1  0.5912404678319  0.5137782676922  0.6142299282963 1.0
C      1  0.4579742273006  0.4217611575446  0.6147526452012 1.0
C      1  0.4539656687918  0.5857054702478  0.3816462884801 1.0
C      1  0.5914116821361  0.5138341837367  0.3828212789043 1.0
C      1  0.4581186811698  0.4218354452843  0.3824728624352 1.0
C      1  0.5581849732335  0.6134861270782  0.5993393634872 1.0
C      1  0.3966466875083  0.5039699762800  0.5987947305507 1.0
C      1  0.5544344723321  0.4117330143108  0.5940644246544 1.0
C      1  0.5583538423013  0.6135572564004  0.3975817478476 1.0
C      1  0.3963870772749  0.5038882696118  0.3986818309294 1.0
C      1  0.5545705361552  0.4116594261350  0.4034175888743 1.0
C      1  0.5510454161819  0.7821025167576  0.6064208367345 1.0
C      1  0.7394379093914  0.3034615762784  0.6104982100259 1.0
C      1  0.2098304240576  0.3924195728728  0.6096117425186 1.0
C      1  0.5513635353295  0.7823354101477  0.3901957471708 1.0
C      1  0.7394980290130  0.3033924445870  0.3873229093320 1.0
C      1  0.2098660354325  0.3924283342512  0.3879149053306 1.0
C      1  0.4464423368403  0.7993411484545  0.6114314949884 1.0
C      1  0.2613057718226  0.3008572472042  0.6103874182605 1.0
C      1  0.7890829481363  0.3958194754083  0.6100497410392 1.0
C      1  0.4466657711417  0.7991241032967  0.3857540832711 1.0
C      1  0.2612969025568  0.3008441749899  0.3873763439904 1.0
C      1  0.7893243517833  0.3957338683018  0.3873057444872 1.0
C      1  0.7969761570714  0.6141731087985  0.6299305486914 1.0
C      1  0.4518074723032  0.1886466959201  0.6295213863791 1.0
C      1  0.2499836796487  0.6970953650366  0.6290695238641 1.0
C      1  0.7970859947383  0.6140505682029  0.3669884062301 1.0
C      1  0.4518330344429  0.1884094605680  0.3684185720648 1.0
C      1  0.2498894207746  0.6969552242867  0.3682259440583 1.0
C      1  0.1998361711057  0.6126129967416  0.6292386318332 1.0
C      1  0.5500152465874  0.1891010916545  0.6295165917580 1.0
C      1  0.7443663597963  0.6971827584864  0.6290106860712 1.0
C      1  0.1996821044561  0.6125290529296  0.3680551191740 1.0
C      1  0.5500179419193  0.1889568219605  0.3684991471990 1.0
C      1  0.7444423666489  0.6969705942064  0.3678583054052 1.0
C      1  0.9495707520255  0.3885789139429  0.5497946345739 1.0
C      1  0.1624727564183  0.1868055569515  0.5436559046451 1.0
C      1  0.4100482630567  0.9474504956122  0.5436300813517 1.0
C      1  0.9496698541088  0.3885234141885  0.4474304610097 1.0
C      1  0.1626798760966  0.1870068564664  0.4547493715242 1.0
C      1  0.4100384608786  0.9468844773344  0.4544353417858 1.0
C      1  0.0484268714815  0.3871430221722  0.5502810516545 1.0
C      1  0.8400776403460  0.1900160666191  0.5438938074300 1.0
C      1  0.6361892264775  0.9194028012147  0.5466084881752 1.0
C      1  0.0484882363621  0.3871963188453  0.4472370847848 1.0
C      1  0.8398913262434  0.1901525794361  0.4545549156776 1.0
C      1  0.6338119267151  0.9154345165072  0.4548096746605 1.0
C      1  0.3838481530283  0.7665970379135  0.5446023871438 1.0
C      1  0.7964224294052  0.4647340232263  0.5449693887163 1.0
C      1  0.3231058661230  0.2668250656294  0.5444586962787 1.0
C      1  0.3838558221288  0.7665757410533  0.4527305582561 1.0
C      1  0.7963900668927  0.4647165405510  0.4523376599707 1.0
C      1  0.3231031869656  0.2668023487428  0.4534022711543 1.0
C      1  0.5893010848883  0.7009731256831  0.5502437501188 1.0
C      1  0.2046105189848  0.4623256205929  0.5448899847808 1.0
C      1  0.6773647949084  0.2689502205092  0.5447209143558 1.0
C      1  0.5893108803473  0.7011189798588  0.4464822834495 1.0
C      1  0.2044987877145  0.4623055625633  0.4526521793612 1.0
C      1  0.6773503456945  0.2690726680459  0.4532353289951 1.0
C      1  0.3473355080153  0.4720634406457  0.3114510696938 1.0
C      1  0.5475008739208  0.6474758034440  0.2987611121874 1.0
C      1  0.6014258911380  0.3861411750775  0.3140532823219 1.0
C      1  0.3473957845245  0.4722172055963  0.6859430593508 1.0
C      1  0.5474489468814  0.6476786361833  0.6980599186501 1.0
C      1  0.6012901634411  0.3862360090686  0.6834515087568 1.0
C      1  0.6495698043696  0.4750225100288  0.3080825494582 1.0
C      1  0.4474830966139  0.6447491507306  0.3006509375430 1.0
C      1  0.3984879969787  0.3847718975069  0.3093327728865 1.0
C      1  0.6494060980729  0.4751322842261  0.6890378089909 1.0
C      1  0.4474003651993  0.6450459266545  0.6962563163849 1.0
C      1  0.3984779935202  0.3848827318133  0.6881415437121 1.0
C      1  0.6858073867381  0.5527515789519  0.8328432313671 1.0
C      1  0.4526412141695  0.3149846039281  0.8319407680009 1.0
C      1  0.3560661173864  0.6310849289353  0.8352008722867 1.0
C      1  0.6858344537704  0.5522173962060  0.1639185416343 1.0
C      1  0.4525968472112  0.3146083522121  0.1656376270270 1.0
C      1  0.3560330055213  0.6308477630906  0.1616842736771 1.0
C      1  0.3109042417279  0.5501636276630  0.8317884877856 1.0
C      1  0.5453249836314  0.3160501724109  0.8302176765925 1.0
C      1  0.6398805248683  0.6331542778793  0.8344364390731 1.0
C      1  0.3107795933699  0.5499833075586  0.1653494891650 1.0
C      1  0.5453052141542  0.3156886928154  0.1674959309103 1.0
C      1  0.6399341800133  0.6325668363200  0.1622555584919 1.0
C      1  0.3595292636387  0.7716265287833  0.2493345369692 1.0
C      1  0.8056264587309  0.4809522063729  0.2523463566697 1.0
C      1  0.3285707403266  0.2450068342321  0.2517023980418 1.0
C      1  0.3595835807814  0.7723581416868  0.7480402404729 1.0
C      1  0.8056637930194  0.4810928702843  0.7447935186723 1.0
C      1  0.3283431060499  0.2452653362894  0.7462245176047 1.0
C      1  0.6351336365275  0.7710955156938  0.2499949965205 1.0
C      1  0.1915826019368  0.4773953365962  0.2536479543935 1.0
C      1  0.6708281600025  0.2489741039238  0.2516195928938 1.0
C      1  0.6350338396582  0.7721282554496  0.7469532984295 1.0
C      1  0.1915623382856  0.4774378170373  0.7437605797226 1.0
C      1  0.6710520243006  0.2492195033407  0.7462442970590 1.0
C      1  0.2218466542859  0.5451406643349  0.7985786330240 1.0
C      1  0.6795761704113  0.7133939107664  0.8006275791265 1.0
C      1  0.5952727503328  0.2422439696925  0.7986874300474 1.0
C      1  0.2217068753737  0.5450278757410  0.1986217770586 1.0
C      1  0.6797988414158  0.7129903094559  0.1959008909057 1.0
C      1  0.5951456208057  0.2418226329268  0.1991535480963 1.0
C      1  0.7753441954308  0.5481285627745  0.8000353447426 1.0
C      1  0.3158317929054  0.7102648215867  0.8006561560549 1.0
C      1  0.4045772353022  0.2404556011788  0.7986440700924 1.0
C      1  0.7754363196646  0.5477698546140  0.1968306583566 1.0
C      1  0.3157396439126  0.7100019551408  0.1963560103673 1.0
C      1  0.4046166079516  0.2400697770515  0.1991394582832 1.0
C      1  0.1984766141879  0.2215504600739  0.6116063143203 1.0
C      1  0.4218834677034  0.8968854694147  0.6095328874379 1.0
C      1  0.8886934140514  0.3930489350520  0.6152340139539 1.0
C      1  0.1985478537291  0.2215324158502  0.3866509960977 1.0
C      1  0.4214501630385  0.8963899145969  0.3884672921025 1.0
C      1  0.8890340854725  0.3926699074141  0.3816588982111 1.0
C      1  0.8036948306272  0.2257912731400  0.6106363943091 1.0
C      1  0.6041249711914  0.8628873618555  0.5968136644508 1.0
C      1  0.1105023188407  0.3896619262813  0.6139816379949 1.0
C      1  0.8035194531497  0.2255364804605  0.3875778516285 1.0
C      1  0.6037175572366  0.8644890561278  0.3982352925399 1.0
C      1  0.1105485347027  0.3899121807811  0.3835329968914 1.0
C      1  0.4430057857137  0.7524834150745  0.2957469127217 1.0
C      1  0.7434920470766  0.4234262497000  0.3011005286251 1.0
C      1  0.3082296543738  0.3276082141319  0.3011338774269 1.0
C      1  0.4428940212456  0.7526494353965  0.7013775856451 1.0
C      1  0.7433763801632  0.4236214368250  0.6961686329856 1.0
C      1  0.3082812619525  0.3277956634617  0.6965025326329 1.0
C      1  0.5500446908905  0.7495137403341  0.2931487719747 1.0
C      1  0.2548261612551  0.4200822828371  0.3013965261979 1.0
C      1  0.6922135376756  0.3305218553005  0.3011679222570 1.0
C      1  0.5499806300937  0.7498283567426  0.7037711253354 1.0
C      1  0.2548370384358  0.4201527337867  0.6960753321363 1.0
C      1  0.6921242404911  0.3307450348861  0.6964811605925 1.0
C      1  0.6912723912104  0.7091674830308  0.5451196246750 1.0
C      1  0.5977395180014  0.2103113314798  0.5490091169007 1.0
C      1  0.1931875004055  0.5603806730267  0.5482715374358 1.0
C      1  0.6913099944405  0.7091776753652  0.4517624872681 1.0
C      1  0.5976968540206  0.2103803521277  0.4489970849849 1.0
C      1  0.1930877782805  0.5603698983988  0.4491553094954 1.0
C      1  0.2918791662697  0.7283657005051  0.5484953581920 1.0
C      1  0.4042410831448  0.2092934079220  0.5488469411143 1.0
C      1  0.8064461170441  0.5624372331809  0.5485187149131 1.0
C      1  0.2918753721694  0.7282833634660  0.4488224106340 1.0
C      1  0.4042374002943  0.2092188010132  0.4490818313214 1.0
C      1  0.8065235085869  0.5623498665029  0.4485756660914 1.0
C      1  0.5005143055358  0.5038215286409  0.3386140164431 1.0
C      1  0.5002766087529  0.5038741765453  0.6586613671948 1.0
END
