TITL C-49138-8805-3 -6.825 3375.00 -1159.94841245 0 0 144 (D2h) n - 1
REM
REM Run started: at 2020.12.04 03:00:04 in /rds/project/t2_vol4/rds-t2-cs072/BORA/CARBON/AIRSS/Generating-Clusters/Str-Search/Higher-Symm/C100-200
REM VASP from code version vasp.5.4.4.18Apr17-6-g9f103f2a35 (build Oct 11 2019 16:45:47) gamma-only
REM
REM
REM
REM
REM ./C.cell (533062f00bc710175b3da973d35f2034)
REM AIRSS Version 0.9.1 bugfix July 2018 build 013d7b7c2542+ Fri, 06 Jul 2018 19:26:36 +0100
REM compiler GCC version 4.8.5 20150623 (Red Hat 4.8.5-39)
REM options -cpp -mtune=generic -march=x86-64 -g -O0
REM seed -1530162177 1222911883 1921572362 -313369115 712058110 296400847 -932797322 1565656126 -521099529 -331705894 -1270865503 518453162
REM
REM C.POTCAR (d86ddea03c3ceb6dc662c8ad6801f873)
REM 
CELL 1.54180   15.00000   15.00000   15.00000   90.00000   90.00000   90.00000
LATT -1
SFAC C  
C      1  0.7106595938768  0.6231588431290  0.6187322548213 1.0
C      1  0.2893385062051  0.3768569118547  0.6187583646852 1.0
C      1  0.7106645044661  0.6231426119147  0.3812436830186 1.0
C      1  0.2893391283419  0.3768419437802  0.3812653594822 1.0
C      1  0.7106630813008  0.3768607754454  0.6187574672695 1.0
C      1  0.2893352120946  0.6231533833693  0.6187419412987 1.0
C      1  0.7106638875001  0.3768480358611  0.3812633177332 1.0
C      1  0.2893356747521  0.6231425408887  0.3812400085731 1.0
C      1  0.7533641322003  0.2890995988634  0.5840777927418 1.0
C      1  0.2466262024764  0.7109053431925  0.5840580359196 1.0
C      1  0.7533728791789  0.2890967577243  0.4159483238313 1.0
C      1  0.2466396251311  0.7109055081828  0.4159186618731 1.0
C      1  0.7533642791373  0.7109077978445  0.5840444908876 1.0
C      1  0.2466387213744  0.2890972543287  0.5840744797926 1.0
C      1  0.7533599106363  0.7109033937473  0.4159296887568 1.0
C      1  0.2466381064944  0.2890899873748  0.4159555164963 1.0
C      1  0.3110924455958  0.3380844835257  0.2341562364354 1.0
C      1  0.6888967287640  0.6618755262705  0.2341348589613 1.0
C      1  0.3111042347140  0.3381225048854  0.7658717023684 1.0
C      1  0.6889047490475  0.6619109034939  0.7658435257535 1.0
C      1  0.3110948149923  0.6618739708010  0.2341258344402 1.0
C      1  0.6889010060816  0.3380968623030  0.2341534316183 1.0
C      1  0.3110981756270  0.6619061680578  0.7658520096538 1.0
C      1  0.6889028818167  0.3381291282286  0.7658714974592 1.0
C      1  0.1048913576306  0.3763396624612  0.3970792466103 1.0
C      1  0.8951102170867  0.6236655513728  0.3970578587770 1.0
C      1  0.1048886705562  0.3763355302526  0.6029430624223 1.0
C      1  0.8951134533128  0.6236599933252  0.6029190653769 1.0
C      1  0.1048881115631  0.6236653088254  0.3970670675958 1.0
C      1  0.8951193207946  0.3763506789031  0.3970692038628 1.0
C      1  0.1048833991507  0.6236490863081  0.6029312516475 1.0
C      1  0.8951162526352  0.3763366200352  0.6029336176854 1.0
C      1  0.5871843027031  0.5441012587345  0.3060978907205 1.0
C      1  0.4128199191438  0.4558559317068  0.3061215693146 1.0
C      1  0.5871787315954  0.5441449313418  0.6938800626784 1.0
C      1  0.4128133514591  0.4558974274481  0.6939010686660 1.0
C      1  0.5871767426695  0.4558552186181  0.3061162523676 1.0
C      1  0.4128115409054  0.5440965406892  0.3061021623192 1.0
C      1  0.5871854474554  0.4559035965371  0.6938969725016 1.0
C      1  0.4128194886580  0.5441423691186  0.6938844483010 1.0
C      1  0.1839026652032  0.4538907622957  0.7259846290597 1.0
C      1  0.8161015606186  0.5461239882336  0.7259710201188 1.0
C      1  0.1838981145888  0.4538775791757  0.2740291846228 1.0
C      1  0.8161030956445  0.5461112100522  0.2740064182662 1.0
C      1  0.1839013883653  0.5461175151697  0.7259851531081 1.0
C      1  0.8161068203085  0.4538947104849  0.7259774718895 1.0
C      1  0.1838936622168  0.5461035212299  0.2740239285534 1.0
C      1  0.8161013038443  0.4538803416874  0.2740096690790 1.0
C      1  0.5447463657246  0.6712484880695  0.6141921359316 1.0
C      1  0.4552570346679  0.3287778478215  0.6142274540304 1.0
C      1  0.5447432028833  0.6712213057874  0.3857700818158 1.0
C      1  0.4552535016913  0.3287507941518  0.3858099785380 1.0
C      1  0.5447523451404  0.3287809171000  0.6142269283714 1.0
C      1  0.4552432632923  0.6712462701070  0.6141952664960 1.0
C      1  0.5447559843560  0.3287519317339  0.3858069717855 1.0
C      1  0.4552497016763  0.6712201203205  0.3857716514653 1.0
C      1  0.3869788456416  0.3993934888748  0.3866235954247 1.0
C      1  0.6130188432816  0.6005842483420  0.3865938640916 1.0
C      1  0.3869797684131  0.3994168199826  0.6134047564158 1.0
C      1  0.6130188623252  0.6006071550291  0.6133772244751 1.0
C      1  0.3869770757304  0.6005818983500  0.3865937096662 1.0
C      1  0.6130206517579  0.3993940420021  0.3866194874453 1.0
C      1  0.3869773340656  0.6006054557626  0.6133825646525 1.0
C      1  0.6130218078484  0.3994203878773  0.6134039620003 1.0
C      1  0.6312520345744  0.1654689686228  0.6040764428397 1.0
C      1  0.3687494530084  0.8345302569311  0.6040252506078 1.0
C      1  0.6312524663809  0.1654679531093  0.3959752069575 1.0
C      1  0.3687508420107  0.8345334298063  0.3959162290595 1.0
C      1  0.6312432841415  0.8345345344101  0.6040183414936 1.0
C      1  0.3687579803251  0.1654733605914  0.6040834195398 1.0
C      1  0.6312451969960  0.8345279874503  0.3959162679388 1.0
C      1  0.3687568015113  0.1654617784143  0.3959777859517 1.0
C      1  0.2570168017284  0.6094071824414  0.7178187052016 1.0
C      1  0.7429884404871  0.3906115854187  0.7178268291897 1.0
C      1  0.2570130981102  0.6093915829450  0.2821719884036 1.0
C      1  0.7429836974643  0.3905973275630  0.2821829545321 1.0
C      1  0.2570175234010  0.3906050461539  0.7178283099498 1.0
C      1  0.7429843720802  0.6094118204435  0.7178081460065 1.0
C      1  0.2570122527220  0.3905853025651  0.2821925617681 1.0
C      1  0.7429842690020  0.6093905336330  0.2821705008101 1.0
C      1  0.5477969921867  0.1707456619427  0.6510614552470 1.0
C      1  0.4522017774043  0.8292705843251  0.6510014490698 1.0
C      1  0.5478005383994  0.1707275178024  0.3489984564875 1.0
C      1  0.4522053970811  0.8292568923868  0.3489340163678 1.0
C      1  0.5477923562502  0.8292706161761  0.6509965888744 1.0
C      1  0.4522110766444  0.1707445308217  0.6510638886413 1.0
C      1  0.5477928233182  0.8292550057950  0.3489348707800 1.0
C      1  0.4522095357191  0.1707253147625  0.3490008597931 1.0
C      1  0.3979975434917  0.6842594901526  0.2359321937209 1.0
C      1  0.6020051750309  0.3156961693475  0.2359556701860 1.0
C      1  0.3979938917589  0.6843028784013  0.7640450478126 1.0
C      1  0.6020010651047  0.3157403171262  0.7640685344945 1.0
C      1  0.3979930010855  0.3156905086846  0.2359631291247 1.0
C      1  0.6019943725352  0.6842608094791  0.2359308036070 1.0
C      1  0.3980063528088  0.3157370242582  0.7640699757789 1.0
C      1  0.6020043458063  0.6843075252417  0.7640408795358 1.0
C      1  0.4544715843074  0.6011354333549  0.2375325721305 1.0
C      1  0.5455184124744  0.3988074882302  0.2375535692641 1.0
C      1  0.4544791776046  0.6011891351283  0.7624456968148 1.0
C      1  0.5455273433429  0.3988632157230  0.7624663218087 1.0
C      1  0.4544738179589  0.3988056999764  0.2375594255822 1.0
C      1  0.5455197673995  0.6011366294082  0.2375299691287 1.0
C      1  0.4544797232286  0.3988601497410  0.7624685148648 1.0
C      1  0.5455221423481  0.6011924943139  0.7624427143723 1.0
C      1  0.8926861857384  0.5471035021299  0.3442042568696 1.0
C      1  0.1073214445385  0.4528905948484  0.3442183000134 1.0
C      1  0.8926805177554  0.5471110698650  0.6557806146582 1.0
C      1  0.1073161473338  0.4528969144773  0.6557966615357 1.0
C      1  0.8926816905536  0.4528959635124  0.3442052504042 1.0
C      1  0.1073160612438  0.5470974663778  0.3442170690380 1.0
C      1  0.8926867523514  0.4529032792117  0.6557824572715 1.0
C      1  0.1073177171865  0.5471037514026  0.6557964325326 1.0
C      1  0.6766423807588  0.5516370706944  0.5513197862076 1.0
C      1  0.3233524643144  0.4483746938700  0.5513327060444 1.0
C      1  0.6766418548216  0.5516250113522  0.4486697653497 1.0
C      1  0.3233519186811  0.4483654362261  0.4486791414600 1.0
C      1  0.6766462751324  0.4483810552817  0.5513304444712 1.0
C      1  0.3233491418945  0.5516306426909  0.5513196799530 1.0
C      1  0.6766445931959  0.4483711031724  0.4486832261310 1.0
C      1  0.3233498660284  0.5516210453519  0.4486700303028 1.0
C      1  0.8453652381179  0.3088556608915  0.5934383678910 1.0
C      1  0.1546442773258  0.6911451804998  0.5934126126383 1.0
C      1  0.8453540592990  0.3088589751088  0.4065834289387 1.0
C      1  0.1546377876789  0.6911455367434  0.4065657151906 1.0
C      1  0.8453493607838  0.6911509677082  0.5934084092502 1.0
C      1  0.1546391376975  0.3088539884184  0.5934288045948 1.0
C      1  0.8453587199516  0.6911427426457  0.4065679464250 1.0
C      1  0.1546492926355  0.3088442516448  0.4065936459699 1.0
C      1  0.4496318025638  0.2599948420429  0.6982142947644 1.0
C      1  0.5503691670213  0.7400356606522  0.6981774286882 1.0
C      1  0.4496297723627  0.2599622183817  0.3018238039127 1.0
C      1  0.5503688738959  0.7400042770688  0.3017854672998 1.0
C      1  0.4496296010814  0.7400346844035  0.6981803843274 1.0
C      1  0.5503759553553  0.2599964149067  0.6982118292521 1.0
C      1  0.4496248180116  0.7400049502556  0.3017849684019 1.0
C      1  0.5503706495645  0.2599649352528  0.3018215410344 1.0
C      1  0.7003405455156  0.7879932354416  0.4050044474155 1.0
C      1  0.2996648851328  0.2119947714004  0.4050512423126 1.0
C      1  0.7003365173970  0.7880038622271  0.5949511441648 1.0
C      1  0.2996614207968  0.2120085893446  0.5949955585519 1.0
C      1  0.7003453445653  0.2120014127412  0.4050464389434 1.0
C      1  0.2996627933780  0.7879940032363  0.4050054647246 1.0
C      1  0.7003395044727  0.2120103004001  0.5949955654435 1.0
C      1  0.2996567482224  0.7879994546540  0.5949537318626 1.0
END
