TITL C-49138-8805-11 -6.78 3375.00 -1183.72199209 0 0 142 (C1) n - 1
REM
REM Run started: at 2020.12.04 09:10:33 in /rds/project/t2_vol4/rds-t2-cs072/BORA/CARBON/AIRSS/Generating-Clusters/Str-Search/Higher-Symm/C100-200
REM VASP from code version vasp.5.4.4.18Apr17-6-g9f103f2a35 (build Oct 11 2019 16:45:47) gamma-only
REM
REM
REM
REM
REM ./C.cell (533062f00bc710175b3da973d35f2034)
REM AIRSS Version 0.9.1 bugfix July 2018 build 013d7b7c2542+ Fri, 06 Jul 2018 19:26:36 +0100
REM compiler GCC version 4.8.5 20150623 (Red Hat 4.8.5-39)
REM options -cpp -mtune=generic -march=x86-64 -g -O0
REM seed 278966306 -1551915258 1787540656 -274684610 1838826716 -1786730833 -1774323537 757925854 1108192489 949870455 -1734418827 1522784323
REM
REM C.POTCAR (d86ddea03c3ceb6dc662c8ad6801f873)
REM 
CELL 1.54180   15.00000   15.00000   15.00000   90.00000   90.00000   90.00000
LATT -1
SFAC C  
C      1  0.3978731207562  0.2200870179090  0.3546704789607 1.0
C      1  0.3113827331486  0.7363330472758  0.3569645776383 1.0
C      1  0.7899745318207  0.5526763422768  0.3565775072942 1.0
C      1  0.6054179710099  0.2185723875826  0.3560670274702 1.0
C      1  0.6921449319317  0.7258516499394  0.3602181533224 1.0
C      1  0.2102333953333  0.5568665425605  0.3543104802949 1.0
C      1  0.5506599638205  0.3424255313594  0.4487472487451 1.0
C      1  0.3425609337963  0.5411984975449  0.4498652250422 1.0
C      1  0.6162202773757  0.6171693552820  0.4602455542720 1.0
C      1  0.4527007708814  0.3442798647692  0.4483417899740 1.0
C      1  0.6612385816369  0.5325237140239  0.4577411250153 1.0
C      1  0.3908793474454  0.6283620241002  0.4518800879016 1.0
C      1  0.6733449640542  0.1842122964181  0.5910998993176 1.0
C      1  0.1545535048704  0.5087228105231  0.5879834795375 1.0
C      1  0.6847946771424  0.8103647631806  0.5923143320793 1.0
C      1  0.3291791789234  0.1854242284233  0.5896509359638 1.0
C      1  0.8478730940326  0.5082681559982  0.5894998043320 1.0
C      1  0.3157582023353  0.8107325649314  0.5941012965994 1.0
C      1  0.1998046844089  0.6318813732775  0.3089293565605 1.0
C      1  0.7589235480039  0.6991240726683  0.3095046734497 1.0
C      1  0.5443751298640  0.1719543801327  0.3123918942132 1.0
C      1  0.7999378296613  0.6242392769499  0.3061407326567 1.0
C      1  0.2412373609432  0.7058055609485  0.3128836122752 1.0
C      1  0.4598048831490  0.1734570112147  0.3124457212602 1.0
C      1  0.3138892845433  0.7993389011223  0.4334720574700 1.0
C      1  0.8415512609084  0.5160463686197  0.4309891676863 1.0
C      1  0.3413962363833  0.1900427802660  0.4301790068538 1.0
C      1  0.6859506802777  0.7906816659945  0.4331729905464 1.0
C      1  0.1604915818397  0.5182216001718  0.4290065557125 1.0
C      1  0.6621210564900  0.1886155341199  0.4316611328149 1.0
C      1  0.1730399841746  0.2517267799782  0.2850849246882 1.0
C      1  0.4575960894297  0.9154731655751  0.2938523856657 1.0
C      1  0.8700819322010  0.2169395023964  0.2160189326680 1.0
C      1  0.8280463333324  0.2474993304194  0.2848523907079 1.0
C      1  0.4653924257547  0.9741594900602  0.2315947625063 1.0
C      1  0.1239526668664  0.2272322423500  0.2186220813131 1.0
C      1  0.4573291938250  0.6197981677597  0.5219689054976 1.0
C      1  0.6390871546646  0.4693874340601  0.5240518850799 1.0
C      1  0.4131361955146  0.3882131988870  0.5213718433869 1.0
C      1  0.5573015313328  0.6287197938852  0.5306459298312 1.0
C      1  0.3755071060676  0.4802112114933  0.5199177138650 1.0
C      1  0.5910972283717  0.3870610206908  0.5217254566530 1.0
C      1  0.4079943402977  0.6042350975299  0.8431923897630 1.0
C      1  0.6305232254767  0.5302679385769  0.8408807761380 1.0
C      1  0.4586631506452  0.3547442751825  0.8429830795347 1.0
C      1  0.5930285058489  0.6030659954701  0.8416330776698 1.0
C      1  0.3722642996063  0.5305557494484  0.8387646515724 1.0
C      1  0.5407702311806  0.3568559225521  0.8415209623457 1.0
C      1  0.5486868988258  0.7503951089830  0.3816818539579 1.0
C      1  0.7004100898112  0.3394483096308  0.3497565811154 1.0
C      1  0.2613109888269  0.4177068810016  0.3732027473637 1.0
C      1  0.4642583660491  0.7553919279966  0.3526262593466 1.0
C      1  0.3027837801190  0.3418944022169  0.3487776199929 1.0
C      1  0.7418688673205  0.4143426545496  0.3755975094084 1.0
C      1  0.3893325452670  0.5049099819728  0.2993767605064 1.0
C      1  0.5574097849747  0.5961555864055  0.3073924677398 1.0
C      1  0.5544281452409  0.4027944288168  0.2999901876849 1.0
C      1  0.6106952409128  0.5019217255283  0.3060636907967 1.0
C      1  0.4431890780513  0.5981449099478  0.3011986808997 1.0
C      1  0.4476065246819  0.4034267983534  0.2981406177667 1.0
C      1  0.1932100217281  0.5841733729095  0.6344455990666 1.0
C      1  0.7303229014450  0.7388366455242  0.6371506615332 1.0
C      1  0.5885040499620  0.1775787728811  0.6365088180393 1.0
C      1  0.8086644630334  0.5842063697084  0.6349549679941 1.0
C      1  0.2708772880816  0.7384994314977  0.6379364411364 1.0
C      1  0.4137900218152  0.1785448353417  0.6355275217350 1.0
C      1  0.2590641307880  0.4104240239816  0.6544083084968 1.0
C      1  0.5488544618448  0.7756487956107  0.6695602606908 1.0
C      1  0.7010543858853  0.3279056501559  0.6571644468410 1.0
C      1  0.7457157265346  0.4085133488185  0.6577713444152 1.0
C      1  0.4528357705358  0.7744406530021  0.6693587115525 1.0
C      1  0.3030403988861  0.3297226452508  0.6543068338570 1.0
C      1  0.1389871171229  0.5614074625751  0.5090659942568 1.0
C      1  0.7355767221881  0.7926363481898  0.5112190699814 1.0
C      1  0.6332744859830  0.1486536351894  0.5103728860332 1.0
C      1  0.8633090634005  0.5604728434549  0.5102760572224 1.0
C      1  0.2660801391448  0.7926766355893  0.5122274847753 1.0
C      1  0.3697312874468  0.1499553585543  0.5090345018186 1.0
C      1  0.8189456202116  0.3670419396792  0.5129427418784 1.0
C      1  0.2267359811377  0.2830546825356  0.5136337171686 1.0
C      1  0.4508702562938  0.8522840168387  0.5190071464097 1.0
C      1  0.1849483942828  0.3690013936244  0.5105299128901 1.0
C      1  0.7769907448414  0.2811074561774  0.5157004788205 1.0
C      1  0.5462155015473  0.8457747002451  0.5158236351988 1.0
C      1  0.4553531223273  0.1328549942532  0.5596495417098 1.0
C      1  0.2123822705739  0.7236575147336  0.5607583050275 1.0
C      1  0.8329344825233  0.6433909498603  0.5602094915152 1.0
C      1  0.5470970963345  0.1323860002215  0.5601634533799 1.0
C      1  0.7901968867021  0.7241964192000  0.5607842631949 1.0
C      1  0.1689523029466  0.6435318611753  0.5598430387805 1.0
C      1  0.4489433068551  0.4006355853207  0.6172934203663 1.0
C      1  0.4581822473323  0.5717129063576  0.6114197375165 1.0
C      1  0.6082554350229  0.4900686792770  0.6196451001071 1.0
C      1  0.5550588758019  0.3993451703260  0.6179315938864 1.0
C      1  0.5509996634995  0.5700485116474  0.6093696601585 1.0
C      1  0.3978652583531  0.4934205710696  0.6202918231144 1.0
C      1  0.5494470572430  0.2468871726298  0.6836920011587 1.0
C      1  0.2712614758662  0.5851437138173  0.6844978454967 1.0
C      1  0.6876599411390  0.6756318209792  0.6914904125821 1.0
C      1  0.4531534472092  0.2475011581472  0.6829229692731 1.0
C      1  0.7311993223538  0.5851441266839  0.6859954957920 1.0
C      1  0.3141977462173  0.6750196116458  0.6909327786766 1.0
C      1  0.1870116584989  0.4227198714816  0.5914960480224 1.0
C      1  0.5932413160074  0.8241546057680  0.5982782413565 1.0
C      1  0.7280306510069  0.2585397837293  0.5956038598253 1.0
C      1  0.8166995232401  0.4215010081482  0.5937913445549 1.0
C      1  0.4073385735592  0.8239728461410  0.6000745246491 1.0
C      1  0.2750256948126  0.2599394769416  0.5937935300046 1.0
C      1  0.2569007594844  0.2373025445355  0.4355391633592 1.0
C      1  0.3971397250310  0.8487794260664  0.4402714277907 1.0
C      1  0.8183184868272  0.4222593894598  0.4341448563624 1.0
C      1  0.7469334685132  0.2354816184993  0.4373211861524 1.0
C      1  0.5927736487426  0.8149405298873  0.4378454653540 1.0
C      1  0.1853322148161  0.4248677896555  0.4319094971851 1.0
C      1  0.5980986912263  0.7090353013397  0.7214938342576 1.0
C      1  0.6049660640973  0.3308524467797  0.6913417230669 1.0
C      1  0.3140717459250  0.4913869161587  0.6897323083847 1.0
C      1  0.4043351055964  0.7069028423684  0.7198997245022 1.0
C      1  0.3985434835042  0.3321512275936  0.6899709709362 1.0
C      1  0.6907040601790  0.4898840077149  0.6927754440057 1.0
C      1  0.4547378081133  0.4215216709290  0.1965614886369 1.0
C      1  0.4558971872068  0.5867285637749  0.1997661091915 1.0
C      1  0.5984449392918  0.5036611638996  0.2030055185137 1.0
C      1  0.5502410576688  0.4215572843070  0.1986868837730 1.0
C      1  0.5511621032205  0.5865394702004  0.2037571507761 1.0
C      1  0.4074039948909  0.5041728271605  0.1973876334119 1.0
C      1  0.3033734961902  0.5069307254980  0.3601768871090 1.0
C      1  0.6031437500067  0.6675431995160  0.3711145687205 1.0
C      1  0.6010269251742  0.3256406459521  0.3574161971963 1.0
C      1  0.6965898831574  0.5026034101072  0.3667630765304 1.0
C      1  0.4007945707435  0.6786152784709  0.3588703118316 1.0
C      1  0.4018942507088  0.3273654745668  0.3563096497132 1.0
C      1  0.3935512457903  0.3793355138175  0.7796908680664 1.0
C      1  0.4534690367481  0.6695328081351  0.7930397297866 1.0
C      1  0.6499598575052  0.4608661421266  0.7807612350798 1.0
C      1  0.6083053776026  0.3790650852180  0.7806114181247 1.0
C      1  0.5486889552823  0.6706518973798  0.7934675942248 1.0
C      1  0.3525005565295  0.4613173765838  0.7793624545707 1.0
C      1  0.2360690865898  0.2688098580475  0.3459506582291 1.0
C      1  0.7670300055112  0.2661181945284  0.3471783987592 1.0
C      1  0.4371743725209  0.8505634867454  0.3518393470230 1.0
C      1  0.4477899745790  0.5330074547839  0.4572240666887 1.0
END
