TITL C-49138-8805-8 -5.139 3375.00 -914.55367971 0 0 109 (C1) n - 1
REM
REM Run started: at 2020.12.04 06:43:44 in /rds/project/t2_vol4/rds-t2-cs072/BORA/CARBON/AIRSS/Generating-Clusters/Str-Search/Higher-Symm/C100-200
REM VASP from code version vasp.5.4.4.18Apr17-6-g9f103f2a35 (build Oct 11 2019 16:45:47) gamma-only
REM
REM
REM
REM
REM ./C.cell (533062f00bc710175b3da973d35f2034)
REM AIRSS Version 0.9.1 bugfix July 2018 build 013d7b7c2542+ Fri, 06 Jul 2018 19:26:36 +0100
REM compiler GCC version 4.8.5 20150623 (Red Hat 4.8.5-39)
REM options -cpp -mtune=generic -march=x86-64 -g -O0
REM seed 1133212306 467838151 -1256640962 1992743902 522611842 -249875941 -1648418159 2134436696 -1870710380 1367725525 -1129703181 -871641040
REM
REM C.POTCAR (d86ddea03c3ceb6dc662c8ad6801f873)
REM 
CELL 1.54180   15.00000   15.00000   15.00000   90.00000   90.00000   90.00000
LATT -1
SFAC C  
C      1  0.4289707806478  0.6247184681389  0.2467650406128 1.0
C      1  0.3598374330655  0.5572547799682  0.2429309911053 1.0
C      1  0.3583323049324  0.4600754451047  0.2533483545300 1.0
C      1  0.4079378118602  0.3702418875917  0.2577586708917 1.0
C      1  0.5063419419869  0.3454921404469  0.2940241026498 1.0
C      1  0.6044590853974  0.3809195144313  0.2659047998442 1.0
C      1  0.6280209756681  0.4822649806035  0.2730423463277 1.0
C      1  0.6072784337524  0.5794754144627  0.2482764338762 1.0
C      1  0.5277386201575  0.6332920269137  0.2476340707362 1.0
C      1  0.4204055051562  0.4118603560208  0.4303651545535 1.0
C      1  0.4992653986415  0.3865641769482  0.3872259049107 1.0
C      1  0.5765971510541  0.4159130431865  0.4295323301150 1.0
C      1  0.6258810266272  0.4830967570553  0.3792311124753 1.0
C      1  0.6064314455427  0.5755143213536  0.3971608375556 1.0
C      1  0.5258731930644  0.6201901022464  0.3929495381158 1.0
C      1  0.4324771419591  0.6142696371668  0.3940068568216 1.0
C      1  0.3624208204626  0.5526309901645  0.3919891382918 1.0
C      1  0.3547944538621  0.4615608261997  0.3823201727507 1.0
C      1  0.5504788835833  0.5985303861300  0.5551412071244 1.0
C      1  0.4686057903430  0.6042932879504  0.5486157551131 1.0
C      1  0.3845662601359  0.5777548131844  0.5707566289162 1.0
C      1  0.3571924327931  0.4920310463492  0.5621047579522 1.0
C      1  0.4185761417840  0.4284278483821  0.5210875937876 1.0
C      1  0.4983331553329  0.4121867529676  0.5670551825970 1.0
C      1  0.5796747951540  0.4204939101798  0.5208991200047 1.0
C      1  0.6453345338646  0.4742749822412  0.5651951787691 1.0
C      1  0.6333785547289  0.5639632342289  0.5705926630051 1.0
C      1  0.2209202096289  0.6498316427408  0.4734014953597 1.0
C      1  0.1510852715626  0.4205118733190  0.5132172932655 1.0
C      1  0.3020029613035  0.2616210202992  0.4650223235550 1.0
C      1  0.5311086077114  0.1803405916401  0.4787741227445 1.0
C      1  0.7578852905898  0.2443585666405  0.5163658669896 1.0
C      1  0.8114661113882  0.4600022517257  0.4762348868841 1.0
C      1  0.7944406671267  0.6998136277400  0.5060596898640 1.0
C      1  0.5919689100671  0.7910739236610  0.4716205756558 1.0
C      1  0.3578123754882  0.8266578717350  0.5076199775600 1.0
C      1  0.4385465306570  0.1924962150609  0.4717647028283 1.0
C      1  0.6791735132283  0.2003693069330  0.4989021047809 1.0
C      1  0.8090523015011  0.3702927483093  0.4953404016330 1.0
C      1  0.8209868561491  0.6127105961586  0.4910993744847 1.0
C      1  0.6809444665820  0.7747908747724  0.4849241408398 1.0
C      1  0.4483113575857  0.8349156067920  0.4913140689206 1.0
C      1  0.2605968705576  0.7307261389875  0.4887251146805 1.0
C      1  0.1561074029842  0.5113854124425  0.4956824892972 1.0
C      1  0.2250759969737  0.3072767521602  0.4856429975078 1.0
C      1  0.5248526298677  0.8089333082712  0.5427807709141 1.0
C      1  0.3106633512466  0.7675369145763  0.5668688168369 1.0
C      1  0.1953294689692  0.5844278986595  0.5447384320247 1.0
C      1  0.2044799501510  0.3594645824060  0.5659988249679 1.0
C      1  0.3729302694705  0.2288490518242  0.5285998058673 1.0
C      1  0.5948482672689  0.1954661497230  0.5472893160590 1.0
C      1  0.7772119681531  0.3185947190932  0.5740384518537 1.0
C      1  0.8154196087471  0.5326691351211  0.5446704936200 1.0
C      1  0.7260507096862  0.7388225993891  0.5638974291012 1.0
C      1  0.5607380580423  0.6363201848457  0.7220152938757 1.0
C      1  0.4638262817345  0.6433609168121  0.7220733204942 1.0
C      1  0.3870483580012  0.5810947649907  0.7194482343518 1.0
C      1  0.3615682603075  0.4908000283904  0.7202352306471 1.0
C      1  0.4088134194547  0.4010977598178  0.7095056984317 1.0
C      1  0.4883844040965  0.3396766858925  0.7278672028685 1.0
C      1  0.5785406182176  0.3881966274280  0.7130321808103 1.0
C      1  0.6387797178771  0.4714869704743  0.7222998956514 1.0
C      1  0.6284235226613  0.5646760469165  0.7209482605226 1.0
C      1  0.5458948680563  0.7751247821835  0.3849503040820 1.0
C      1  0.3776019468211  0.7671307922239  0.3642403212689 1.0
C      1  0.2238734492140  0.6019560115674  0.3858974048476 1.0
C      1  0.1997103946741  0.4327477766175  0.3636166347107 1.0
C      1  0.3394536309888  0.2638352623494  0.3742523078914 1.0
C      1  0.5695997700308  0.2054363355087  0.3909993776809 1.0
C      1  0.7169973137998  0.2872029014995  0.3696954021897 1.0
C      1  0.7850751753169  0.4976100772078  0.3887027242311 1.0
C      1  0.7378377800440  0.6617738417720  0.3639130657277 1.0
C      1  0.1789418133706  0.5201690096208  0.4006460167717 1.0
C      1  0.1750108426987  0.3714135911801  0.4310497395132 1.0
C      1  0.4224101368265  0.2217101735390  0.3804056517420 1.0
C      1  0.6605640725275  0.2178151649306  0.4043152855878 1.0
C      1  0.7830517643178  0.2974896842621  0.4378064753433 1.0
C      1  0.7940059008459  0.5908367323454  0.3989415696133 1.0
C      1  0.7460475626959  0.7316336514767  0.4266230765983 1.0
C      1  0.4594539815302  0.8073140888076  0.3972845052547 1.0
C      1  0.3129836318123  0.7875579909812  0.4294995593304 1.0
C      1  0.7694924394509  0.5290587959715  0.6268665201963 1.0
C      1  0.6835672912593  0.6980752129548  0.6367989701288 1.0
C      1  0.5217599213606  0.7661608003808  0.6302040416647 1.0
C      1  0.3510555954146  0.7194948485709  0.6355793885689 1.0
C      1  0.2440465135936  0.5703691328764  0.6239747519281 1.0
C      1  0.2667434375790  0.3827514733721  0.6328394105818 1.0
C      1  0.3949540898336  0.2634436845423  0.6182928717668 1.0
C      1  0.5742630475569  0.2455393370706  0.6286006401595 1.0
C      1  0.7177588308787  0.3508807930493  0.6385958480886 1.0
C      1  0.7070373828209  0.4496929920490  0.6459149936105 1.0
C      1  0.6959327573535  0.5987628839011  0.6488131729392 1.0
C      1  0.5944554101474  0.7122745652155  0.6681905674232 1.0
C      1  0.4408366013176  0.7247860084784  0.6698059081922 1.0
C      1  0.3276981998686  0.6235498844854  0.6455769546672 1.0
C      1  0.2899682931718  0.4797805085510  0.6437672723777 1.0
C      1  0.3469044540994  0.3389614883903  0.6559707285742 1.0
C      1  0.4835542177220  0.2631783399619  0.6612180045811 1.0
C      1  0.6324437798470  0.3158606112584  0.6636359733433 1.0
C      1  0.6487966114946  0.6360332885529  0.3258691718195 1.0
C      1  0.5629126349375  0.6922127929523  0.3283255744543 1.0
C      1  0.3830178592829  0.6757847187424  0.3240667135696 1.0
C      1  0.3072979818850  0.6050256349066  0.3246966702454 1.0
C      1  0.2883394784799  0.4192004901724  0.3179508019672 1.0
C      1  0.3348843178452  0.3308021327973  0.3070159837729 1.0
C      1  0.5031514810242  0.2474533688054  0.3365618240872 1.0
C      1  0.6856895531485  0.3579540825260  0.3116618066861 1.0
C      1  0.7131466522307  0.4548959994155  0.3304071370433 1.0
C      1  0.4970515942289  0.4171640666100  0.6587429459951 1.0
END
