TITL C-5119-875-45 -8.095 3375.00 -1506.90158239 0 0 180 (C2) n - 1
REM
REM Run started: at 2020.12.27 03:13:04 in /gpfs/home/chem/mssmkc/CARBON/AIRSS/Generating-Clusters/Str-Search/Higher-Symm/Only-C180
REM VASP from code version vasp.5.4.4.18Apr17-6-g9f103f2a35 (build Oct 11 2019 16:45:47) gamma-only
REM
REM
REM
REM
REM ./C.cell (73b75853f6e4503fb4b57bac71549d7d)
REM AIRSS Version 0.9.1 bugfix July 2018 build 013d7b7c2542+ Fri, 06 Jul 2018 19:26:36 +0100
REM compiler GCC version 6.3.0
REM options -cpp -iprefix /gpfs/warwick/csc/orac/software/Core/GCCcore/6.3.0/bin/../lib/gcc/x86_64-pc-linux-gnu/6.3.0/ -mtune=generic -march=x86-64 -g -O0
REM seed 711574826 1989696816 -302520459 187537465 865485330 -1305880301 1000743931 -1817155720 -2024179936 232039363 -1512401750 -576708487
REM
REM C.POTCAR (d86ddea03c3ceb6dc662c8ad6801f873)
REM 
CELL 1.54180   15.00000   15.00000   15.00000   90.00000   90.00000   90.00000
LATT -1
SFAC C  
C      1  0.5223020087282  0.6931896797058  0.1913989634014 1.0
C      1  0.3463750595002  0.6190693520041  0.1868436735757 1.0
C      1  0.3252787564497  0.4273832489836  0.1937676822028 1.0
C      1  0.4776974180408  0.3068084201378  0.1914011250848 1.0
C      1  0.6536246094606  0.3809290098534  0.1868467556644 1.0
C      1  0.6747210706166  0.5726144247960  0.1937697987273 1.0
C      1  0.4574207566066  0.6428391954431  0.6018194752734 1.0
C      1  0.2857650911065  0.4889383889733  0.6002733367438 1.0
C      1  0.4444991889488  0.3335795638804  0.6103018037060 1.0
C      1  0.5425784064471  0.3571621466835  0.6018204722393 1.0
C      1  0.7142347216377  0.5110624197975  0.6002738443159 1.0
C      1  0.5555004550306  0.6664213466473  0.6102996521524 1.0
C      1  0.7688125267069  0.2986175697895  0.3239721278580 1.0
C      1  0.8129940422402  0.6237417296562  0.3283023766891 1.0
C      1  0.5375885089567  0.8389624463041  0.3241588371405 1.0
C      1  0.2311879480351  0.7013813334610  0.3239679989717 1.0
C      1  0.1870073899169  0.3762579587517  0.3283015942681 1.0
C      1  0.4624112007112  0.1610369493037  0.3241617140865 1.0
C      1  0.6916790477712  0.2484740862829  0.2925041105987 1.0
C      1  0.8073955871586  0.5341300695297  0.2938963592740 1.0
C      1  0.6177619591901  0.7893387425550  0.2958788631570 1.0
C      1  0.3083209076769  0.7515248635712  0.2925003447046 1.0
C      1  0.1926045693234  0.4658691473786  0.2938941744516 1.0
C      1  0.3822374787849  0.2106596467411  0.2958808433680 1.0
C      1  0.5117692728793  0.5978435261001  0.1667979957849 1.0
C      1  0.4225315494101  0.5605677338094  0.1640956536817 1.0
C      1  0.4112641517047  0.4632305326523  0.1655252258012 1.0
C      1  0.4882306036819  0.4021543974064  0.1667987448857 1.0
C      1  0.5774686124900  0.4394301802656  0.1640979847275 1.0
C      1  0.5887354548118  0.5367670935924  0.1655268105183 1.0
C      1  0.6936351712018  0.3474780625214  0.5193035199510 1.0
C      1  0.7190720788336  0.5968429701373  0.4644991529000 1.0
C      1  0.5223134607641  0.7493309646113  0.4859857607959 1.0
C      1  0.3063639531454  0.6525237982451  0.5193007079082 1.0
C      1  0.2809291377940  0.4031576674537  0.4644972259154 1.0
C      1  0.4776856085475  0.2506689111247  0.4859875014158 1.0
C      1  0.1420895203020  0.3605071893922  0.4065558466254 1.0
C      1  0.4633476127750  0.1225611039623  0.4096240886920 1.0
C      1  0.7927723388327  0.3052882016756  0.4129831776203 1.0
C      1  0.8579116763664  0.6394923748754  0.4065577520110 1.0
C      1  0.5366510012319  0.8774379503374  0.4096209021654 1.0
C      1  0.2072267706548  0.6947114092508  0.4129788021588 1.0
C      1  0.2665910497669  0.7378334971318  0.4795194064788 1.0
C      1  0.1845909736102  0.3772048738672  0.4826574669532 1.0
C      1  0.4121957351778  0.1744250613812  0.4729451298100 1.0
C      1  0.7334093247302  0.2621662929792  0.4795232112346 1.0
C      1  0.8154094884135  0.6227933593544  0.4826584660971 1.0
C      1  0.5878044804405  0.8255751081840  0.4729425100151 1.0
C      1  0.3534623739764  0.7987388253361  0.4534003708280 1.0
C      1  0.1841868315560  0.5929270024060  0.4356887138127 1.0
C      1  0.3176111831521  0.2236060224282  0.4590270076781 1.0
C      1  0.6465372432569  0.2012610369412  0.4534045282416 1.0
C      1  0.8158126355998  0.4070721994747  0.4356910059883 1.0
C      1  0.6823879235844  0.7763936853809  0.4590254770993 1.0
C      1  0.6071345940092  0.7211774593471  0.2252532914920 1.0
C      1  0.3612810791349  0.7079028961067  0.2195534643430 1.0
C      1  0.2547760087241  0.4853231402066  0.2206740446473 1.0
C      1  0.3928652561760  0.2788207144853  0.2252539275746 1.0
C      1  0.6387189229113  0.2920960251671  0.2195569551742 1.0
C      1  0.7452231134641  0.5146733103150  0.2206767429869 1.0
C      1  0.4443099755100  0.4126169705684  0.7726514551203 1.0
C      1  0.5548427279933  0.4105742209081  0.7698621961812 1.0
C      1  0.6072892650711  0.4970594200469  0.8107712369033 1.0
C      1  0.5556897279111  0.5873842924926  0.7726516396602 1.0
C      1  0.4451568996519  0.5894263977498  0.7698619765593 1.0
C      1  0.3927107671818  0.5029416434422  0.8107712138199 1.0
C      1  0.5929444432083  0.5048400233781  0.5290165867183 1.0
C      1  0.5439218946258  0.5779488760560  0.4817828225101 1.0
C      1  0.4530055515456  0.5799488613978  0.5162524524504 1.0
C      1  0.4070556100533  0.4951594972594  0.5290164660034 1.0
C      1  0.4560767462981  0.4220499535113  0.4817825594725 1.0
C      1  0.5469950334342  0.4200521249272  0.5162526591689 1.0
C      1  0.1485529174953  0.5781899602946  0.5351511623605 1.0
C      1  0.2679863668801  0.2107250686639  0.5523762044130 1.0
C      1  0.6292306861079  0.1505618285148  0.5455279255561 1.0
C      1  0.8514474053056  0.4218106763010  0.5351523459954 1.0
C      1  0.7320129972552  0.7892753157628  0.5523747128323 1.0
C      1  0.3707686012613  0.8494383805455  0.5455244596023 1.0
C      1  0.4534261471416  0.8544332397634  0.5899796228532 1.0
C      1  0.1672621644030  0.6491649356171  0.5948404966619 1.0
C      1  0.2070488155988  0.2741193707165  0.6050469997657 1.0
C      1  0.5465738608091  0.1455683526032  0.5899838827604 1.0
C      1  0.8327374821787  0.3508353923758  0.5948436234102 1.0
C      1  0.7929510812726  0.7258808630309  0.6050462362941 1.0
C      1  0.5797559960610  0.1756149283238  0.6799398767436 1.0
C      1  0.8115070124872  0.4043148562026  0.6745203914665 1.0
C      1  0.7346772036278  0.7304929369037  0.6842603473929 1.0
C      1  0.4202440668355  0.8243859785669  0.6799366700399 1.0
C      1  0.1884928880406  0.5956865255243  0.6745179544326 1.0
C      1  0.2653218731809  0.2695086628846  0.6842614609432 1.0
C      1  0.5889604647562  0.4976763890777  0.9114743554764 1.0
C      1  0.5443605246236  0.5742580433250  0.9452306076123 1.0
C      1  0.4591164791443  0.5767878527548  0.9451863616410 1.0
C      1  0.4110385684985  0.5023261524505  0.9114741753573 1.0
C      1  0.4556397475104  0.4257443648981  0.9452299624424 1.0
C      1  0.5408838272160  0.4232135887792  0.9451879309040 1.0
C      1  0.4014898820008  0.6635991088736  0.5262976598222 1.0
C      1  0.3088542066980  0.4884175833388  0.5051379839846 1.0
C      1  0.4237534635519  0.3334662391563  0.5120340051160 1.0
C      1  0.5985091937683  0.3364002184993  0.5262998619546 1.0
C      1  0.6911469175636  0.5115832692346  0.5051387836341 1.0
C      1  0.5762465455320  0.6665324691064  0.5120329203290 1.0
C      1  0.6373672997437  0.1880793163698  0.3423507951299 1.0
C      1  0.8276980151732  0.4485621908662  0.3381615907578 1.0
C      1  0.6928757379310  0.7700164908459  0.3509114907634 1.0
C      1  0.3626327503623  0.8119205706281  0.3423466089244 1.0
C      1  0.1723019878393  0.5514367798490  0.3381590123950 1.0
C      1  0.3071239540058  0.2299825964796  0.3509126414020 1.0
C      1  0.1859487063818  0.5199609713669  0.6143932640764 1.0
C      1  0.3220313642010  0.2139059072103  0.6301318750585 1.0
C      1  0.6650721963825  0.1836984035160  0.6384964572114 1.0
C      1  0.8140514250940  0.4800393119594  0.6143943971286 1.0
C      1  0.6779686465941  0.7860961530632  0.6301304011231 1.0
C      1  0.3349272055116  0.8163022892605  0.6384928328496 1.0
C      1  0.7407472171036  0.4036184043334  0.7357683539386 1.0
C      1  0.6985683295774  0.6651283652887  0.7407319683206 1.0
C      1  0.4554495381311  0.7575052931697  0.7381960954629 1.0
C      1  0.2592531811409  0.5963828720840  0.7357665894461 1.0
C      1  0.3014311273086  0.3348734255354  0.7407324575148 1.0
C      1  0.5445501784204  0.2424964248298  0.7381984444123 1.0
C      1  0.7586812452426  0.2907263986439  0.5759100106818 1.0
C      1  0.8192232141471  0.6433085955446  0.5796803751458 1.0
C      1  0.5378107967792  0.8160720235545  0.5633685478087 1.0
C      1  0.2413176437743  0.7092748889324  0.5759067669907 1.0
C      1  0.1807792904488  0.3566919009964  0.5796795216131 1.0
C      1  0.4621898000091  0.1839305779448  0.5633718325557 1.0
C      1  0.2095272561325  0.6180078194177  0.2812060965375 1.0
C      1  0.2746847677184  0.3237423986511  0.3152071861443 1.0
C      1  0.5484516596572  0.1872367231450  0.2921861887352 1.0
C      1  0.7904738197892  0.3819903720891  0.2812086410310 1.0
C      1  0.7253168982229  0.6762565824578  0.3152064055277 1.0
C      1  0.4515481060509  0.8127624503202  0.2921823530734 1.0
C      1  0.6901893914714  0.3199342955617  0.7327765108087 1.0
C      1  0.7403746708539  0.5753416704899  0.7336043956652 1.0
C      1  0.5524054953673  0.7474485629891  0.7359302232697 1.0
C      1  0.3098107878775  0.6800674312466  0.7327735467327 1.0
C      1  0.2596253590504  0.4246598254238  0.7336033935418 1.0
C      1  0.4475945782846  0.2525535872173  0.7359310850029 1.0
C      1  0.6473023085083  0.4143602884090  0.3852972701134 1.0
C      1  0.6650004981513  0.6237608797351  0.3850468173110 1.0
C      1  0.4246625296673  0.6592541070364  0.3794494356913 1.0
C      1  0.3526982499993  0.5856383709137  0.3852962879894 1.0
C      1  0.3350025225138  0.3762379876096  0.3850459444458 1.0
C      1  0.5753369658548  0.3407441470084  0.3794507706089 1.0
C      1  0.4168179980898  0.2338927735869  0.6396777252044 1.0
C      1  0.7152114762271  0.2563535575446  0.6582797533881 1.0
C      1  0.7896441111318  0.5705560447752  0.6419804016586 1.0
C      1  0.5831818187218  0.7661089136555  0.6396751690901 1.0
C      1  0.2847859870686  0.7436484230327  0.6582766212952 1.0
C      1  0.2103566026293  0.4294453104678  0.6419787775367 1.0
C      1  0.5877735309354  0.4751927017748  0.3529559732195 1.0
C      1  0.5749433944086  0.5703724615781  0.3764993172829 1.0
C      1  0.4844932831902  0.5981348828392  0.3441823929001 1.0
C      1  0.4122300096251  0.5248058488059  0.3529613594322 1.0
C      1  0.4250592134043  0.4296246085020  0.3764994684019 1.0
C      1  0.5155083880117  0.4018638511911  0.3441832788550 1.0
C      1  0.6091886493844  0.5057396695771  0.6295367703954 1.0
C      1  0.5589440129941  0.5801337893265  0.6690825923501 1.0
C      1  0.4479556163468  0.5721602379736  0.6686412724597 1.0
C      1  0.3908104812183  0.4942620009329  0.6295363907467 1.0
C      1  0.4410542173044  0.4198671669170  0.6690826142341 1.0
C      1  0.5520444306963  0.4278402522769  0.6686411573969 1.0
C      1  0.7355331737854  0.4213347254167  0.2129006690755 1.0
C      1  0.6762439385274  0.6600001250373  0.2301124783969 1.0
C      1  0.4472627917664  0.7448709726079  0.2206295725042 1.0
C      1  0.2644673940129  0.5786634626012  0.2128977171388 1.0
C      1  0.3237564710739  0.3399988256963  0.2301132287290 1.0
C      1  0.5527369361242  0.2551280336243  0.2206323964846 1.0
C      1  0.6615415029259  0.6776159929973  0.4704404923320 1.0
C      1  0.4311507897309  0.7273823279449  0.4543719891401 1.0
C      1  0.2843648189141  0.5744791255297  0.4578207204128 1.0
C      1  0.3384581199869  0.3223833263031  0.4704403382258 1.0
C      1  0.5688493324776  0.2726166774588  0.4543744999804 1.0
C      1  0.7156345382643  0.4255211734505  0.4578220016341 1.0
C      1  0.3981722137913  0.6834740230064  0.7669015030438 1.0
C      1  0.2949822462392  0.5059392980042  0.7686951496112 1.0
C      1  0.3952658730403  0.3222684328746  0.7739374995488 1.0
C      1  0.6018274909607  0.3165270550841  0.7669032682026 1.0
C      1  0.7050180540860  0.4940621083616  0.7686966925697 1.0
C      1  0.6047334449830  0.6777330152852  0.7739359161472 1.0
END
