TITL C-519-9595-46 -6.259 3375.00 -1104.38180105 0 0 134 (C2h) n - 1
REM
REM Run started: at 2020.12.31 02:01:36 in /gpfs/home/chem/mssmkc/CARBON/AIRSS/Generating-Clusters/Str-Search/Higher-Symm/C100-200
REM VASP from code version vasp.5.4.4.18Apr17-6-g9f103f2a35 (build Oct 11 2019 16:45:47) gamma-only
REM
REM
REM
REM
REM ./C.cell (533062f00bc710175b3da973d35f2034)
REM AIRSS Version 0.9.1 bugfix July 2018 build 013d7b7c2542+ Fri, 06 Jul 2018 19:26:36 +0100
REM compiler GCC version 6.3.0
REM options -cpp -iprefix /gpfs/warwick/csc/orac/software/Core/GCCcore/6.3.0/bin/../lib/gcc/x86_64-pc-linux-gnu/6.3.0/ -mtune=generic -march=x86-64 -g -O0
REM seed -2073630288 -1358431433 1059705508 633242636 1566187711 1350245819 -585129744 1346171957 1752036426 1581070667 -1340447339 554498807
REM
REM C.POTCAR (d86ddea03c3ceb6dc662c8ad6801f873)
REM 
CELL 1.54180   15.00000   15.00000   15.00000   90.00000   90.00000   90.00000
LATT -1
SFAC C  
C      1  0.3241125727128  0.2283699724880  0.5484158537205 1.0
C      1  0.3234352222203  0.7713219235409  0.4522971355890 1.0
C      1  0.6774136076209  0.2287017429095  0.5476950848546 1.0
C      1  0.6767129725669  0.7715732646859  0.4515713598305 1.0
C      1  0.3234358547786  0.2286791290777  0.4522969392782 1.0
C      1  0.3241116288530  0.7716301153196  0.5484153587681 1.0
C      1  0.6767130423456  0.2284273332626  0.4515725074402 1.0
C      1  0.6774126140512  0.7712959722184  0.5476944211331 1.0
C      1  0.2642080278439  0.6075092240777  0.5478783958054 1.0
C      1  0.2600291021109  0.3916999168398  0.4547092197474 1.0
C      1  0.7408284105709  0.6082747578086  0.5453154237845 1.0
C      1  0.7366826499599  0.3924980856012  0.4521400052584 1.0
C      1  0.2600297566036  0.6083000286390  0.4547093922885 1.0
C      1  0.2642086275687  0.3924911509013  0.5478780570618 1.0
C      1  0.7366825411191  0.6075027147031  0.4521384056159 1.0
C      1  0.7408281470025  0.3917236403287  0.5453168729587 1.0
C      1  0.2547512277937  0.3424875885222  0.3633348376059 1.0
C      1  0.2551947566811  0.6582977059122  0.6385393925885 1.0
C      1  0.7456946233293  0.3417177565703  0.3614503490518 1.0
C      1  0.7461241126494  0.6575171722646  0.6366617011633 1.0
C      1  0.2551953831175  0.3417023266815  0.6385393828818 1.0
C      1  0.2547518766043  0.6575128469009  0.3633353711961 1.0
C      1  0.7461243064974  0.3424800615189  0.6366643062927 1.0
C      1  0.7456941865729  0.6582823307765  0.3614498928950 1.0
C      1  0.4020519133119  0.4002543569270  0.2134491633170 1.0
C      1  0.3988254213004  0.6007167263527  0.7888245552473 1.0
C      1  0.6020019606742  0.3992972303194  0.2111608458869 1.0
C      1  0.5988113776913  0.5997647994738  0.7865813371242 1.0
C      1  0.3988260253024  0.3992829600717  0.7888238329281 1.0
C      1  0.4020524102937  0.5997475276926  0.2134487294097 1.0
C      1  0.5988130133342  0.4002333908669  0.7865838038505 1.0
C      1  0.6020032177896  0.6007049237648  0.2111589568488 1.0
C      1  0.6936490513171  0.7341262724768  0.3604830957690 1.0
C      1  0.6935840707219  0.2670763109231  0.6384792904267 1.0
C      1  0.3072915506195  0.7329125025265  0.3615207615528 1.0
C      1  0.3072013625673  0.2658398666132  0.6395024207421 1.0
C      1  0.6935825588494  0.7329203479151  0.6384777531994 1.0
C      1  0.6936478722323  0.2658746141939  0.3604844583422 1.0
C      1  0.3072014693310  0.7341594335448  0.6395014401427 1.0
C      1  0.3072913736022  0.2670881190659  0.3615203539658 1.0
C      1  0.6837169642072  0.5504771561183  0.2385865458882 1.0
C      1  0.6802642010267  0.4500043749442  0.7591868542026 1.0
C      1  0.3206295552790  0.5499846196124  0.2408476945435 1.0
C      1  0.3171338113190  0.4495248694272  0.7614007064018 1.0
C      1  0.6802632776859  0.5499947930247  0.7591855304488 1.0
C      1  0.6837166717969  0.4495238536480  0.2385869633244 1.0
C      1  0.3171333341323  0.5504747505953  0.7614013425973 1.0
C      1  0.3206289502796  0.4500163106758  0.2408474594432 1.0
C      1  0.3962588030787  0.2551415414308  0.3040848671334 1.0
C      1  0.3954699736367  0.7476977287581  0.6973908595970 1.0
C      1  0.6053838066048  0.2523311310588  0.3026148901252 1.0
C      1  0.6046101903887  0.7448819989842  0.6959355049975 1.0
C      1  0.3954709377217  0.2523016873829  0.6973916723375 1.0
C      1  0.3962586125835  0.7448598965222  0.3040845152700 1.0
C      1  0.6046124645084  0.2551153065465  0.6959367324825 1.0
C      1  0.6053846641953  0.7476708998478  0.3026133769215 1.0
C      1  0.5461604189051  0.8005074173077  0.3577673792643 1.0
C      1  0.5467243826047  0.2007095694081  0.6415554310731 1.0
C      1  0.4541154991932  0.7993027197628  0.3584338675158 1.0
C      1  0.4546878085693  0.1994731814583  0.6422246097014 1.0
C      1  0.5467237377983  0.7992888485948  0.6415538490642 1.0
C      1  0.5461599104185  0.1994954889425  0.3577677134976 1.0
C      1  0.4546874594194  0.8005255964449  0.6422230230871 1.0
C      1  0.4541151594045  0.2006987118163  0.3584350414989 1.0
C      1  0.4533118426818  0.4515333541590  0.1566500577463 1.0
C      1  0.4507009386024  0.5486149095396  0.8440069472427 1.0
C      1  0.5501086572298  0.4513807336724  0.1559865984795 1.0
C      1  0.5474848134861  0.5484616141499  0.8433176229599 1.0
C      1  0.4507011880402  0.4513844307384  0.8440065114347 1.0
C      1  0.4533120142263  0.5484681966073  0.1566497959723 1.0
C      1  0.5474856679670  0.4515379231906  0.8433179305097 1.0
C      1  0.5501086223460  0.5486211767835  0.1559859608318 1.0
C      1  0.4468522639393  0.3181645122401  0.2497867857051 1.0
C      1  0.4449019545474  0.6825163049123  0.7507330753190 1.0
C      1  0.5559367125231  0.3174942259585  0.2492490136084 1.0
C      1  0.5540286317266  0.6818519903766  0.7502268564594 1.0
C      1  0.4449027181355  0.3174830112777  0.7507335296105 1.0
C      1  0.4468529223429  0.6818373788761  0.2497861423013 1.0
C      1  0.5540297007348  0.3181452865752  0.7502289955054 1.0
C      1  0.5559372736922  0.6825076194057  0.2492479593169 1.0
C      1  0.4507272520400  0.3250581847528  0.5524363727637 1.0
C      1  0.4490605425770  0.6714188566231  0.4530268279631 1.0
C      1  0.5517359583456  0.3286008859493  0.5469643466604 1.0
C      1  0.5500616621172  0.6749491400384  0.4475535699465 1.0
C      1  0.4490618966027  0.3285822140635  0.4530286919112 1.0
C      1  0.4507258457417  0.6749434188482  0.5524348732430 1.0
C      1  0.5500627376976  0.3250505359478  0.4475558270827 1.0
C      1  0.5517343775595  0.6713977987680  0.5469615833725 1.0
C      1  0.5805956573038  0.7788376908875  0.4474072086727 1.0
C      1  0.5815664844496  0.2225669320906  0.5522548321077 1.0
C      1  0.4192835610887  0.7774502719219  0.4477508838172 1.0
C      1  0.4202212556528  0.2211425387339  0.5526013880161 1.0
C      1  0.5815660372553  0.7774322431806  0.5522536081684 1.0
C      1  0.5805956665551  0.2211630898570  0.4474081039643 1.0
C      1  0.4202206164047  0.7788592595410  0.5526006777980 1.0
C      1  0.4192840488755  0.2225524520696  0.4477514661674 1.0
C      1  0.2426405632548  0.5953509952516  0.7142377741257 1.0
C      1  0.2448099343625  0.4059682254337  0.2877496340209 1.0
C      1  0.7560722617096  0.5940499575756  0.7122805943861 1.0
C      1  0.7582568182597  0.4046522216614  0.2857216459785 1.0
C      1  0.2448112163379  0.5940325968539  0.2877502934743 1.0
C      1  0.2426430050725  0.4046480619635  0.7142363822357 1.0
C      1  0.7582572179934  0.5953488820110  0.2857207669892 1.0
C      1  0.7560730335402  0.4059469939973  0.7122843074844 1.0
C      1  0.4185785539244  0.5954028116436  0.6010765604233 1.0
C      1  0.4210849555304  0.4185177997834  0.4179600746703 1.0
C      1  0.5797482293274  0.5814748185474  0.5820476824198 1.0
C      1  0.5822295975090  0.4046105663685  0.3989580280535 1.0
C      1  0.4210852012784  0.5814808570712  0.4179625155447 1.0
C      1  0.4185775353023  0.4045971901741  0.6010783080449 1.0
C      1  0.5822298265502  0.5953884960569  0.3989566441400 1.0
C      1  0.5797481222429  0.4185245269165  0.5820486914665 1.0
C      1  0.3396613368251  0.4519492060353  0.5805765019919 1.0
C      1  0.3279853782431  0.5458506750116  0.4193335565993 1.0
C      1  0.6728441451517  0.4541543065978  0.5806654978525 1.0
C      1  0.6611752586406  0.5480675535277  0.4194354493718 1.0
C      1  0.3279850771546  0.4541484136873  0.4193333399993 1.0
C      1  0.3396613144270  0.5480514370649  0.5805769701210 1.0
C      1  0.6611752454106  0.4519316891557  0.4194363663346 1.0
C      1  0.6728438537042  0.5458454735714  0.5806644324218 1.0
C      1  0.8328548894992  0.4578185173322  0.2833042384999 1.0
C      1  0.8313589799837  0.5423790477256  0.7189968031258 1.0
C      1  0.1695183137575  0.4576309405863  0.2810447286022 1.0
C      1  0.1680364148661  0.5421732146884  0.7165782465080 1.0
C      1  0.8313581657279  0.4576185283664  0.7189970975845 1.0
C      1  0.8328549587636  0.5421825033171  0.2833040388860 1.0
C      1  0.1680362104798  0.4578254230544  0.7165782248424 1.0
C      1  0.1695184271824  0.5423714641392  0.2810452272652 1.0
C      1  0.4968621749160  0.4525969207671  0.6291467798843 1.0
C      1  0.5039744841766  0.5473933149443  0.3708801147148 1.0
C      1  0.5039743340589  0.4526043638874  0.3708819059848 1.0
C      1  0.4968630934852  0.5474041868178  0.6291458402550 1.0
C      1  0.4690185861867  0.5000023039030  0.4638370248823 1.0
C      1  0.5317990678053  0.4999987361837  0.5361867701775 1.0
END
