TITL C-51802-8144-3 -1.512 3375.00 -246.84358351 0 0 32 (C1) n - 1
REM
REM Run started: at 2020.11.22 22:33:24 in /rds/project/t2_vol4/rds-t2-cs072/BORA/CARBON/AIRSS/Generating-Clusters/Str-Search/Higher-Symm
REM VASP from code version vasp.5.4.4.18Apr17-6-g9f103f2a35 (build Oct 11 2019 16:45:47) gamma-only
REM
REM
REM
REM
REM ./C.cell (e5ae0387ce4d49c7c0135a1433873289)
REM AIRSS Version 0.9.1 bugfix July 2018 build 013d7b7c2542+ Fri, 06 Jul 2018 19:26:36 +0100
REM compiler GCC version 4.8.5 20150623 (Red Hat 4.8.5-39)
REM options -cpp -mtune=generic -march=x86-64 -g -O0
REM seed 2047610916 -1474517615 1911971161 1531976717 -140183960 740301150 -246720132 395185869 -1331617585 -1736467812 1191879065 82180970
REM
REM C.POTCAR (d86ddea03c3ceb6dc662c8ad6801f873)
REM 
CELL 1.54180   15.00000   15.00000   15.00000   90.00000   90.00000   90.00000
LATT -1
SFAC C  
C      1  0.4403437116171  0.3671714387675  0.5458594299759 1.0
C      1  0.3491382338685  0.5955685411241  0.5329469000380 1.0
C      1  0.4247962870787  0.4068559450472  0.3166278991110 1.0
C      1  0.3276505531781  0.4885598381640  0.4369322194167 1.0
C      1  0.5183286915766  0.5017745628873  0.5126553284410 1.0
C      1  0.4263083327799  0.6167683402809  0.5905144105157 1.0
C      1  0.6029956735636  0.3948246971410  0.6401057832982 1.0
C      1  0.4804556293146  0.6885835861086  0.6027897862701 1.0
C      1  0.4264671302655  0.5792281588738  0.3375300648854 1.0
C      1  0.4387721813665  0.3755849366776  0.6364062767615 1.0
C      1  0.5635649573343  0.3918256323374  0.4047715764222 1.0
C      1  0.6177920787475  0.5229325365948  0.4839968506597 1.0
C      1  0.3282235122271  0.5004667773555  0.5345177621558 1.0
C      1  0.6623618436400  0.5120571692388  0.3334050706298 1.0
C      1  0.3976066406380  0.5002273180208  0.2954975715136 1.0
C      1  0.3943418388289  0.4526024279353  0.5902705406245 1.0
C      1  0.3458526440578  0.4441737126873  0.3559164591611 1.0
C      1  0.5180709903898  0.5966223532275  0.3788038254254 1.0
C      1  0.5991336435272  0.3566876525961  0.5580921511710 1.0
C      1  0.4700218885677  0.5245267874137  0.6027499612635 1.0
C      1  0.5061292341336  0.3774818351770  0.3368752040142 1.0
C      1  0.6519868096486  0.5505248782129  0.5766429884147 1.0
C      1  0.6105130914521  0.5685980903924  0.3913251279697 1.0
C      1  0.5673551109675  0.6817525596835  0.6075234628778 1.0
C      1  0.6303610035836  0.4902990994816  0.6505469457707 1.0
C      1  0.5268676277825  0.3960367079082  0.5017162314201 1.0
C      1  0.3732188515390  0.5762469501628  0.4294575326623 1.0
C      1  0.6416040817256  0.6402862630589  0.5962071126090 1.0
C      1  0.6384683320798  0.4536541528202  0.4078355596531 1.0
C      1  0.4706864542949  0.5588558673125  0.4469763126587 1.0
C      1  0.5345019238759  0.4910291842139  0.6730093562250 1.0
C      1  0.5160813163495  0.3981916990969  0.6914942979846 1.0
END
