TITL C-51802-8144-7 -0.499 3375.00 -71.63128711 0 0 10 (Cs) n - 1
REM
REM Run started: at 2020.11.23 02:19:10 in /rds/project/t2_vol4/rds-t2-cs072/BORA/CARBON/AIRSS/Generating-Clusters/Str-Search/Higher-Symm
REM VASP from code version vasp.5.4.4.18Apr17-6-g9f103f2a35 (build Oct 11 2019 16:45:47) gamma-only
REM
REM
REM
REM
REM ./C.cell (e5ae0387ce4d49c7c0135a1433873289)
REM AIRSS Version 0.9.1 bugfix July 2018 build 013d7b7c2542+ Fri, 06 Jul 2018 19:26:36 +0100
REM compiler GCC version 4.8.5 20150623 (Red Hat 4.8.5-39)
REM options -cpp -mtune=generic -march=x86-64 -g -O0
REM seed -1556790241 -1789080709 2080875339 945897414 413750110 -2145289866 902958380 -977309675 -1668195129 -1786362348 1250776187 -1265896866
REM
REM C.POTCAR (d86ddea03c3ceb6dc662c8ad6801f873)
REM 
CELL 1.54180   15.00000   15.00000   15.00000   90.00000   90.00000   90.00000
LATT -1
SFAC C  
C      1  0.4035460852099  0.4973351509859  0.5505624586361 1.0
C      1  0.4035430305046  0.4973395210752  0.4494423411654 1.0
C      1  0.5816138029953  0.4731674025711  0.5936374535274 1.0
C      1  0.5816143844300  0.4731693600586  0.4063624675863 1.0
C      1  0.5005665330752  0.4775322283917  0.5522544363937 1.0
C      1  0.5005656473435  0.4775361330787  0.4477480371511 1.0
C      1  0.6521357854704  0.4630563288761  0.5437721191643 1.0
C      1  0.6521319037450  0.4630574240993  0.4562281206097 1.0
C      1  0.3621442520562  0.5889008802978  0.5451277304017 1.0
C      1  0.3621387751701  0.5889055705656  0.4548648353644 1.0
END
