TITL C-5119-875-28 -8.156 3375.00 -1466.82068965 0 0 180 (C1) n - 1
REM
REM Run started: at 2020.12.26 13:49:23 in /gpfs/home/chem/mssmkc/CARBON/AIRSS/Generating-Clusters/Str-Search/Higher-Symm/Only-C180
REM VASP from code version vasp.5.4.4.18Apr17-6-g9f103f2a35 (build Oct 11 2019 16:45:47) gamma-only
REM
REM
REM
REM
REM ./C.cell (73b75853f6e4503fb4b57bac71549d7d)
REM AIRSS Version 0.9.1 bugfix July 2018 build 013d7b7c2542+ Fri, 06 Jul 2018 19:26:36 +0100
REM compiler GCC version 6.3.0
REM options -cpp -iprefix /gpfs/warwick/csc/orac/software/Core/GCCcore/6.3.0/bin/../lib/gcc/x86_64-pc-linux-gnu/6.3.0/ -mtune=generic -march=x86-64 -g -O0
REM seed 128507801 -1282878129 -857328988 -1174487756 1484873231 -1947187424 846514032 -1628585897 1282663329 -795810729 523677439 507271088
REM
REM C.POTCAR (d86ddea03c3ceb6dc662c8ad6801f873)
REM 
CELL 1.54180   15.00000   15.00000   15.00000   90.00000   90.00000   90.00000
LATT -1
SFAC C  
C      1  0.7190501210521  0.4197161892778  0.7052481188712 1.0
C      1  0.6493265443624  0.6775520923108  0.7032403604291 1.0
C      1  0.3932701792812  0.6778811435297  0.7298748350857 1.0
C      1  0.3104474058995  0.4307029878698  0.7691775631834 1.0
C      1  0.4887739633025  0.2641404175338  0.7178956442795 1.0
C      1  0.3911140056098  0.5395524862545  0.1661592886792 1.0
C      1  0.4164875099672  0.4335708334380  0.1627742327082 1.0
C      1  0.5184585293266  0.4303690348572  0.1561208224608 1.0
C      1  0.5539317879445  0.5235995669403  0.1562401344547 1.0
C      1  0.4818762426923  0.5896642609826  0.1595237621833 1.0
C      1  0.5684568629005  0.5869112515817  0.8267842176658 1.0
C      1  0.4724481814517  0.5675819339804  0.8403060881571 1.0
C      1  0.4636579699023  0.4679220464859  0.8402184288615 1.0
C      1  0.5475064167033  0.4237606556684  0.8174711172578 1.0
C      1  0.6168058877675  0.4971585059260  0.8141628318965 1.0
C      1  0.1979326349041  0.4331217006103  0.2503833979808 1.0
C      1  0.4671279165594  0.2089684035992  0.2252744068101 1.0
C      1  0.7355347773997  0.4008714893624  0.2161690287382 1.0
C      1  0.6601078720452  0.7189525074413  0.2188929888593 1.0
C      1  0.3350301490145  0.7412126866707  0.2522836085819 1.0
C      1  0.5266410536615  0.5728118797339  0.6499876754880 1.0
C      1  0.4340182736057  0.5485077271602  0.6512947538648 1.0
C      1  0.4261079975884  0.4543531391046  0.6466148005045 1.0
C      1  0.5122521972737  0.4220752723303  0.6479915548951 1.0
C      1  0.5735518502303  0.4932179361614  0.6501668108035 1.0
C      1  0.3344161304968  0.2691036122425  0.5852660914581 1.0
C      1  0.6709811199696  0.2514483428335  0.5601770951111 1.0
C      1  0.7896554991893  0.5677081967436  0.5445375436216 1.0
C      1  0.4980661445603  0.8171787698312  0.5891027489018 1.0
C      1  0.1999907976253  0.5933612646292  0.6229272595962 1.0
C      1  0.6689153732184  0.3421120687970  0.1839677732205 1.0
C      1  0.6856909838606  0.6281030003660  0.2026340286230 1.0
C      1  0.4267539816098  0.7357818388896  0.2290418343584 1.0
C      1  0.2576696031994  0.5105460651325  0.2621695404933 1.0
C      1  0.4065530588638  0.2845506379797  0.2558079476901 1.0
C      1  0.3075859954055  0.5720569305245  0.2025487207625 1.0
C      1  0.3632289271219  0.3570321206616  0.1942052616507 1.0
C      1  0.5773233356159  0.3482849160846  0.1692277837068 1.0
C      1  0.6476381943812  0.5462365354361  0.1867364921205 1.0
C      1  0.4937712554142  0.6880538479889  0.1879935389232 1.0
C      1  0.2696705870256  0.5679296400427  0.6840555697970 1.0
C      1  0.3446015736365  0.3026517040801  0.6791971721359 1.0
C      1  0.6350449092097  0.3231099879435  0.6151532673468 1.0
C      1  0.7127706523404  0.5691729652721  0.6041890151707 1.0
C      1  0.5309091351270  0.7489035821054  0.6528798276168 1.0
C      1  0.5183590724033  0.5659243468871  0.3247301024588 1.0
C      1  0.4253793510823  0.5545982067821  0.3205637162574 1.0
C      1  0.4092413718549  0.4649392908340  0.3079979568259 1.0
C      1  0.4912871094417  0.4178069686384  0.3083827351478 1.0
C      1  0.5578285553174  0.4810745440062  0.3206193523649 1.0
C      1  0.5687037669484  0.8702175758714  0.4461482922324 1.0
C      1  0.2122571496495  0.7173489718709  0.5017060351813 1.0
C      1  0.1992249465556  0.2939963687622  0.4841941167638 1.0
C      1  0.6146141124428  0.1449210907707  0.4524252190630 1.0
C      1  0.8816042889585  0.4861117464838  0.4379720268060 1.0
C      1  0.8485491999565  0.5005252975108  0.5348353983376 1.0
C      1  0.5756696148367  0.8441842083040  0.5421282592533 1.0
C      1  0.2088398230599  0.6840164794402  0.5933908769360 1.0
C      1  0.2546936963358  0.3077838419442  0.5633946872586 1.0
C      1  0.6212525288378  0.1771437652771  0.5468359799996 1.0
C      1  0.5050453530766  0.2754441038937  0.3915639259878 1.0
C      1  0.6630541231707  0.4269088241507  0.4154608819000 1.0
C      1  0.6274895360701  0.6183710890988  0.4128201684817 1.0
C      1  0.3742704192495  0.6788227331433  0.4092184784894 1.0
C      1  0.2889234083202  0.4242883269279  0.4035509265363 1.0
C      1  0.4559675315702  0.7864362965931  0.3118235346690 1.0
C      1  0.2022371009796  0.5481250568947  0.3428832129261 1.0
C      1  0.3510811185333  0.2648978377402  0.3375225189289 1.0
C      1  0.7006284545550  0.2778989574290  0.2560677447185 1.0
C      1  0.7536294468834  0.6328869291813  0.2739342271959 1.0
C      1  0.4077671639470  0.8426670288072  0.5699605005614 1.0
C      1  0.1425889448815  0.5255810389075  0.5804589375478 1.0
C      1  0.3797396673344  0.2005599067594  0.5108037902885 1.0
C      1  0.7478370314046  0.2790018017534  0.5016200479157 1.0
C      1  0.7879811780741  0.6313303130486  0.4733682073537 1.0
C      1  0.5906760361518  0.4535413019556  0.4846148110982 1.0
C      1  0.5841621940376  0.5613134663403  0.4870520520193 1.0
C      1  0.4832367268064  0.5809637630528  0.4880466895557 1.0
C      1  0.4307277490666  0.5015691229889  0.4839781433710 1.0
C      1  0.4913964360777  0.4247127420650  0.4775828977093 1.0
C      1  0.2297291552224  0.6250996694945  0.8720890674077 1.0
C      1  0.3832319991397  0.2512495345192  0.9236350590487 1.0
C      1  0.7064769757474  0.2401532199923  0.7464501543909 1.0
C      1  0.8149945105467  0.6072408713480  0.7408894038022 1.0
C      1  0.5478286035249  0.8399727603941  0.8446221655399 1.0
C      1  0.4693742593391  0.3387621291033  0.4554020331586 1.0
C      1  0.6527700573067  0.4079593225635  0.5571596124413 1.0
C      1  0.6398234764018  0.6215017368022  0.5523129606926 1.0
C      1  0.4520157314061  0.6688736180157  0.4651112820068 1.0
C      1  0.3361418717853  0.4891290536999  0.4633491443467 1.0
C      1  0.5568313020942  0.6446363960093  0.3547032743668 1.0
C      1  0.3628793666955  0.6230401419272  0.3364182206370 1.0
C      1  0.3172144901011  0.4384108579413  0.3080624525246 1.0
C      1  0.4925739574114  0.3204507369704  0.2998342524647 1.0
C      1  0.6506860486833  0.4640620298810  0.3320981087568 1.0
C      1  0.7151600182996  0.7658231460707  0.4590735973565 1.0
C      1  0.2808004636571  0.7819686402453  0.5019560474288 1.0
C      1  0.1314089794256  0.3753808398356  0.4902171117841 1.0
C      1  0.5174621819735  0.1062552804738  0.4520212362866 1.0
C      1  0.8669469335777  0.3842914927773  0.4338792384294 1.0
C      1  0.5438657201633  0.1616394343439  0.6006339543579 1.0
C      1  0.8393118019621  0.4276616637203  0.5929559043258 1.0
C      1  0.6548445413350  0.8212151300815  0.5990523933174 1.0
C      1  0.2712470136098  0.7410359497767  0.6493084432315 1.0
C      1  0.2137064597858  0.3714967721411  0.6223238286726 1.0
C      1  0.7221470618779  0.7294760434742  0.2924823756444 1.0
C      1  0.3501841584507  0.7998733287139  0.3249003852539 1.0
C      1  0.1433247806380  0.4583699269608  0.3244482035969 1.0
C      1  0.4646158236460  0.1357828561701  0.2782900191915 1.0
C      1  0.7770815025885  0.3413680401639  0.2777990879791 1.0
C      1  0.7195803358259  0.8045953259154  0.5390011429037 1.0
C      1  0.3223592746313  0.7957710341457  0.5854922602396 1.0
C      1  0.1537010343319  0.4275713810289  0.5729800016771 1.0
C      1  0.4720382029533  0.1451090976069  0.5286699497011 1.0
C      1  0.8139407045646  0.3576732848340  0.5154975974597 1.0
C      1  0.8117690104918  0.4467821233547  0.6834823832424 1.0
C      1  0.6253588517398  0.7772061789005  0.6900912276257 1.0
C      1  0.3014048235660  0.7159379680997  0.7421012507194 1.0
C      1  0.2678012101192  0.3636775198296  0.7021541234731 1.0
C      1  0.5502063940159  0.1900602188455  0.6945839920957 1.0
C      1  0.7804409967864  0.5441677886995  0.2938224348594 1.0
C      1  0.5515877141771  0.8133073878084  0.2903498273649 1.0
C      1  0.2111549064501  0.6470705769745  0.3319679952442 1.0
C      1  0.2683271016319  0.2958148481787  0.3224713418614 1.0
C      1  0.6247541646253  0.2360051939777  0.2887279045701 1.0
C      1  0.6101629404480  0.6717928985283  0.7957014251285 1.0
C      1  0.3955373241935  0.6326552295976  0.8213338205568 1.0
C      1  0.3762002724473  0.4183582566400  0.8476878521468 1.0
C      1  0.5569012868902  0.3217130695960  0.7700469501956 1.0
C      1  0.7069287327631  0.4809957484199  0.7827040023149 1.0
C      1  0.5497846051143  0.2704053279646  0.2295254255347 1.0
C      1  0.7074955032358  0.4885031530767  0.2479627828844 1.0
C      1  0.5725518345204  0.7458639230488  0.2222176225279 1.0
C      1  0.2925876124431  0.6530881664272  0.2658736324540 1.0
C      1  0.2747418025926  0.3638809155234  0.2482785762810 1.0
C      1  0.2173635880854  0.1951872746411  0.4737799213377 1.0
C      1  0.7119594794841  0.1363341005863  0.4310795928670 1.0
C      1  0.9336750493954  0.5775329314061  0.4359541944954 1.0
C      1  0.4833732188842  0.9089555867259  0.4431792983166 1.0
C      1  0.0180766179335  0.5801036245569  0.4709911119857 1.0
C      1  0.8301768072626  0.4846515479788  0.3486292282202 1.0
C      1  0.6133800150537  0.8348057003205  0.3619804222678 1.0
C      1  0.2215689271611  0.7041987982918  0.4033607936228 1.0
C      1  0.2244298108301  0.3407516620161  0.3984155907022 1.0
C      1  0.5761610646780  0.2042103004353  0.3746498963086 1.0
C      1  0.3089070041703  0.7609778883595  0.4070490554456 1.0
C      1  0.1382117683441  0.3932398745125  0.3967423600943 1.0
C      1  0.5043074930547  0.1252141020759  0.3569567098755 1.0
C      1  0.8286031161172  0.3876667267927  0.3444335705035 1.0
C      1  0.6993777620265  0.7881617146456  0.3644166943322 1.0
C      1  0.2560465000843  0.5109269820030  0.7595603517703 1.0
C      1  0.3951517339424  0.2505001269141  0.7423758697141 1.0
C      1  0.7075581228662  0.3240571453905  0.6879717215130 1.0
C      1  0.7347771080821  0.6373177972057  0.6780472418194 1.0
C      1  0.4652830695343  0.7406694732854  0.7262069710106 1.0
C      1  0.7164001774575  0.3806817293758  0.4834067671219 1.0
C      1  0.6921833442941  0.6678778880365  0.4707626693715 1.0
C      1  0.4858615405895  0.7096571990969  0.3822653317856 1.0
C      1  0.2580970952337  0.5151691315612  0.4232218584893 1.0
C      1  0.4074316756124  0.2625694833750  0.4248489383100 1.0
C      1  0.8219396728662  0.6841715948773  0.7006919130866 1.0
C      1  0.4892628405382  0.7911951914475  0.8014999763813 1.0
C      1  0.2127487590483  0.5536252420290  0.8299133361031 1.0
C      1  0.3797622973147  0.2487394016900  0.8316185339708 1.0
C      1  0.7849215184910  0.2611320939874  0.7118649532885 1.0
C      1  0.3766753334912  0.3354180421649  0.8846975356543 1.0
C      1  0.6156395847741  0.2315251193330  0.7561937799619 1.0
C      1  0.7966643043697  0.5166494361891  0.7527989046617 1.0
C      1  0.5982491063261  0.7689720231236  0.7969789069969 1.0
C      1  0.3041276104238  0.6705564204160  0.8297703686545 1.0
C      1  0.3655770926917  0.6004924539246  0.6757742858104 1.0
C      1  0.3606393752724  0.4036396330456  0.6880236743212 1.0
C      1  0.5432167317810  0.3343188441776  0.6666463160282 1.0
C      1  0.6692016547637  0.4771529700130  0.6308138067044 1.0
C      1  0.5766718203987  0.6547982199991  0.6315330204766 1.0
C      1  0.4188833620832  0.8992343586708  0.4958185822920 1.0
C      1  0.0787948941201  0.5584791601001  0.5221952267050 1.0
C      1  0.2916001333786  0.1593420311083  0.4829653857805 1.0
C      1  0.7604053461553  0.2037127605495  0.4404575836228 1.0
C      1  0.8675625883913  0.6418229524214  0.4315212695687 1.0
END
