TITL C-519-9595-59 -7.708 3375.00 -1350.66747191 0 0 163 (C1) n - 1
REM
REM Run started: at 2020.12.31 14:14:41 in /gpfs/home/chem/mssmkc/CARBON/AIRSS/Generating-Clusters/Str-Search/Higher-Symm/C100-200
REM VASP from code version vasp.5.4.4.18Apr17-6-g9f103f2a35 (build Oct 11 2019 16:45:47) gamma-only
REM
REM
REM
REM
REM ./C.cell (533062f00bc710175b3da973d35f2034)
REM AIRSS Version 0.9.1 bugfix July 2018 build 013d7b7c2542+ Fri, 06 Jul 2018 19:26:36 +0100
REM compiler GCC version 6.3.0
REM options -cpp -iprefix /gpfs/warwick/csc/orac/software/Core/GCCcore/6.3.0/bin/../lib/gcc/x86_64-pc-linux-gnu/6.3.0/ -mtune=generic -march=x86-64 -g -O0
REM seed -1770147276 719735515 -2009276609 -998825040 -636827356 -837303884 931965473 531711794 719211520 1181897640 -425770718 -878529008
REM
REM C.POTCAR (d86ddea03c3ceb6dc662c8ad6801f873)
REM 
CELL 1.54180   15.00000   15.00000   15.00000   90.00000   90.00000   90.00000
LATT -1
SFAC C  
C      1  0.7774292230203  0.4534535218461  0.7983226093442 1.0
C      1  0.2259636009441  0.7989430713477  0.5609944502470 1.0
C      1  0.7708320998582  0.5675783403340  0.1888134169209 1.0
C      1  0.2229368159778  0.1907156117563  0.4399528065873 1.0
C      1  0.2970115817942  0.3882513955267  0.2437563009473 1.0
C      1  0.7110881212538  0.2435316412504  0.6004035748174 1.0
C      1  0.3069742580236  0.6027726193501  0.7647310979401 1.0
C      1  0.6966217423659  0.7662711796714  0.3789848920703 1.0
C      1  0.2455353594745  0.3817690354627  0.3228609089522 1.0
C      1  0.7607246319262  0.3252730150446  0.6006424974032 1.0
C      1  0.2520164350132  0.6043525326825  0.6871069814513 1.0
C      1  0.7488418061467  0.6869050628553  0.3743034212893 1.0
C      1  0.1537899035653  0.2115230369766  0.4838478493774 1.0
C      1  0.8235556079760  0.5014815636635  0.8648652136929 1.0
C      1  0.1706321137823  0.8619488602606  0.5185468356012 1.0
C      1  0.8431406327090  0.5315657318097  0.2136401489063 1.0
C      1  0.5916453287366  0.8419315825565  0.6654660284808 1.0
C      1  0.3962303544486  0.6698206844917  0.1568622645278 1.0
C      1  0.5923662283129  0.1607440230749  0.3200927967244 1.0
C      1  0.4262185998265  0.3223993315469  0.8424710346226 1.0
C      1  0.1635250865807  0.4390348694028  0.7280245849617 1.0
C      1  0.8473686351052  0.7231775579324  0.5356992167003 1.0
C      1  0.1473211972383  0.5435039838973  0.2909631518825 1.0
C      1  0.8455315509623  0.2949851259012  0.4336239041077 1.0
C      1  0.4478614620701  0.3031231602009  0.4897429346468 1.0
C      1  0.5575894379073  0.4959133913727  0.6682180074469 1.0
C      1  0.4500326938492  0.6749777074625  0.4981514435825 1.0
C      1  0.5340989072901  0.4997812285395  0.2999460603144 1.0
C      1  0.4713183084505  0.4614594516293  0.4283045603070 1.0
C      1  0.4801564922712  0.3670802239325  0.4330384810235 1.0
C      1  0.5133439614791  0.4668997077077  0.5930717992318 1.0
C      1  0.4944073686501  0.5976336706629  0.5111244267228 1.0
C      1  0.6471679611594  0.2275671613080  0.2757525289600 1.0
C      1  0.3669130926737  0.2794190671758  0.7783577729454 1.0
C      1  0.6520815213939  0.7774557975051  0.7054951623734 1.0
C      1  0.3408756309318  0.7089506856009  0.2264357980601 1.0
C      1  0.4554496913053  0.7989218029708  0.3274366280629 1.0
C      1  0.5308066157262  0.3290109904105  0.1924155391112 1.0
C      1  0.4761221320023  0.1964573303856  0.6675948696568 1.0
C      1  0.5451551314121  0.6681225029284  0.7936538432746 1.0
C      1  0.2304163171469  0.5025778809904  0.6905909286094 1.0
C      1  0.7764567447521  0.6890068338173  0.4747194405748 1.0
C      1  0.2187182694011  0.4811868245040  0.3227757496184 1.0
C      1  0.7774044559073  0.3259534040497  0.4986048788950 1.0
C      1  0.4356647797758  0.8523250464612  0.5928182128787 1.0
C      1  0.5513029506382  0.5971578120248  0.1355430620220 1.0
C      1  0.4413568730263  0.1408632401212  0.4021083705282 1.0
C      1  0.5781203374233  0.4029448267611  0.8500446751362 1.0
C      1  0.3405203734341  0.6937640790334  0.3794096773170 1.0
C      1  0.6536737747307  0.3840566040168  0.2864388499233 1.0
C      1  0.3449318508821  0.2871660946077  0.6243867288858 1.0
C      1  0.6696402030540  0.6230961516795  0.6960387442539 1.0
C      1  0.6318438574054  0.1356548612784  0.4067560089261 1.0
C      1  0.3892402336864  0.4096929835580  0.8693947637331 1.0
C      1  0.6250571575891  0.8696549523496  0.5768824744092 1.0
C      1  0.3605679769704  0.5811292736884  0.1307424285131 1.0
C      1  0.8306856011423  0.7509426878666  0.6144736098688 1.0
C      1  0.1662179462415  0.6210785915087  0.2635097255178 1.0
C      1  0.8261585787885  0.2639709385922  0.3573762412818 1.0
C      1  0.1839894390335  0.3609359310270  0.7552532227620 1.0
C      1  0.3575086258588  0.6827477183635  0.4703259268657 1.0
C      1  0.6206762540737  0.4737750639818  0.3057657568678 1.0
C      1  0.3637053293185  0.3038384208622  0.5335420852292 1.0
C      1  0.6446350678568  0.5340843292142  0.6768107970691 1.0
C      1  0.2942980562320  0.4481554019318  0.6271156496087 1.0
C      1  0.7130043600262  0.6269643919551  0.5318358335529 1.0
C      1  0.2800402559984  0.5331625452156  0.3865456836812 1.0
C      1  0.7050843043082  0.3841360332171  0.4453840710472 1.0
C      1  0.6240117495009  0.6946269950779  0.7440259671477 1.0
C      1  0.3761911803724  0.7462255444501  0.3073853062189 1.0
C      1  0.6123647827055  0.3086522585466  0.2394440435484 1.0
C      1  0.3951074377769  0.2418940395363  0.6954519567092 1.0
C      1  0.4995551251363  0.8350331408182  0.6676760523752 1.0
C      1  0.4885096593036  0.6714783374442  0.1579801085721 1.0
C      1  0.4997497426282  0.1610189236385  0.3231360200654 1.0
C      1  0.5179803389053  0.3247228847881  0.8347273907035 1.0
C      1  0.2747315515266  0.3310850348470  0.3993928853251 1.0
C      1  0.7333061096441  0.4022434532253  0.6505451115832 1.0
C      1  0.2779360626976  0.6539333005052  0.6087055693561 1.0
C      1  0.7136493102729  0.6104091204899  0.3264372118670 1.0
C      1  0.4813493674587  0.1221891034157  0.4859453093701 1.0
C      1  0.5411196885896  0.4873211390161  0.8702232857870 1.0
C      1  0.4689263401582  0.8732902444139  0.5069820301849 1.0
C      1  0.5156453414520  0.5108178855220  0.1189195186561 1.0
C      1  0.7022570371292  0.4846347183207  0.4472849682236 1.0
C      1  0.2880212912179  0.4506478081256  0.5275111238668 1.0
C      1  0.7122635972865  0.5271315494628  0.5277694087480 1.0
C      1  0.2838129861515  0.5320423456690  0.4847793930005 1.0
C      1  0.4192295384710  0.5086657591351  0.1116170846622 1.0
C      1  0.5782253943517  0.1151763674322  0.4825703218926 1.0
C      1  0.4453293846591  0.4853835380473  0.8835784769294 1.0
C      1  0.5652526543781  0.8851877068944  0.5042719388073 1.0
C      1  0.4533101872975  0.7029811619478  0.7700541748552 1.0
C      1  0.5447643641546  0.7736956027130  0.2871095198564 1.0
C      1  0.4427693063206  0.2912821136455  0.2235875975568 1.0
C      1  0.5669490486677  0.2252470208772  0.7013593073046 1.0
C      1  0.3723307714638  0.4822737074318  0.6844186963830 1.0
C      1  0.6366053451958  0.6873784896692  0.5025333219670 1.0
C      1  0.3597522166721  0.5279659178739  0.3217176594626 1.0
C      1  0.6345339217739  0.3189107198314  0.4832979003140 1.0
C      1  0.0894854532781  0.6091961077398  0.5245910780733 1.0
C      1  0.9185815782696  0.5015785837208  0.4440590933296 1.0
C      1  0.0814251402058  0.4380972267788  0.5369805137151 1.0
C      1  0.9082037126190  0.5158135694641  0.6147320732351 1.0
C      1  0.5446051943577  0.3143376963154  0.4760219451488 1.0
C      1  0.4611098777239  0.4799782030864  0.6712739863278 1.0
C      1  0.5480774827722  0.6738468859037  0.5031295810731 1.0
C      1  0.4544771588089  0.5050942865466  0.3405806640200 1.0
C      1  0.7060665282303  0.4834439708053  0.6147991027364 1.0
C      1  0.2999509608627  0.6193454754101  0.5252842828847 1.0
C      1  0.6846539062962  0.5293700034850  0.3616246720255 1.0
C      1  0.2993057810521  0.3640757530662  0.4833384958688 1.0
C      1  0.7043408382403  0.3481625720783  0.3541515769431 1.0
C      1  0.2972524686500  0.3570417849655  0.6648193735533 1.0
C      1  0.7158347407275  0.6631177008407  0.6240817043922 1.0
C      1  0.3030982685612  0.6145278978843  0.3377972090252 1.0
C      1  0.6337498924998  0.1978702335318  0.6361497963908 1.0
C      1  0.3878405173166  0.6388414747919  0.8027862042918 1.0
C      1  0.6143295208338  0.8056540565091  0.3477347084537 1.0
C      1  0.3739386523395  0.3546899924723  0.1974039912252 1.0
C      1  0.4912572858272  0.1462646744303  0.5879649408805 1.0
C      1  0.5319707473671  0.5887773541434  0.8449579488857 1.0
C      1  0.4729936486768  0.8498142241903  0.4051018554032 1.0
C      1  0.5119810259359  0.4081090835057  0.1427333881075 1.0
C      1  0.6999656529664  0.6136674519671  0.2258800386072 1.0
C      1  0.2913472418668  0.2310865665999  0.3928418723370 1.0
C      1  0.7183411515439  0.3999742630057  0.7497982062869 1.0
C      1  0.2928846944983  0.7534498912971  0.6080593204085 1.0
C      1  0.6426869343668  0.3616389260644  0.7899702355771 1.0
C      1  0.3719511337100  0.7934998215305  0.6381655277363 1.0
C      1  0.6191709561830  0.6425937655043  0.1891110418469 1.0
C      1  0.3720676812347  0.1960168682786  0.3600828993398 1.0
C      1  0.9182721238026  0.4986902610743  0.3573885228188 1.0
C      1  0.0813163148125  0.3513788063650  0.5334889323609 1.0
C      1  0.8970521847378  0.5154827538970  0.6980979018051 1.0
C      1  0.1015945873789  0.6922974724134  0.5200986788030 1.0
C      1  0.7009318638959  0.1947665307210  0.4219598494891 1.0
C      1  0.3148883401050  0.4248990887029  0.8173317487659 1.0
C      1  0.6982377220835  0.8169897972020  0.5579940888714 1.0
C      1  0.2900258461948  0.5624362879561  0.1866121992851 1.0
C      1  0.2651367013757  0.6394519200120  0.2458768978467 1.0
C      1  0.7238783589430  0.2503677668128  0.3419488193174 1.0
C      1  0.2877133621246  0.3453415591104  0.7633065444349 1.0
C      1  0.7284182769987  0.7613458364472  0.6359106275373 1.0
C      1  0.7028556943787  0.7630659129162  0.4779248337824 1.0
C      1  0.2916346455578  0.4863889855200  0.2470582081429 1.0
C      1  0.7079754273478  0.2486685879827  0.5019419970058 1.0
C      1  0.3064521045057  0.5038034283005  0.7620631299629 1.0
C      1  0.5539681917366  0.7113358710803  0.2174528285953 1.0
C      1  0.4343357730289  0.2221004685665  0.2872808164207 1.0
C      1  0.5798437450692  0.2877591260328  0.7700764520134 1.0
C      1  0.4385131859716  0.7717627420182  0.7079242212587 1.0
C      1  0.8576329177297  0.5018349512822  0.7768877350877 1.0
C      1  0.1412100041670  0.7721797200274  0.5252009505582 1.0
C      1  0.8998074280799  0.5063207998715  0.2751026711886 1.0
C      1  0.0978357232204  0.2698938610790  0.5170880352459 1.0
C      1  0.4164611331927  0.4160594665763  0.1389187372573 1.0
C      1  0.5865851429722  0.1418136866445  0.5752005581932 1.0
C      1  0.4372021067846  0.5780037569150  0.8562659741760 1.0
C      1  0.5687974848238  0.8592360133561  0.4113602354005 1.0
C      1  0.0866775386183  0.5223238576081  0.5313036796587 1.0
C      1  0.9109711766332  0.5100878247094  0.5277969463387 1.0
C      1  0.4946349342711  0.5030014789610  0.5051443480950 1.0
END
