TITL C-5119-875-38 -8.34 3375.00 -1489.20916014 0 0 180 (C4) n - 1
REM
REM Run started: at 2020.12.26 21:18:50 in /gpfs/home/chem/mssmkc/CARBON/AIRSS/Generating-Clusters/Str-Search/Higher-Symm/Only-C180
REM VASP from code version vasp.5.4.4.18Apr17-6-g9f103f2a35 (build Oct 11 2019 16:45:47) gamma-only
REM
REM
REM
REM
REM ./C.cell (73b75853f6e4503fb4b57bac71549d7d)
REM AIRSS Version 0.9.1 bugfix July 2018 build 013d7b7c2542+ Fri, 06 Jul 2018 19:26:36 +0100
REM compiler GCC version 6.3.0
REM options -cpp -iprefix /gpfs/warwick/csc/orac/software/Core/GCCcore/6.3.0/bin/../lib/gcc/x86_64-pc-linux-gnu/6.3.0/ -mtune=generic -march=x86-64 -g -O0
REM seed -81880504 -1376836988 785283405 -1453631143 494167642 -448874996 248813643 -908870863 1916132163 1953374497 -1227531957 -378849981
REM
REM C.POTCAR (d86ddea03c3ceb6dc662c8ad6801f873)
REM 
CELL 1.54180   15.00000   15.00000   15.00000   90.00000   90.00000   90.00000
LATT -1
SFAC C  
C      1  0.8345475516114  0.4487625621408  0.3452989010846 1.0
C      1  0.8345365048373  0.6546987239258  0.4487576997571 1.0
C      1  0.8345480485321  0.5512362271335  0.6546960532195 1.0
C      1  0.8345564744489  0.3453025422719  0.5512337772153 1.0
C      1  0.6069804282961  0.4190062591185  0.4063129612951 1.0
C      1  0.6069610335166  0.5936642853455  0.4190374114293 1.0
C      1  0.6069697355949  0.5809539006434  0.5936934259666 1.0
C      1  0.6069880055385  0.4062855412909  0.5809831292394 1.0
C      1  0.3939305863036  0.8052204442924  0.7126995742818 1.0
C      1  0.3939287593429  0.2872939803326  0.8052239401819 1.0
C      1  0.3939282574520  0.1947798457977  0.2872961954209 1.0
C      1  0.3939307137914  0.7126958889310  0.1947827871628 1.0
C      1  0.6435071917101  0.1622024799063  0.5315822097171 1.0
C      1  0.6435153230672  0.4684187150274  0.1621457131156 1.0
C      1  0.6435200059011  0.8378733627000  0.4684195921721 1.0
C      1  0.6435117545913  0.5315820073859  0.8378189285761 1.0
C      1  0.5857887786964  0.6792386225708  0.3541164013411 1.0
C      1  0.5857852205620  0.6458882431966  0.6792495642923 1.0
C      1  0.5857936155247  0.3207323971566  0.6459014910079 1.0
C      1  0.5857977418229  0.3541040570295  0.3207428630107 1.0
C      1  0.2740797209044  0.1843100861847  0.3510498529373 1.0
C      1  0.2740783156561  0.6489481035626  0.1843126406663 1.0
C      1  0.2740818159470  0.8156866815472  0.6489503055564 1.0
C      1  0.2740818736662  0.3510483900819  0.8156876209302 1.0
C      1  0.4944982824576  0.8462569537525  0.5257496071694 1.0
C      1  0.4944963811249  0.4742408666195  0.8462693564729 1.0
C      1  0.4944934095567  0.1537308005689  0.4742394775884 1.0
C      1  0.4944964242255  0.5257494398627  0.1537411071062 1.0
C      1  0.3481657785992  0.7882293383432  0.3761166592760 1.0
C      1  0.3481638856548  0.6238846498140  0.7882330336979 1.0
C      1  0.3481602798964  0.2117659755408  0.6238864225200 1.0
C      1  0.3481605431952  0.3761150659264  0.2117656417923 1.0
C      1  0.4240809751216  0.3827251825285  0.3424390105075 1.0
C      1  0.4240859755969  0.6575615451520  0.3827269848735 1.0
C      1  0.4240556222821  0.6172731240866  0.6575641175921 1.0
C      1  0.4240494015502  0.3424384435145  0.6172769510381 1.0
C      1  0.5395219645234  0.7639661353843  0.5697027937616 1.0
C      1  0.5394908140989  0.4302822019638  0.7639723027969 1.0
C      1  0.5394788836023  0.2360284649002  0.4302807347315 1.0
C      1  0.5395114404898  0.5697036597906  0.2360336805656 1.0
C      1  0.3285909968591  0.1846525577980  0.5336970001638 1.0
C      1  0.3285896857402  0.4663028454942  0.1846549721877 1.0
C      1  0.3285929709590  0.8153412252910  0.4663061901675 1.0
C      1  0.3285939203692  0.5336933024154  0.8153454964723 1.0
C      1  0.1938591741192  0.5489219004207  0.7091687816416 1.0
C      1  0.1938558670407  0.2908281252859  0.5489235758180 1.0
C      1  0.1938521595493  0.4510753025046  0.2908297143034 1.0
C      1  0.1938545616011  0.7091676813537  0.4510790773912 1.0
C      1  0.1228689836725  0.4317050171534  0.4912540761940 1.0
C      1  0.1228675916256  0.5087463031042  0.4317075917170 1.0
C      1  0.1228683142694  0.5682914744162  0.5087490033744 1.0
C      1  0.1228701308806  0.4912509416559  0.5682945010654 1.0
C      1  0.5448572236173  0.6698443501202  0.2555439133841 1.0
C      1  0.5448580263706  0.7444623530001  0.6698467297613 1.0
C      1  0.5448527104326  0.3301422609104  0.7444667171902 1.0
C      1  0.5448503980610  0.2555389569905  0.3301428147067 1.0
C      1  0.3654937439529  0.4968716541030  0.4314920110651 1.0
C      1  0.3654846582733  0.5685141741871  0.4968661879891 1.0
C      1  0.3654963061069  0.5031369170474  0.5685000503926 1.0
C      1  0.3655043574361  0.4315043999958  0.5031316116379 1.0
C      1  0.2217379599331  0.7717047057326  0.5880194725226 1.0
C      1  0.2217387330527  0.4119811385131  0.7717056077041 1.0
C      1  0.2217367440961  0.2282917227737  0.4119817173619 1.0
C      1  0.2217370452563  0.5880174299277  0.2282967278434 1.0
C      1  0.5003232286777  0.5040916766849  0.3089660067323 1.0
C      1  0.5003277110319  0.6910265453426  0.5041006883827 1.0
C      1  0.5003000792337  0.4958981640441  0.6910385866788 1.0
C      1  0.5002949280115  0.3089548388087  0.4959076121854 1.0
C      1  0.6444599167113  0.3181346274690  0.8816052210652 1.0
C      1  0.6444653437790  0.1184065808562  0.3181385090422 1.0
C      1  0.6444536190058  0.6818666743595  0.1184002958656 1.0
C      1  0.6444504451832  0.8816132274735  0.6818645305452 1.0
C      1  0.3033613670584  0.7270451668142  0.2298648571580 1.0
C      1  0.3033600668357  0.7701370171205  0.7270506462563 1.0
C      1  0.3033592032630  0.2729487379846  0.7701383275945 1.0
C      1  0.3033592794936  0.2298628231154  0.2729514664558 1.0
C      1  0.7446223723984  0.3391116992705  0.6873767402217 1.0
C      1  0.7446246015972  0.3126203534927  0.3391067137049 1.0
C      1  0.7445992825313  0.6608843442132  0.3126241838800 1.0
C      1  0.7445969719301  0.6873729711130  0.6608825126097 1.0
C      1  0.6033733517682  0.1849549527999  0.2912870646547 1.0
C      1  0.6033745005921  0.7087159976045  0.1849568335149 1.0
C      1  0.6033748452349  0.8150545065556  0.7087102111887 1.0
C      1  0.6033783097795  0.2912900811103  0.8150548977732 1.0
C      1  0.7851394224998  0.7739979822590  0.4181716957494 1.0
C      1  0.7851494158865  0.5818361198653  0.7739992225930 1.0
C      1  0.7851544893595  0.2260028345205  0.5818194592433 1.0
C      1  0.7851459671387  0.4181883473700  0.2260019908173 1.0
C      1  0.5741026497828  0.6260600099526  0.5093188308191 1.0
C      1  0.5742033444445  0.4906620120708  0.6262045938144 1.0
C      1  0.5742474802537  0.3737390564944  0.4906933741967 1.0
C      1  0.5741463605437  0.5092864155007  0.3738831362619 1.0
C      1  0.1548905257835  0.5218167472036  0.3468257046830 1.0
C      1  0.1548909258223  0.6531744940532  0.5218184735489 1.0
C      1  0.1548935340134  0.4781823098205  0.6531768890044 1.0
C      1  0.1548919068415  0.3468228131754  0.4781828732628 1.0
C      1  0.4135340277452  0.4761157619335  0.3560076395965 1.0
C      1  0.4135207432702  0.6440002614162  0.4761193545329 1.0
C      1  0.4135410889504  0.5238858906915  0.6439861866599 1.0
C      1  0.4135536592799  0.3560207503314  0.5238910089133 1.0
C      1  0.2432910501750  0.4951236972614  0.2213346653393 1.0
C      1  0.2432931727948  0.7786648428678  0.4951267153319 1.0
C      1  0.2432957270372  0.5048738129571  0.7786673213096 1.0
C      1  0.2432928544476  0.2213306754833  0.5048754576322 1.0
C      1  0.3623860141136  0.8462411386561  0.6252395678919 1.0
C      1  0.3623847273835  0.3747558769658  0.8462438152202 1.0
C      1  0.3623848395872  0.1537602996633  0.3747595539208 1.0
C      1  0.3623849428560  0.6252348847685  0.1537636868398 1.0
C      1  0.6971594710982  0.5428361933223  0.5584029373860 1.0
C      1  0.6971677260680  0.4415881065532  0.5428456821043 1.0
C      1  0.6971644008602  0.4571499426903  0.4415945603330 1.0
C      1  0.6971555470652  0.5583958470244  0.4571600096134 1.0
C      1  0.3946344062163  0.5367670451418  0.1551933850272 1.0
C      1  0.3946358801418  0.8448036863347  0.5367697041511 1.0
C      1  0.3946345582777  0.4632273222646  0.8448128295231 1.0
C      1  0.3946327168704  0.1551834412347  0.4632305114782 1.0
C      1  0.6736449401739  0.2766908794751  0.6597978243704 1.0
C      1  0.6736428966967  0.3402181023908  0.2766821237332 1.0
C      1  0.6736266646269  0.7233048923078  0.3402280990213 1.0
C      1  0.6736284102198  0.6597852028131  0.7232984661150 1.0
C      1  0.6862162309986  0.9052598517221  0.5287138674837 1.0
C      1  0.6862108515656  0.4712926003100  0.9052100993428 1.0
C      1  0.6862046318034  0.0948131167959  0.4712929079246 1.0
C      1  0.6862075736655  0.5287190389455  0.0947622381186 1.0
C      1  0.8040062565340  0.4680653113272  0.4338998665621 1.0
C      1  0.8040019360110  0.5660973719435  0.4680639285055 1.0
C      1  0.8040027368863  0.5319353313402  0.5660942387144 1.0
C      1  0.8040068798903  0.4339033655371  0.5319339389434 1.0
C      1  0.4591045394287  0.7434785453115  0.7214477220640 1.0
C      1  0.4591038675295  0.2785369947192  0.7434858916229 1.0
C      1  0.4590983991384  0.2565270040032  0.2785411026442 1.0
C      1  0.4591016011212  0.7214433402356  0.2565321119428 1.0
C      1  0.8185505028239  0.6352442757547  0.6949376588050 1.0
C      1  0.8185709685038  0.3050551395139  0.6352346443399 1.0
C      1  0.8185729828246  0.3647629037625  0.3050510698707 1.0
C      1  0.8185518090931  0.6949404217151  0.3647520604869 1.0
C      1  0.1809346796758  0.6092895135619  0.3114570478266 1.0
C      1  0.1809349604848  0.6885436617289  0.6092917789771 1.0
C      1  0.1809354653870  0.3907090793911  0.6885453084899 1.0
C      1  0.1809350103922  0.3114539841259  0.3907096595478 1.0
C      1  0.2789063594441  0.3183367904630  0.2540660330643 1.0
C      1  0.2789076437783  0.7459331601103  0.3183379434198 1.0
C      1  0.2789069079573  0.6816628437208  0.7459338816809 1.0
C      1  0.2789064554516  0.2540668133491  0.6816634318527 1.0
C      1  0.2077951439925  0.3098812389925  0.6413425531677 1.0
C      1  0.2077949464993  0.3586560236762  0.3098818983970 1.0
C      1  0.2077969292983  0.6901174448326  0.3586584047460 1.0
C      1  0.2077970978423  0.6413420770556  0.6901177754659 1.0
C      1  0.6985097022626  0.6059372203331  0.7975766671713 1.0
C      1  0.6985175373901  0.2024246617814  0.6059361609474 1.0
C      1  0.6985134885372  0.3940654889255  0.2024038763812 1.0
C      1  0.6985046323140  0.7975956143468  0.3940641645889 1.0
C      1  0.7992123577478  0.4963735806628  0.7315780393976 1.0
C      1  0.7992146643869  0.2684210942301  0.4963603386899 1.0
C      1  0.7992203327944  0.5036373382276  0.2684026240854 1.0
C      1  0.7992176412171  0.7315946526541  0.5036247744023 1.0
C      1  0.5489473271359  0.4593410420952  0.1242182331598 1.0
C      1  0.5489465870330  0.8757989366766  0.4593491719864 1.0
C      1  0.5489523031665  0.5406571359968  0.8757653494577 1.0
C      1  0.5489517013033  0.1242546148701  0.5406638216877 1.0
C      1  0.4370846683541  0.6516689953768  0.7539840077748 1.0
C      1  0.4370801825948  0.2460191078375  0.6516717886774 1.0
C      1  0.4370819062031  0.3483333645240  0.2460092007580 1.0
C      1  0.4370894910358  0.7539943360299  0.3483350776107 1.0
C      1  0.6390730408263  0.5370755374838  0.2432663820907 1.0
C      1  0.6390914574019  0.7567813378975  0.5370925378076 1.0
C      1  0.6390448513643  0.4629430584509  0.7566521239473 1.0
C      1  0.6390260570025  0.2433949579612  0.4629586956377 1.0
C      1  0.5103388999357  0.5946820457692  0.7215761745613 1.0
C      1  0.5103431900082  0.2784054117742  0.5946896557077 1.0
C      1  0.5103409732411  0.4053110828514  0.2784412261243 1.0
C      1  0.5103376699515  0.7215403944436  0.4053179246744 1.0
C      1  0.6845897956314  0.6105190868530  0.0795303863984 1.0
C      1  0.6845840084446  0.9204862973320  0.6105191766497 1.0
C      1  0.6846045130624  0.3894982606361  0.9204455799169 1.0
C      1  0.6846104518382  0.0795726111807  0.3894997656219 1.0
C      1  0.7292676729079  0.5732469077501  0.2723415225235 1.0
C      1  0.7292649060074  0.7276642894245  0.5732357152928 1.0
C      1  0.7292967972549  0.4267472428982  0.7276494159067 1.0
C      1  0.7293017286161  0.2723564301959  0.4267336376843 1.0
END
