TITL C-51802-8144-4 -2.795 3375.00 -472.35848697 0 0 58 (C1) n - 1
REM
REM Run started: at 2020.11.22 22:46:53 in /rds/project/t2_vol4/rds-t2-cs072/BORA/CARBON/AIRSS/Generating-Clusters/Str-Search/Higher-Symm
REM VASP from code version vasp.5.4.4.18Apr17-6-g9f103f2a35 (build Oct 11 2019 16:45:47) gamma-only
REM
REM
REM
REM
REM ./C.cell (e5ae0387ce4d49c7c0135a1433873289)
REM AIRSS Version 0.9.1 bugfix July 2018 build 013d7b7c2542+ Fri, 06 Jul 2018 19:26:36 +0100
REM compiler GCC version 4.8.5 20150623 (Red Hat 4.8.5-39)
REM options -cpp -mtune=generic -march=x86-64 -g -O0
REM seed 920807423 364765229 1260954494 -1207984459 1698003523 573113049 -2019958050 -28855602 -134875736 2009848951 1436727571 1194340136
REM
REM C.POTCAR (d86ddea03c3ceb6dc662c8ad6801f873)
REM 
CELL 1.54180   15.00000   15.00000   15.00000   90.00000   90.00000   90.00000
LATT -1
SFAC C  
C      1  0.5093549931527  0.6432115915127  0.2905633666271 1.0
C      1  0.6747368926601  0.6523527266288  0.4069370408436 1.0
C      1  0.6351581915073  0.6225118334018  0.6889946512541 1.0
C      1  0.3777578747593  0.6728898968707  0.6894587918782 1.0
C      1  0.2880514975782  0.6281028548174  0.4106038266048 1.0
C      1  0.4715535011350  0.3383235331921  0.3322530197165 1.0
C      1  0.3167529317791  0.3404412212306  0.4038435506581 1.0
C      1  0.4293315884566  0.3915344454406  0.6101299632069 1.0
C      1  0.5832753800184  0.3541111974355  0.6813705059826 1.0
C      1  0.7269437759438  0.3903626614342  0.4218783173468 1.0
C      1  0.6699204228967  0.6686815159296  0.4996961465710 1.0
C      1  0.5418944210860  0.6236358461786  0.6841381817500 1.0
C      1  0.3467930584438  0.6792311430946  0.6015769004190 1.0
C      1  0.3673333038227  0.6647640299408  0.3880439469412 1.0
C      1  0.5822968691641  0.6267472424818  0.3592572856779 1.0
C      1  0.3354260165105  0.3352024537555  0.4952058021596 1.0
C      1  0.4927971865487  0.3886068931423  0.6870219750770 1.0
C      1  0.6332711756866  0.3315478491402  0.6027432279521 1.0
C      1  0.6537684518983  0.3887400291371  0.3736569303609 1.0
C      1  0.3779388969135  0.3448525972817  0.3284945034795 1.0
C      1  0.7060586309990  0.5613265857761  0.3968700206328 1.0
C      1  0.6889874929449  0.5702258439248  0.6353392799892 1.0
C      1  0.3897503424768  0.5797211116723  0.7042922074680 1.0
C      1  0.2773064120860  0.5735020480072  0.4864796903090 1.0
C      1  0.4472302312931  0.5750775089394  0.2677011565608 1.0
C      1  0.2881225639246  0.4330833805658  0.3834089219829 1.0
C      1  0.3399796760352  0.4418226064510  0.6129954879747 1.0
C      1  0.6110688181792  0.4420157274703  0.7106067226662 1.0
C      1  0.7366990885670  0.4330749118648  0.5057850852745 1.0
C      1  0.5096793540431  0.4240132450673  0.2981822600276 1.0
C      1  0.5159311262068  0.6566812626473  0.5981135509328 1.0
C      1  0.4318160319789  0.6869904097384  0.5530422468606 1.0
C      1  0.4392609248246  0.6688204310061  0.4554326643782 1.0
C      1  0.5277438259789  0.6390585665339  0.4437333429315 1.0
C      1  0.5747540027921  0.6770822942118  0.5218072781887 1.0
C      1  0.4859033917528  0.4510706555773  0.5461005928771 1.0
C      1  0.5873653997131  0.3001528719844  0.5275650251967 1.0
C      1  0.5867553592554  0.3569241418010  0.4454312483989 1.0
C      1  0.5109461775363  0.3049995526802  0.4097855600711 1.0
C      1  0.4154649911430  0.3116351383715  0.5443115596923 1.0
C      1  0.2970214429228  0.4157900558503  0.5340360528242 1.0
C      1  0.3527164088557  0.4350514176443  0.3073685289360 1.0
C      1  0.6004655308058  0.4491601961005  0.3172741916630 1.0
C      1  0.6997281662165  0.4052603170069  0.5888139196761 1.0
C      1  0.5192143833902  0.4718984510121  0.7325480044042 1.0
C      1  0.7174242180104  0.5963180219449  0.5473724573505 1.0
C      1  0.6302025531642  0.5355929325129  0.3447131501780 1.0
C      1  0.4165382264157  0.6566379575561  0.3047676414415 1.0
C      1  0.2980607177231  0.5966974357626  0.5767752025686 1.0
C      1  0.4807108906759  0.5570093139677  0.7271714973962 1.0
C      1  0.3336063572973  0.5315395019677  0.6399674080183 1.0
C      1  0.4344881482787  0.4831210718935  0.2810335940710 1.0
C      1  0.7366945170888  0.5281951138437  0.4843048810646 1.0
C      1  0.2719346525407  0.4789642853401  0.4654588486623 1.0
C      1  0.6788875576368  0.4747702865199  0.6540168032911 1.0
C      1  0.4944884852719  0.7558188744883  0.4925867125525 1.0
C      1  0.4933076105707  0.2767718971068  0.5021173869644 1.0
C      1  0.5457749614430  0.4391507131443  0.4889555820166 1.0
END
