TITL C-5119-875-20 -8.66 3375.00 -1485.04728715 0 0 180 (C1) n - 1
REM
REM Run started: at 2020.12.26 05:28:52 in /gpfs/home/chem/mssmkc/CARBON/AIRSS/Generating-Clusters/Str-Search/Higher-Symm/Only-C180
REM VASP from code version vasp.5.4.4.18Apr17-6-g9f103f2a35 (build Oct 11 2019 16:45:47) gamma-only
REM
REM
REM
REM
REM ./C.cell (73b75853f6e4503fb4b57bac71549d7d)
REM AIRSS Version 0.9.1 bugfix July 2018 build 013d7b7c2542+ Fri, 06 Jul 2018 19:26:36 +0100
REM compiler GCC version 6.3.0
REM options -cpp -iprefix /gpfs/warwick/csc/orac/software/Core/GCCcore/6.3.0/bin/../lib/gcc/x86_64-pc-linux-gnu/6.3.0/ -mtune=generic -march=x86-64 -g -O0
REM seed 638266323 1218621381 -1457377245 -510176283 1959343558 1039127703 482978866 347863644 -1721451209 -673042930 385980368 -895815778
REM
REM C.POTCAR (d86ddea03c3ceb6dc662c8ad6801f873)
REM 
CELL 1.54180   15.00000   15.00000   15.00000   90.00000   90.00000   90.00000
LATT -1
SFAC C  
C      1  0.2755752028696  0.3613725149461  0.8276776067815 1.0
C      1  0.3716282157073  0.2134692371552  0.6497524067545 1.0
C      1  0.7409553058216  0.5009076302878  0.4673067961043 1.0
C      1  0.5252483742101  0.5674558638911  0.8278840197626 1.0
C      1  0.4995447807587  0.8040093600226  0.6126724151472 1.0
C      1  0.6706061330322  0.5940585444978  0.6052534940232 1.0
C      1  0.7900906069663  0.7972357956129  0.5306115281629 1.0
C      1  0.6747341503932  0.8145250860502  0.4478113613621 1.0
C      1  0.2377520654316  0.7516257340289  0.6920127939312 1.0
C      1  0.2496306711369  0.5350230466872  0.3655069876149 1.0
C      1  0.2084163811130  0.4728048085509  0.5797497634263 1.0
C      1  0.6803585613388  0.4285997680381  0.2672943654420 1.0
C      1  0.7757838690636  0.3567013200667  0.3949377659146 1.0
C      1  0.0003048484535  0.5463324952047  0.3263953861951 1.0
C      1  0.7673028243140  0.6896714752660  0.8132223451617 1.0
C      1  0.4239113698413  0.5450579192696  0.5533136414178 1.0
C      1  0.9292025107600  0.5685419581393  0.3659760475618 1.0
C      1  0.6901228799665  0.5119494176194  0.5561983424755 1.0
C      1  0.5787441265004  0.7683267781037  0.6677073522726 1.0
C      1  0.6056258991129  0.3101925393140  0.3576113070680 1.0
C      1  0.6487606743058  0.6082722893055  0.6920542829855 1.0
C      1  0.1725887896087  0.5158612436516  0.3096731236787 1.0
C      1  0.4998709997370  0.2066182740611  0.5515076174534 1.0
C      1  0.6995942491795  0.3162484076299  0.7365177170143 1.0
C      1  0.6976118467178  0.8266955072157  0.5458254950637 1.0
C      1  0.4283722936235  0.8776579194558  0.4714620280022 1.0
C      1  0.2830050022388  0.8233030872493  0.7280074853011 1.0
C      1  0.4750187255264  0.1767176229236  0.3865679167321 1.0
C      1  0.7426696735710  0.6723040775237  0.4913147262560 1.0
C      1  0.7477730753884  0.3604690921577  0.1440317672369 1.0
C      1  0.3380590845362  0.7679874989171  0.1910440572228 1.0
C      1  0.1811503879513  0.2831907548279  0.5230804502810 1.0
C      1  0.5245887789743  0.6584286334723  0.7872463801208 1.0
C      1  0.5631491947826  0.5228340243970  0.1333163163448 1.0
C      1  0.3468281058858  0.4099258235841  0.1511410356259 1.0
C      1  0.2247417333759  0.5294483585701  0.7257615946898 1.0
C      1  0.5307665537480  0.1018714240576  0.3453090230278 1.0
C      1  0.7787628519718  0.7280794318490  0.3447292216700 1.0
C      1  0.6235801772675  0.1712634258526  0.6654189794800 1.0
C      1  0.0435325929252  0.4702143850511  0.5639950902679 1.0
C      1  0.4368033147074  0.8038859143789  0.7670911925326 1.0
C      1  0.4517440912535  0.1895442075685  0.1696851872659 1.0
C      1  0.4732582212059  0.4165292474625  0.3468463544932 1.0
C      1  0.5066227213725  0.2832232700168  0.8271270565664 1.0
C      1  0.9311803939096  0.5493287348908  0.5238175816924 1.0
C      1  0.2632045162600  0.5226454415051  0.6378755235179 1.0
C      1  0.3706392494603  0.3629434301281  0.8424830217748 1.0
C      1  0.8471457723367  0.2423540498752  0.5834277134662 1.0
C      1  0.3494435294493  0.6428899779623  0.6593443657520 1.0
C      1  0.5857617526158  0.6786054126540  0.7176174714025 1.0
C      1  0.4445084822343  0.7126068712682  0.7992508332110 1.0
C      1  0.7631618504033  0.6343348153271  0.3433261988553 1.0
C      1  0.3935120743814  0.3542719261561  0.7360076661982 1.0
C      1  0.4360032027657  0.6757023316287  0.2763984652260 1.0
C      1  0.7944420818615  0.2991229330944  0.1775511422317 1.0
C      1  0.3585653050187  0.5694078030588  0.8277297977347 1.0
C      1  0.3480295703951  0.2522908451926  0.7377382470992 1.0
C      1  0.5208718714852  0.3761784739864  0.8604977667442 1.0
C      1  0.5837580760932  0.4710061902915  0.4567317209131 1.0
C      1  0.3968971693609  0.6422722511378  0.3605795492967 1.0
C      1  0.8344246833000  0.4885966318547  0.6641288740711 1.0
C      1  0.0354157662896  0.5698428438944  0.5290263921639 1.0
C      1  0.8265171310242  0.2797437983229  0.2592208515993 1.0
C      1  0.5010023783405  0.8244193482500  0.6996660753618 1.0
C      1  0.6761110633356  0.5095340773167  0.3113558183907 1.0
C      1  0.3451671939695  0.8254390358683  0.2510657605387 1.0
C      1  0.2758011727996  0.5258432471470  0.8078572786855 1.0
C      1  0.6552941671522  0.5157010433437  0.1427878330594 1.0
C      1  0.8443360913958  0.3875491605853  0.6614616289031 1.0
C      1  0.2180403811629  0.4925900467787  0.2147355537770 1.0
C      1  0.4771194556604  0.8057788296084  0.5219918481783 1.0
C      1  0.2257670570036  0.2449429159788  0.4460252521295 1.0
C      1  0.1672887342347  0.6295951549180  0.4706267614029 1.0
C      1  0.5143487349328  0.7428691194682  0.4633882387964 1.0
C      1  0.8094159608537  0.7089363989507  0.5676582736548 1.0
C      1  0.7682738571174  0.3767491473010  0.7202121095066 1.0
C      1  0.2380824305474  0.4353687903216  0.5012337393101 1.0
C      1  0.3312193141811  0.3215108476576  0.1908009147008 1.0
C      1  0.5692610757137  0.3862480001159  0.6750919411879 1.0
C      1  0.8693024221103  0.3311172411620  0.5911091517844 1.0
C      1  0.0943474480256  0.5779545531941  0.4447633950051 1.0
C      1  0.4931105492308  0.4396728406697  0.4419025690368 1.0
C      1  0.3536248314231  0.8456240188405  0.7691838656159 1.0
C      1  0.5633359027010  0.2266715360075  0.7803303686229 1.0
C      1  0.5947441723929  0.4220722438851  0.8262046754626 1.0
C      1  0.7428604430696  0.6107111203875  0.8175098687207 1.0
C      1  0.7967153547791  0.1759502540712  0.5712926120909 1.0
C      1  0.1442077019771  0.3857088891255  0.6876984497114 1.0
C      1  0.6513136160967  0.6523785624125  0.5300960388078 1.0
C      1  0.4342665506912  0.6244028765873  0.1294623623348 1.0
C      1  0.2491695755646  0.6144380485786  0.4210408207089 1.0
C      1  0.1819668226518  0.4263062025104  0.2645172145282 1.0
C      1  0.1190001114508  0.4383098631725  0.6065908368135 1.0
C      1  0.8863569383436  0.3930018490318  0.5148101170454 1.0
C      1  0.5294038946581  0.6141609228911  0.1323700573462 1.0
C      1  0.3210577450916  0.4695809132793  0.3699758896992 1.0
C      1  0.3008267328369  0.6836239702835  0.7225159866688 1.0
C      1  0.2243921303549  0.2629244270958  0.6031388956527 1.0
C      1  0.2768182198176  0.2944555418728  0.2625337434545 1.0
C      1  0.8054098609904  0.4155401049765  0.4604317048718 1.0
C      1  0.2003611178921  0.3053821447139  0.6859398213991 1.0
C      1  0.4990127429229  0.1265669145761  0.2032839302671 1.0
C      1  0.1896304866257  0.3146659800940  0.3871041028264 1.0
C      1  0.4915339638912  0.2822564398403  0.4990794595067 1.0
C      1  0.4922914700205  0.6011912600345  0.5340419619657 1.0
C      1  0.4417176574338  0.5224778665671  0.8531291365698 1.0
C      1  0.7445210848981  0.7689090447332  0.2686097354062 1.0
C      1  0.3628342515528  0.6605622305384  0.7993748354393 1.0
C      1  0.7587161257397  0.7613739334609  0.4377856543330 1.0
C      1  0.3115382571281  0.7603452872612  0.4563807012452 1.0
C      1  0.3905831197693  0.2426027303167  0.2110220544925 1.0
C      1  0.5230431085939  0.3345045739336  0.3361398999768 1.0
C      1  0.1679700688337  0.4507619855327  0.7511546383553 1.0
C      1  0.3770935580112  0.6780427296859  0.1896971522525 1.0
C      1  0.6549366333371  0.2304244791019  0.7368564686145 1.0
C      1  0.4111067863065  0.2792551274966  0.8101215899874 1.0
C      1  0.6003906822716  0.6657406455408  0.1721683639118 1.0
C      1  0.5609076834032  0.1350428998234  0.5202878617503 1.0
C      1  0.5860448360517  0.7399731890678  0.2332390801014 1.0
C      1  0.4641906388291  0.1952473474002  0.6396678389456 1.0
C      1  0.7820161211565  0.5935171616522  0.4366982794597 1.0
C      1  0.5214250935926  0.7889968264429  0.3708072091820 1.0
C      1  0.6413319642898  0.1363792922619  0.5772974107330 1.0
C      1  0.0684041029062  0.6392028477941  0.5923746312357 1.0
C      1  0.1462014372770  0.6745409015495  0.5581304351801 1.0
C      1  0.8238479344151  0.2953669280152  0.3412920376740 1.0
C      1  0.4151153269868  0.4570050068204  0.5028109490834 1.0
C      1  0.3238045096117  0.6700824223104  0.4167109518931 1.0
C      1  0.6662240914365  0.8111027573380  0.6363767812208 1.0
C      1  0.7568432482122  0.4775315640276  0.7220974184233 1.0
C      1  0.8478467300762  0.6480497373699  0.6151362715171 1.0
C      1  0.6925233529174  0.4292745392190  0.1742304370861 1.0
C      1  0.3878052558506  0.4427241374611  0.3136193379541 1.0
C      1  0.4412225784067  0.4274500452131  0.8707491402344 1.0
C      1  0.9537965411627  0.4525126543232  0.5303035463491 1.0
C      1  0.3251442105854  0.4433529000555  0.4611606053227 1.0
C      1  0.7113688371505  0.5903100364527  0.2790271163257 1.0
C      1  0.5488489263311  0.4079887219020  0.5930029655020 1.0
C      1  0.6831904159367  0.3759873031821  0.3566405035295 1.0
C      1  0.5101663278040  0.7380617737216  0.2849651042921 1.0
C      1  0.3694608479740  0.8674487376566  0.3292769380693 1.0
C      1  0.5205793876407  0.2648932127392  0.4049176585710 1.0
C      1  0.5564407040694  0.6605410483677  0.5036038991233 1.0
C      1  0.5337211475027  0.1783203054419  0.7006556039474 1.0
C      1  0.6038175406787  0.5141227882503  0.8172571571313 1.0
C      1  0.7286770746243  0.1251670657246  0.5480823451194 1.0
C      1  0.3723398335971  0.1981798678740  0.3847259247336 1.0
C      1  0.4528954227266  0.8626391063727  0.3785449510018 1.0
C      1  0.4788493266738  0.3767535541965  0.5264696900841 1.0
C      1  0.6656654739299  0.4734169575321  0.4021867714086 1.0
C      1  0.5318936505458  0.1077401604320  0.4373463186371 1.0
C      1  0.8740095018490  0.5617138057206  0.6123506077292 1.0
C      1  0.2057369616189  0.3420259511801  0.3008288747345 1.0
C      1  0.6552153348640  0.7859195605458  0.2842820257235 1.0
C      1  0.2626354896761  0.2956386181712  0.7566723434710 1.0
C      1  0.6198569755870  0.8116245308482  0.3727876639542 1.0
C      1  0.4345846650378  0.4219881449869  0.1304219990377 1.0
C      1  0.7294122297563  0.8077425824667  0.7051026052992 1.0
C      1  0.3092906967775  0.2194208511427  0.5760632182358 1.0
C      1  0.3515201874701  0.8429244076699  0.4207146921901 1.0
C      1  0.6876394041645  0.5464488318838  0.7643374739685 1.0
C      1  0.3496170510063  0.5652291853464  0.6153912652072 1.0
C      1  0.3429660647773  0.2292409682613  0.2996149419664 1.0
C      1  0.0876688469325  0.5464072019906  0.3527741855677 1.0
C      1  0.1789677309709  0.3626834500091  0.4693536727972 1.0
C      1  0.8813728149973  0.5804935735854  0.4408311948227 1.0
C      1  0.4945544932695  0.4670378652537  0.1756767848483 1.0
C      1  0.3531865396164  0.5834778242727  0.1532245363801 1.0
C      1  0.6756755777790  0.6041648258828  0.1871607108176 1.0
C      1  0.2106240783154  0.7382757469433  0.5957435114782 1.0
C      1  0.3111934371391  0.2114199975045  0.4686592497294 1.0
C      1  0.6229891161566  0.3771330065197  0.7445996375659 1.0
C      1  0.5441708404915  0.0756185252885  0.2591431637005 1.0
C      1  0.4637199383125  0.4932349819359  0.2753458958439 1.0
C      1  0.7614731590531  0.7691436462258  0.7716102904993 1.0
C      1  0.3018169708145  0.5017512343813  0.1669801962529 1.0
C      1  0.6104172072039  0.4617166369380  0.5441434704508 1.0
C      1  0.2281073043903  0.4404230367889  0.8255417010979 1.0
C      1  0.2673031744996  0.7683471029425  0.5336599093632 1.0
C      1  0.4477481299422  0.5845048140887  0.3115618394866 1.0
END
