TITL C-519-9595-24 -10.747 3375.00 -1613.09325149 0 0 198 (C1) n - 1
REM
REM Run started: at 2020.12.30 08:05:54 in /gpfs/home/chem/mssmkc/CARBON/AIRSS/Generating-Clusters/Str-Search/Higher-Symm/C100-200
REM VASP from code version vasp.5.4.4.18Apr17-6-g9f103f2a35 (build Oct 11 2019 16:45:47) gamma-only
REM
REM
REM
REM
REM ./C.cell (533062f00bc710175b3da973d35f2034)
REM AIRSS Version 0.9.1 bugfix July 2018 build 013d7b7c2542+ Fri, 06 Jul 2018 19:26:36 +0100
REM compiler GCC version 6.3.0
REM options -cpp -iprefix /gpfs/warwick/csc/orac/software/Core/GCCcore/6.3.0/bin/../lib/gcc/x86_64-pc-linux-gnu/6.3.0/ -mtune=generic -march=x86-64 -g -O0
REM seed 108727175 300889535 -1884415321 -1642445444 -971213109 742134097 -1712807879 795972331 -1258496093 -786551872 1809377294 429396033
REM
REM C.POTCAR (d86ddea03c3ceb6dc662c8ad6801f873)
REM 
CELL 1.54180   15.00000   15.00000   15.00000   90.00000   90.00000   90.00000
LATT -1
SFAC C  
C      1  0.8223362828400  0.5374754854490  0.6884825579797 1.0
C      1  0.2717472496555  0.7686749467595  0.7863978689493 1.0
C      1  0.3750433584180  0.1941366509581  0.7079202687728 1.0
C      1  0.6236876331630  0.5360991968732  0.6137651172255 1.0
C      1  0.3889940440091  0.5972591409095  0.6245148176190 1.0
C      1  0.4845004655195  0.3135506137246  0.6410209507350 1.0
C      1  0.1447577077506  0.6755579051477  0.6055744805715 1.0
C      1  0.5371419112059  0.1346425938404  0.5585334692928 1.0
C      1  0.8162830539158  0.7318914904548  0.5803257486170 1.0
C      1  0.5080068435461  0.2320281016199  0.2042979576134 1.0
C      1  0.7738673350955  0.6420559147212  0.2426475928985 1.0
C      1  0.2638378915226  0.6758108303589  0.2264716624041 1.0
C      1  0.4723099538334  0.7176094903513  0.1710791514835 1.0
C      1  0.3285034740505  0.3546894826131  0.1638553570955 1.0
C      1  0.7386458536504  0.4366207766005  0.1821999587663 1.0
C      1  0.0913272634918  0.3495756625189  0.6073761599908 1.0
C      1  0.8376365944689  0.2277715058823  0.5876131406407 1.0
C      1  0.5536891417858  0.9363611464290  0.5896694708197 1.0
C      1  0.1085080629962  0.5046437711094  0.6701510551129 1.0
C      1  0.6889323086958  0.1755542033909  0.6591897673145 1.0
C      1  0.6710458486382  0.8172645340413  0.6473041562015 1.0
C      1  0.6311153913962  0.7013352011839  0.7477197848110 1.0
C      1  0.2137182514090  0.4758322860450  0.8087677984976 1.0
C      1  0.6179910085055  0.2328195984689  0.7914817680996 1.0
C      1  0.8820148733140  0.4883752915864  0.2652433676168 1.0
C      1  0.3578884878454  0.8340803010130  0.2337663977738 1.0
C      1  0.3125312232746  0.1960313544372  0.2303028584088 1.0
C      1  0.5565075955316  0.5712445007536  0.1275149226411 1.0
C      1  0.3614641707802  0.4896257640314  0.1390879943153 1.0
C      1  0.5735597758105  0.4743769580364  0.1582595395853 1.0
C      1  0.5847958053773  0.5826043355986  0.3093598087193 1.0
C      1  0.3886899907415  0.5358475137456  0.3123763069641 1.0
C      1  0.5288456932037  0.3869030759245  0.3185949697636 1.0
C      1  0.7563046828896  0.1784442441323  0.5914083657916 1.0
C      1  0.6383526124198  0.8951885124704  0.5941089936644 1.0
C      1  0.0659093181638  0.4391546225867  0.6086227254155 1.0
C      1  0.8612449340718  0.6477276937158  0.4127812884019 1.0
C      1  0.1852458363255  0.7574667114740  0.3650502867796 1.0
C      1  0.4634109402429  0.1701699300160  0.3761965183589 1.0
C      1  0.2962505183392  0.6262378325074  0.6014229139237 1.0
C      1  0.5785198365190  0.2847394965665  0.6265356259436 1.0
C      1  0.6918475343172  0.6070953005507  0.6052750283051 1.0
C      1  0.2510480733936  0.7684406328407  0.5252565036580 1.0
C      1  0.3708928830746  0.1303260375081  0.5433141145845 1.0
C      1  0.8749611815906  0.5619422625856  0.5922123195930 1.0
C      1  0.3155582374671  0.3911651107479  0.6818926207230 1.0
C      1  0.6458071664424  0.3570443550143  0.6649663795137 1.0
C      1  0.4669697358874  0.6485039315630  0.6585076227543 1.0
C      1  0.2753878347080  0.5502746132202  0.5228829113197 1.0
C      1  0.5885089343136  0.3012655669103  0.5334678242563 1.0
C      1  0.6455897803026  0.6574854697541  0.5267706772544 1.0
C      1  0.4865020957194  0.7352923974539  0.6107362966789 1.0
C      1  0.2958867687186  0.3815624138525  0.5876157451941 1.0
C      1  0.7044838386869  0.3836721077734  0.5824140879608 1.0
C      1  0.4814858446911  0.3835761706339  0.7015691236955 1.0
C      1  0.5778407536661  0.5101513462130  0.6924573548798 1.0
C      1  0.4169996553620  0.5227513335222  0.6826641080897 1.0
C      1  0.8720379312329  0.6576425088873  0.5765077248836 1.0
C      1  0.1617636387120  0.7284014276618  0.5242147472302 1.0
C      1  0.4595898571169  0.0714110555714  0.5354256941505 1.0
C      1  0.1563736629723  0.4811007278523  0.7479417295379 1.0
C      1  0.6980428345179  0.2267618515586  0.7399691756268 1.0
C      1  0.6053857904179  0.7823125125737  0.7087199495333 1.0
C      1  0.2350065769311  0.6793423721408  0.3216863174166 1.0
C      1  0.5259464809243  0.1874498498807  0.2837011676170 1.0
C      1  0.7858228671638  0.6536787419545  0.3428880543705 1.0
C      1  0.6717585695920  0.3298425206230  0.5124805180563 1.0
C      1  0.5535858260953  0.7098217612408  0.5362618986198 1.0
C      1  0.2689564697416  0.4486810358005  0.5315957802486 1.0
C      1  0.6548886397594  0.5831260874416  0.1309305918971 1.0
C      1  0.3738061531525  0.5800891054416  0.1324707712216 1.0
C      1  0.5152348668574  0.3894279797929  0.1384998301695 1.0
C      1  0.3723070930422  0.5191109068512  0.8717848453762 1.0
C      1  0.5306112900802  0.3606579935218  0.8773393661533 1.0
C      1  0.5909764539206  0.5706895422802  0.8598999562885 1.0
C      1  0.5847695083786  0.6532251670912  0.8159218727595 1.0
C      1  0.2933003729416  0.4692354057072  0.8550022557185 1.0
C      1  0.6031578179667  0.3119419405250  0.8468183301556 1.0
C      1  0.4347473864995  0.3469194353786  0.8694134141941 1.0
C      1  0.6521453350020  0.4970858058116  0.8536401255389 1.0
C      1  0.4094076657205  0.6042378256805  0.8517274183030 1.0
C      1  0.4456192450876  0.8036674889814  0.7574222109166 1.0
C      1  0.2344855554477  0.2748205120178  0.7906568784118 1.0
C      1  0.7858791034621  0.3773136020590  0.7495629134589 1.0
C      1  0.3268785217214  0.1566252494100  0.4645399690533 1.0
C      1  0.9187888432930  0.5049486899217  0.5043938687253 1.0
C      1  0.2904120600726  0.8276472482695  0.4620550934221 1.0
C      1  0.7436692998110  0.7542365096127  0.6409817809139 1.0
C      1  0.1338030288070  0.5956244555754  0.6483014727747 1.0
C      1  0.5870052395370  0.1783737799239  0.6430561287606 1.0
C      1  0.2671047413204  0.6807597628092  0.7517162647249 1.0
C      1  0.4577861011538  0.2006689857974  0.7607511313162 1.0
C      1  0.7656374453881  0.5988075191078  0.7476023753389 1.0
C      1  0.6061136375227  0.2779539092570  0.3815682941404 1.0
C      1  0.6524162512355  0.6994805415018  0.4247859735676 1.0
C      1  0.2441784705098  0.5406373846904  0.4139168976678 1.0
C      1  0.4496723906304  0.4037287656082  0.2692714895862 1.0
C      1  0.5920227299371  0.5028206737784  0.2614084278999 1.0
C      1  0.4483025893378  0.5930502279944  0.2637481673682 1.0
C      1  0.3471599966437  0.3038730980584  0.4000973067464 1.0
C      1  0.7539289216654  0.4819782469770  0.4073918320827 1.0
C      1  0.3979713309377  0.7312351226734  0.4068846556054 1.0
C      1  0.5068434110030  0.6331796045746  0.4860070883162 1.0
C      1  0.4382286447013  0.4918175421762  0.5066296348118 1.0
C      1  0.5122610541915  0.4434943475159  0.5145906197888 1.0
C      1  0.1338219881459  0.7322580730038  0.4359749468519 1.0
C      1  0.5092894351339  0.1330704888592  0.4708646675640 1.0
C      1  0.8554872075205  0.6965302536549  0.4940176308774 1.0
C      1  0.3283599082008  0.6760112604960  0.3765767445431 1.0
C      1  0.4343774106990  0.2676596702899  0.3841126522149 1.0
C      1  0.7338262167565  0.5721322293578  0.3816666738442 1.0
C      1  0.4101765897872  0.2637961069645  0.8255099362195 1.0
C      1  0.7365569018202  0.5249349871976  0.8026942043861 1.0
C      1  0.3554154562732  0.6669246084436  0.7959630495404 1.0
C      1  0.4713413910891  0.8876119956368  0.4700776050943 1.0
C      1  0.1858599491760  0.2954241317482  0.4796653750946 1.0
C      1  0.8421076990212  0.3380832336591  0.4602205011876 1.0
C      1  0.7021177287706  0.3642858550250  0.2453754841061 1.0
C      1  0.5360009304529  0.7316447352094  0.2434100899473 1.0
C      1  0.2811552113652  0.4377113685671  0.1586742153760 1.0
C      1  0.5062165832848  0.6145200881916  0.8549773637703 1.0
C      1  0.3750444032010  0.4242711474052  0.8773624514645 1.0
C      1  0.6143428005372  0.4074105538028  0.8676546386967 1.0
C      1  0.3237130817602  0.3933738504631  0.3795098092021 1.0
C      1  0.6850929232443  0.4228037015652  0.3834010331163 1.0
C      1  0.4887297485306  0.6900491516170  0.4019636284487 1.0
C      1  0.7978197437176  0.4644556966423  0.7547442567997 1.0
C      1  0.3711315570642  0.7633873973333  0.7834305841890 1.0
C      1  0.3275355390414  0.2447396585079  0.7777532403848 1.0
C      1  0.7462349954651  0.1606441693149  0.4978243692247 1.0
C      1  0.6727005484720  0.9075915310097  0.5067172380011 1.0
C      1  0.0193419075861  0.4600681196239  0.5166409176941 1.0
C      1  0.3656681768495  0.1327238850321  0.3760580867515 1.0
C      1  0.9124046974970  0.5631974159443  0.4162634536126 1.0
C      1  0.2520489885655  0.8336047199993  0.3735880365782 1.0
C      1  0.7676461280821  0.4476960711651  0.5609625231929 1.0
C      1  0.4011125001613  0.7601490367389  0.5603825779660 1.0
C      1  0.3345987243590  0.2890735353754  0.5589442763787 1.0
C      1  0.1928967425153  0.5830768547493  0.3403414981355 1.0
C      1  0.6139278667338  0.2233169244637  0.3078071453540 1.0
C      1  0.7221159334161  0.7320764790295  0.3618043187475 1.0
C      1  0.5890944908750  0.5037002891420  0.5356401552435 1.0
C      1  0.4351302452366  0.5850002619896  0.5314581255905 1.0
C      1  0.4346166785793  0.3073059071422  0.5585274114409 1.0
C      1  0.5120872987964  0.6538427249889  0.3086681319997 1.0
C      1  0.3781897809291  0.4417053790554  0.3204710681115 1.0
C      1  0.6252144326566  0.4221537045419  0.3045072309309 1.0
C      1  0.7122290739012  0.6678266221346  0.6967497083994 1.0
C      1  0.2204896437986  0.6424319438418  0.6686825521961 1.0
C      1  0.5473451467158  0.1869001665170  0.7419792777327 1.0
C      1  0.6391868226358  0.5989913534222  0.3905659437680 1.0
C      1  0.3419029929940  0.5776290316461  0.3866318617977 1.0
C      1  0.5154965262981  0.3239482265244  0.3956437796927 1.0
C      1  0.5094877446754  0.7964238722064  0.6962400801241 1.0
C      1  0.2729314326244  0.3310946488310  0.7366782492110 1.0
C      1  0.7253491643449  0.3190766692447  0.7269591886985 1.0
C      1  0.5285007433038  0.2999855185298  0.1548742932380 1.0
C      1  0.7195975768369  0.6342404630543  0.1792007215474 1.0
C      1  0.3028315567187  0.6367478242757  0.1651166048469 1.0
C      1  0.5092110747311  0.3443072638120  0.4946694679594 1.0
C      1  0.5958867080349  0.5817056588627  0.4778191993394 1.0
C      1  0.3657572514794  0.5480254888812  0.4768209990197 1.0
C      1  0.3938296021938  0.8162704826392  0.4750436007054 1.0
C      1  0.2884388446948  0.2561936893074  0.4696196515978 1.0
C      1  0.8243374147200  0.4381911905382  0.4772658092897 1.0
C      1  0.2086056090983  0.4730163157567  0.2065409938161 1.0
C      1  0.7623919379439  0.2981783071241  0.2932654946342 1.0
C      1  0.6039463946405  0.7905214295000  0.2572783503002 1.0
C      1  0.8235380147444  0.4665348486563  0.2063913730927 1.0
C      1  0.4108460076190  0.7814318721634  0.1873228180999 1.0
C      1  0.3085105931559  0.2706314263092  0.1891364388720 1.0
C      1  0.3550064236403  0.1956363350629  0.6139003800683 1.0
C      1  0.7758055229691  0.5375333324885  0.5997524014556 1.0
C      1  0.3177405865257  0.7210398445684  0.5713544395314 1.0
C      1  0.3064724021015  0.8497773310062  0.2999619469326 1.0
C      1  0.3205062626593  0.1435991280585  0.2989077353834 1.0
C      1  0.9216021664854  0.5188672303485  0.3366891842173 1.0
C      1  0.4659716883022  0.6147874257136  0.1606566085842 1.0
C      1  0.4221014733730  0.4109484037258  0.1686107492752 1.0
C      1  0.6716090269449  0.4863253666328  0.1388786669683 1.0
C      1  0.4866661697195  0.9677351728339  0.5361984259415 1.0
C      1  0.1359786771646  0.2966890733806  0.5575109351286 1.0
C      1  0.8631670615098  0.2888045948723  0.5340339626332 1.0
C      1  0.1593077665437  0.3861743853766  0.4400501948571 1.0
C      1  0.7782612932707  0.2836855179484  0.3916894092931 1.0
C      1  0.5500112661811  0.8513159315718  0.4312669758233 1.0
C      1  0.5621965376048  0.7516180416777  0.4381206358729 1.0
C      1  0.2480574521376  0.4381553872710  0.4304996149126 1.0
C      1  0.6846053849998  0.3309715293978  0.4170936968007 1.0
C      1  0.0799728222483  0.4317035020843  0.4550475437522 1.0
C      1  0.7662565120092  0.1915203029189  0.4234459913970 1.0
C      1  0.6333482528808  0.8964666069433  0.4341685060962 1.0
C      1  0.4003099718549  0.4361032327433  0.7004656864622 1.0
C      1  0.5714288407938  0.4191855154718  0.7012824150676 1.0
C      1  0.5005884695923  0.5668413515783  0.6935180429531 1.0
C      1  0.6776750722739  0.7792130378411  0.2989402626994 1.0
C      1  0.1853104808996  0.5247547098256  0.2687352174053 1.0
C      1  0.6881186511289  0.2632618941820  0.2553397901300 1.0
END
