TITL C-519-9595-32 -5.845 3375.00 -1040.92633654 0 0 125 (C1) n - 1
REM
REM Run started: at 2020.12.30 15:23:22 in /gpfs/home/chem/mssmkc/CARBON/AIRSS/Generating-Clusters/Str-Search/Higher-Symm/C100-200
REM VASP from code version vasp.5.4.4.18Apr17-6-g9f103f2a35 (build Oct 11 2019 16:45:47) gamma-only
REM
REM
REM
REM
REM ./C.cell (533062f00bc710175b3da973d35f2034)
REM AIRSS Version 0.9.1 bugfix July 2018 build 013d7b7c2542+ Fri, 06 Jul 2018 19:26:36 +0100
REM compiler GCC version 6.3.0
REM options -cpp -iprefix /gpfs/warwick/csc/orac/software/Core/GCCcore/6.3.0/bin/../lib/gcc/x86_64-pc-linux-gnu/6.3.0/ -mtune=generic -march=x86-64 -g -O0
REM seed -394131842 -953316006 -252127187 158208318 889567677 1528444507 1836545645 -694642915 -691776512 -580362322 -1527956312 -567209117
REM
REM C.POTCAR (d86ddea03c3ceb6dc662c8ad6801f873)
REM 
CELL 1.54180   15.00000   15.00000   15.00000   90.00000   90.00000   90.00000
LATT -1
SFAC C  
C      1  0.2265941637970  0.5465690371538  0.6058754533058 1.0
C      1  0.2449790323394  0.5489189484098  0.3583900528849 1.0
C      1  0.4451833628889  0.5488648368283  0.2084427797912 1.0
C      1  0.6902173974956  0.5556393935252  0.2716602758989 1.0
C      1  0.7972858385593  0.5524390012229  0.4958157257021 1.0
C      1  0.6598589590759  0.5444249262143  0.7089102273239 1.0
C      1  0.4096699354338  0.5452533934968  0.7719890370712 1.0
C      1  0.5554271948957  0.8438125258505  0.3941077590253 1.0
C      1  0.6085987904306  0.8446830544352  0.4738931069848 1.0
C      1  0.5707960503109  0.8354417972235  0.5646655228902 1.0
C      1  0.4815210420578  0.8304890929987  0.5972128740467 1.0
C      1  0.3961111191526  0.8365936819381  0.5495794668118 1.0
C      1  0.3856838783879  0.8325751351058  0.4528800121873 1.0
C      1  0.4564550586002  0.8395542532214  0.3882662979500 1.0
C      1  0.5672531000302  0.7811513448361  0.3214427746685 1.0
C      1  0.6843217449643  0.7826674282341  0.4917954738290 1.0
C      1  0.6436096120215  0.7710805822000  0.5902477767785 1.0
C      1  0.4474621074656  0.7552540016386  0.6587182336745 1.0
C      1  0.3547930616472  0.7590337441660  0.6035091645985 1.0
C      1  0.3335359843935  0.7522540704409  0.4300232651185 1.0
C      1  0.4641341197244  0.7598100945228  0.3251718477527 1.0
C      1  0.7552666366189  0.3461006998376  0.4119751719137 1.0
C      1  0.7670685332712  0.3251275587566  0.6270449948748 1.0
C      1  0.4896918674964  0.3310889164450  0.7711467542646 1.0
C      1  0.3144444996718  0.3279071444697  0.6603717762392 1.0
C      1  0.2424251848227  0.3453883833122  0.4338357204261 1.0
C      1  0.3607958760463  0.3475788328734  0.2664596819044 1.0
C      1  0.5906844089765  0.3428262231498  0.2858652094482 1.0
C      1  0.7477016208849  0.6361248112557  0.6161071565627 1.0
C      1  0.5377019887082  0.6375529446898  0.7536174042833 1.0
C      1  0.3031840500753  0.6387074241205  0.7055233346682 1.0
C      1  0.2186798852242  0.6416418531640  0.4796677663160 1.0
C      1  0.3372674362663  0.6440749352695  0.2714240891543 1.0
C      1  0.5673816631146  0.6398604190486  0.2329695080166 1.0
C      1  0.7595540448008  0.6482042748541  0.3760707665230 1.0
C      1  0.3847756288730  0.4421435530784  0.4752221833051 1.0
C      1  0.4393985612048  0.4593174735339  0.3977782319143 1.0
C      1  0.5298929090400  0.4503375780468  0.4090378301206 1.0
C      1  0.6356639446090  0.4161269899027  0.5228726198604 1.0
C      1  0.6306899467181  0.3952739421339  0.6148418422962 1.0
C      1  0.5458801929019  0.4332440141433  0.6534701474698 1.0
C      1  0.4138811306392  0.4317635961879  0.5611259370258 1.0
C      1  0.4770129571830  0.6411363084791  0.2165746329928 1.0
C      1  0.7036896434054  0.6479003450544  0.3031737673253 1.0
C      1  0.7821834824130  0.6419633514804  0.5302313717330 1.0
C      1  0.6259674505795  0.6347834529364  0.7168270044736 1.0
C      1  0.3837270875063  0.6376228325437  0.7538603511576 1.0
C      1  0.2297443748922  0.6402563999245  0.5732415357018 1.0
C      1  0.2688184642863  0.6414289140891  0.3372669817973 1.0
C      1  0.4017309639324  0.3669848785465  0.6266421228504 1.0
C      1  0.3233857450371  0.3981598004009  0.4237925469697 1.0
C      1  0.3646014917456  0.4253745751193  0.3399079555857 1.0
C      1  0.5933246946565  0.3901522614782  0.3755496581628 1.0
C      1  0.6620874263866  0.3779576952347  0.4420698422846 1.0
C      1  0.6838370716006  0.3436274320905  0.6704195506917 1.0
C      1  0.4782083620919  0.3670160033240  0.6797209372948 1.0
C      1  0.6728859715280  0.6914714443591  0.6469761906757 1.0
C      1  0.4604014112572  0.6950930584027  0.7395636144722 1.0
C      1  0.2794742110878  0.6969068891424  0.6334643319409 1.0
C      1  0.2528506854288  0.7000582938410  0.4117960566505 1.0
C      1  0.4147840233251  0.6994600738343  0.2594094864075 1.0
C      1  0.6153501343814  0.6953375836657  0.2993665660062 1.0
C      1  0.7393683488478  0.6990846570701  0.4601891592081 1.0
C      1  0.8035510354407  0.3980087964448  0.5702016098688 1.0
C      1  0.5797079145856  0.3867670146400  0.7886359250556 1.0
C      1  0.3287584928080  0.3923037866411  0.7436394457313 1.0
C      1  0.2123621585680  0.3940034962079  0.5230086358618 1.0
C      1  0.2659325489081  0.3933498646827  0.2651484234772 1.0
C      1  0.5282095267022  0.4000674824792  0.2252470306719 1.0
C      1  0.7468344840326  0.4025690906150  0.3267603540818 1.0
C      1  0.5526319266060  0.2556320291857  0.7411809899098 1.0
C      1  0.3605656081952  0.2553881727137  0.7202758981080 1.0
C      1  0.2751018480459  0.2711896751505  0.4965575464310 1.0
C      1  0.3180951492465  0.2723953471845  0.3155021481531 1.0
C      1  0.5057014162796  0.2785042387324  0.2896095688845 1.0
C      1  0.7177537014309  0.2671443361346  0.3618392096037 1.0
C      1  0.7690910814866  0.2604976201153  0.5531055521873 1.0
C      1  0.7473702686643  0.4969273123175  0.3265983858886 1.0
C      1  0.7845428796658  0.4901935485228  0.5728313739002 1.0
C      1  0.5781483894437  0.4810125556168  0.7411582379398 1.0
C      1  0.3330538163546  0.4865511606835  0.7423486803730 1.0
C      1  0.2088628450638  0.4883783210429  0.5286876297103 1.0
C      1  0.2947707387428  0.4887582039498  0.2932796021851 1.0
C      1  0.5274275780092  0.4914690223222  0.2116207323659 1.0
C      1  0.4183279150798  0.1882907823872  0.6822045504159 1.0
C      1  0.3325750641079  0.2008508433527  0.4632835478036 1.0
C      1  0.3678549244179  0.2167007619097  0.3701146120247 1.0
C      1  0.4671342987122  0.2143034322126  0.3494933501122 1.0
C      1  0.6854988355248  0.2002648004991  0.4199014854167 1.0
C      1  0.7062994986967  0.2018664692747  0.5182150183010 1.0
C      1  0.5194261134370  0.1886119526863  0.6864441999965 1.0
C      1  0.2543109745799  0.3223617485151  0.5752783103661 1.0
C      1  0.2370411821823  0.3272657529444  0.3302805554354 1.0
C      1  0.4553924990712  0.3388271860859  0.2379998045202 1.0
C      1  0.6927035759512  0.3258322581944  0.2890044758821 1.0
C      1  0.8045578645304  0.3352446126390  0.4972400913585 1.0
C      1  0.6282882294828  0.3169458248807  0.7478217478551 1.0
C      1  0.3878551920194  0.3215496903700  0.7818286385706 1.0
C      1  0.5551801712776  0.1375805909641  0.6062506096043 1.0
C      1  0.3973337078124  0.1338501917647  0.6109471628487 1.0
C      1  0.3658283984984  0.1329072095303  0.5186876344493 1.0
C      1  0.4856358041202  0.0624952884446  0.4134045802332 1.0
C      1  0.5196438230840  0.1481459259668  0.3913385866055 1.0
C      1  0.6039603896582  0.1552465862137  0.4376794802247 1.0
C      1  0.6206149580234  0.1560363369284  0.5375010198208 1.0
C      1  0.2752933924636  0.5453871123679  0.6887202205130 1.0
C      1  0.2132524675238  0.5478570335985  0.4480978220391 1.0
C      1  0.3555372454612  0.5521050328278  0.2400088033971 1.0
C      1  0.6044841902548  0.5513361493811  0.2288541095046 1.0
C      1  0.7838302530885  0.5554394060400  0.3999419671205 1.0
C      1  0.7358901183728  0.5436705623539  0.6448389293076 1.0
C      1  0.5052896060304  0.5463200092753  0.7702500256321 1.0
C      1  0.4792100239342  0.6889194352090  0.3994317729105 1.0
C      1  0.5746491893467  0.6761144476425  0.3958839276465 1.0
C      1  0.6389555189479  0.6820323339408  0.4674243666620 1.0
C      1  0.6122426432081  0.6815670409025  0.5594277016917 1.0
C      1  0.4617859672846  0.6719313480942  0.6065331314473 1.0
C      1  0.3939497274532  0.6793622075303  0.5475282643245 1.0
C      1  0.4046697743942  0.6870120125923  0.4546302952893 1.0
C      1  0.5383785037492  0.6299990869201  0.5776731961150 1.0
C      1  0.5630407761740  0.4736390628326  0.4967120280040 1.0
C      1  0.4954756423333  0.4741419614038  0.5789427275577 1.0
C      1  0.4774074594539  0.0889378649513  0.5786335274780 1.0
C      1  0.4406839022822  0.0718919966184  0.4926739803855 1.0
C      1  0.5324042044866  0.5507048114177  0.5418448414768 1.0
END
