TITL C-5119-875-2 -8.662 3375.00 -1472.53559175 0 0 180 (C1) n - 1
REM
REM Run started: at 2020.12.25 08:35:54 in /gpfs/home/chem/mssmkc/CARBON/AIRSS/Generating-Clusters/Str-Search/Higher-Symm/Only-C180
REM VASP from code version vasp.5.4.4.18Apr17-6-g9f103f2a35 (build Oct 11 2019 16:45:47) gamma-only
REM
REM
REM
REM
REM ./C.cell (73b75853f6e4503fb4b57bac71549d7d)
REM AIRSS Version 0.9.1 bugfix July 2018 build 013d7b7c2542+ Fri, 06 Jul 2018 19:26:36 +0100
REM compiler GCC version 6.3.0
REM options -cpp -iprefix /gpfs/warwick/csc/orac/software/Core/GCCcore/6.3.0/bin/../lib/gcc/x86_64-pc-linux-gnu/6.3.0/ -mtune=generic -march=x86-64 -g -O0
REM seed 1230359497 1903718280 43950475 2107526666 -13432481 -733432469 -829050833 -2051795208 -1640971227 966526530 2129823721 -214584302
REM
REM C.POTCAR (d86ddea03c3ceb6dc662c8ad6801f873)
REM 
CELL 1.54180   15.00000   15.00000   15.00000   90.00000   90.00000   90.00000
LATT -1
SFAC C  
C      1  0.6138305690338  0.5021037953048  0.7430984868100 1.0
C      1  0.7293758159057  0.6191351913981  0.7313652356257 1.0
C      1  0.2375521024077  0.3071352585243  0.7331709627400 1.0
C      1  0.6083075063969  0.1693641552162  0.5500300638505 1.0
C      1  0.1930080738860  0.3358303102979  0.6583137578358 1.0
C      1  0.8093402371134  0.6622927224462  0.2641652282891 1.0
C      1  0.5784299843837  0.3388224200895  0.1830590252981 1.0
C      1  0.5824935942135  0.2669616654871  0.5542846791146 1.0
C      1  0.2865674175334  0.3262822563019  0.4379502919934 1.0
C      1  0.4124632973661  0.1958021159480  0.6251552577806 1.0
C      1  0.4836358027955  0.1522751674220  0.3220175848082 1.0
C      1  0.6239127694508  0.3184031947261  0.4939364918739 1.0
C      1  0.3921230200041  0.1236778671355  0.4921375112868 1.0
C      1  0.5281546785709  0.6407701758399  0.4698330586689 1.0
C      1  0.3729122194736  0.7871954980074  0.3120810284212 1.0
C      1  0.6180384372132  0.6407858508680  0.8133675742084 1.0
C      1  0.7142975234231  0.5895236393903  0.5246364562228 1.0
C      1  0.6942282060352  0.6874516535492  0.4962789499594 1.0
C      1  0.7467003156837  0.6860838451977  0.4058250379499 1.0
C      1  0.6864561697931  0.6294341744399  0.1615435388040 1.0
C      1  0.7865456264527  0.2923683371066  0.3170570028478 1.0
C      1  0.3980773290498  0.7241632414275  0.7904895415486 1.0
C      1  0.5537928158893  0.8548321577382  0.5774626083806 1.0
C      1  0.6146319532835  0.4664515271739  0.5850047838524 1.0
C      1  0.2492250268546  0.6801216931960  0.8125473232192 1.0
C      1  0.7698274798416  0.4979143874055  0.2355966755258 1.0
C      1  0.4389369453095  0.7390041528046  0.6271731927410 1.0
C      1  0.6068997025074  0.5816159995202  0.1230210831481 1.0
C      1  0.5457410883857  0.1862551419320  0.7145375628548 1.0
C      1  0.4867661761512  0.3382892153636  0.6964186897346 1.0
C      1  0.7420969569395  0.4569926890500  0.3949451444243 1.0
C      1  0.1133897065956  0.5653419264562  0.3700478526793 1.0
C      1  0.5350318469324  0.6248287060201  0.8527918431011 1.0
C      1  0.2024452066425  0.2926433326854  0.5696423176920 1.0
C      1  0.3540963359660  0.4545844659068  0.6970054757478 1.0
C      1  0.7638054524999  0.5946980097284  0.2070260157314 1.0
C      1  0.1585265568539  0.4289976178418  0.6555351724302 1.0
C      1  0.6205585196282  0.2939611017546  0.2590299847119 1.0
C      1  0.3225065059356  0.7076874404907  0.8427558777110 1.0
C      1  0.3801303827614  0.2942827760773  0.2768308588080 1.0
C      1  0.3467592951816  0.3430599016699  0.3567724997370 1.0
C      1  0.3230830147063  0.5579243746919  0.1411022741195 1.0
C      1  0.4607856537428  0.6281444908472  0.3224523813298 1.0
C      1  0.5178971842336  0.2736840186057  0.7722335761144 1.0
C      1  0.2979606232083  0.4277108235863  0.4460990011968 1.0
C      1  0.4986988476294  0.5259775566403  0.8592996414500 1.0
C      1  0.1846193455052  0.7028616005461  0.4408159886443 1.0
C      1  0.3316524845398  0.5173884415934  0.2937477224221 1.0
C      1  0.1880233665314  0.3073447719396  0.4150061301327 1.0
C      1  0.5581641327553  0.1678343736638  0.3808514119449 1.0
C      1  0.4834045478282  0.3626091585242  0.1514624154749 1.0
C      1  0.6263913620663  0.1718146620930  0.6564525196691 1.0
C      1  0.6144262535068  0.8078843132284  0.5135861535548 1.0
C      1  0.4344631606315  0.8207360132870  0.3781502760458 1.0
C      1  0.7132519169567  0.4247444291112  0.2119491843060 1.0
C      1  0.2894757195712  0.4743628504677  0.7573597608772 1.0
C      1  0.7213894640306  0.1929964708922  0.6375965635623 1.0
C      1  0.5384363167529  0.6600606024926  0.2823903205783 1.0
C      1  0.8042458287637  0.4898712925102  0.3286712929234 1.0
C      1  0.5308958954798  0.6429632933041  0.1303085013852 1.0
C      1  0.1921918735319  0.5907704926556  0.6784397099719 1.0
C      1  0.4727362224055  0.1507860458850  0.6724511919326 1.0
C      1  0.2974845230271  0.4772582121611  0.5279227931173 1.0
C      1  0.6525103324725  0.7149970686017  0.1947498718284 1.0
C      1  0.3433092975598  0.4466725415910  0.8437494194808 1.0
C      1  0.6753878882879  0.3048513852006  0.8034085211006 1.0
C      1  0.4785058332749  0.8958402945298  0.5245848636275 1.0
C      1  0.3018971895077  0.3966070887587  0.1777272762392 1.0
C      1  0.2943499869098  0.3019195476362  0.7947556299092 1.0
C      1  0.7806553005680  0.2614142902337  0.6723996676734 1.0
C      1  0.5542686108791  0.1286874298649  0.4693779243949 1.0
C      1  0.6784106620349  0.5622107063968  0.8010959739670 1.0
C      1  0.8615317706957  0.5553247532434  0.3641139561559 1.0
C      1  0.2310646101733  0.6660378179265  0.7217632581183 1.0
C      1  0.2130550067079  0.7200137166069  0.3537018178199 1.0
C      1  0.4422224273260  0.3144029667755  0.3643838201061 1.0
C      1  0.6053711729498  0.8335762971615  0.4182157379510 1.0
C      1  0.8415983488302  0.3235398113864  0.6273780504388 1.0
C      1  0.3549858226222  0.3343278954048  0.5881210970588 1.0
C      1  0.1032866125986  0.5428137877522  0.5449878049097 1.0
C      1  0.3541693214637  0.1847722343212  0.5448485282136 1.0
C      1  0.5585168361191  0.7041624072516  0.1976848126716 1.0
C      1  0.2208106601330  0.4182967558783  0.2113166636431 1.0
C      1  0.5086183566963  0.3840760185979  0.3575140518577 1.0
C      1  0.4707632207024  0.0722607676577  0.4874893945485 1.0
C      1  0.8125864872844  0.4160530891368  0.6483611357879 1.0
C      1  0.6777373187969  0.3892524035955  0.3693165284573 1.0
C      1  0.4015687058193  0.5102563487488  0.8686994317725 1.0
C      1  0.5553364020083  0.5141181719219  0.3535891559858 1.0
C      1  0.2993349821922  0.2743228980914  0.5319381677647 1.0
C      1  0.3620975232799  0.3459649704780  0.8400010254029 1.0
C      1  0.5925791706158  0.3126402271486  0.8299035974537 1.0
C      1  0.5586267437809  0.6308972258437  0.5630397887179 1.0
C      1  0.1535155627800  0.6469417397113  0.3680626832906 1.0
C      1  0.1569527880076  0.4026129773745  0.2834016913967 1.0
C      1  0.5283207507027  0.3607938293569  0.8843775928449 1.0
C      1  0.0683350706346  0.4445953957351  0.4257845366942 1.0
C      1  0.6878928951372  0.6079466474089  0.3742043355882 1.0
C      1  0.9172441502020  0.3166517753627  0.5729581220224 1.0
C      1  0.3438448663088  0.5681655865768  0.5339819093494 1.0
C      1  0.4246091450275  0.2924909619813  0.6323906896934 1.0
C      1  0.7938547836253  0.5864654314497  0.6705093907961 1.0
C      1  0.9852805638234  0.3450009909906  0.5370515761085 1.0
C      1  0.8088717756582  0.5894701479139  0.5729330252236 1.0
C      1  0.3825772240545  0.5951517696609  0.2812013089188 1.0
C      1  0.5877603677947  0.8513797087357  0.6755415407980 1.0
C      1  0.2893919275150  0.7221077428085  0.6673582244143 1.0
C      1  0.1447061008272  0.3114861158210  0.5010622224725 1.0
C      1  0.4708970946371  0.6641607482278  0.7896786174463 1.0
C      1  0.5293274154091  0.8328947736884  0.3628636177611 1.0
C      1  0.6095110167407  0.2436759680712  0.3443422472575 1.0
C      1  0.4741962052634  0.9819128051251  0.5033192026219 1.0
C      1  0.8771004737824  0.6366755333314  0.3263932842095 1.0
C      1  0.5805880508834  0.4915598803719  0.1252818849724 1.0
C      1  0.5264676572063  0.4187375213036  0.5649305015030 1.0
C      1  0.5033701389974  0.5856520715181  0.3999915026808 1.0
C      1  0.7075820399451  0.3474895884427  0.2770252344074 1.0
C      1  0.2546494488191  0.5643760602381  0.5356277131863 1.0
C      1  0.7134976790818  0.5396664624849  0.4362182394775 1.0
C      1  0.6074719337952  0.5996986225099  0.3269361227179 1.0
C      1  0.6946188454156  0.7679496995512  0.5685154644377 1.0
C      1  0.8654149600796  0.6553690467702  0.5181365824218 1.0
C      1  0.5479704241906  0.4511957863419  0.9092128305493 1.0
C      1  0.7292665189822  0.3167025761117  0.7343446680744 1.0
C      1  0.3725712817635  0.7457145501796  0.7022035644286 1.0
C      1  0.2011900851814  0.5000375248945  0.7092256296724 1.0
C      1  0.7895087852253  0.7957848091823  0.5771609621460 1.0
C      1  0.7580201100708  0.2489243787647  0.3938739815148 1.0
C      1  0.5147131189101  0.5151420083915  0.7491306042028 1.0
C      1  0.1620503094985  0.3257663579953  0.3328346965227 1.0
C      1  0.3675577892175  0.6423690964633  0.1886775670993 1.0
C      1  0.6284569138530  0.5616478818199  0.5667029802934 1.0
C      1  0.2866597172353  0.4933910150021  0.2054351560339 1.0
C      1  0.6546873054680  0.4543141811108  0.6771362761175 1.0
C      1  0.7344099646154  0.4062487878047  0.6958078120909 1.0
C      1  0.8468786448374  0.7392324822680  0.5512996417599 1.0
C      1  0.4432472425058  0.6216742490294  0.1246257349857 1.0
C      1  0.5931956311345  0.7036619288608  0.4980336352174 1.0
C      1  0.4212359689311  0.5635575130645  0.5817815574695 1.0
C      1  0.1087449838335  0.4673336217209  0.3410683188426 1.0
C      1  0.4354034471242  0.2267590343150  0.3170742909954 1.0
C      1  0.6627256232006  0.6891702667466  0.7333288808593 1.0
C      1  0.7649823097111  0.1987054213299  0.4705570271522 1.0
C      1  0.0793877592046  0.5344215704893  0.4558136196506 1.0
C      1  0.7540296121893  0.7271961389504  0.3128238958822 1.0
C      1  0.6162879724193  0.8105042604906  0.3286555681935 1.0
C      1  0.4475782532218  0.4686741774430  0.5988922392322 1.0
C      1  0.5875815708080  0.4301448417390  0.4000837682716 1.0
C      1  0.6662155646996  0.2969603815602  0.4100712365682 1.0
C      1  0.7152311081300  0.1757092696379  0.5409568016437 1.0
C      1  0.8284486351713  0.5105722968050  0.6319252834642 1.0
C      1  0.8444204378771  0.6430536074411  0.4208459673580 1.0
C      1  0.6355743348574  0.4774652850420  0.9215341173832 1.0
C      1  0.3269490362377  0.4438458678036  0.3606796045775 1.0
C      1  0.3447151189200  0.7303782850187  0.2379423860146 1.0
C      1  0.5253705292621  0.3277175488496  0.6057782458461 1.0
C      1  0.4526652759822  0.3152394840259  0.8487348216032 1.0
C      1  0.4081863297350  0.5358839106177  0.1029129858053 1.0
C      1  0.5000186603826  0.4517747617711  0.2982323595623 1.0
C      1  0.2869975832719  0.7343691537232  0.5702377756773 1.0
C      1  0.3483247715608  0.4289946288509  0.5990401840571 1.0
C      1  0.3921884311343  0.3564579341759  0.1994432694578 1.0
C      1  0.4730200144643  0.6357306453372  0.6225768499456 1.0
C      1  0.3768744558485  0.7667543810036  0.5427461907066 1.0
C      1  0.6371570874271  0.7582859015291  0.6630735181990 1.0
C      1  0.0710889991161  0.3821581092622  0.5093190186065 1.0
C      1  0.4194030698712  0.8247890122992  0.4773837121934 1.0
C      1  0.1756225727459  0.6064785269365  0.5778844791325 1.0
C      1  0.5283280335853  0.7834038291802  0.6439038101739 1.0
C      1  0.4549520836094  0.4366067681879  0.2173232513477 1.0
C      1  0.7013325448861  0.5187388663325  0.8884517744552 1.0
C      1  0.4834585566301  0.6082373401601  0.7173032527395 1.0
C      1  0.6317763619708  0.4184977754843  0.1616246161414 1.0
C      1  0.5966190786286  0.4120408799237  0.4974020242131 1.0
C      1  0.4810068875417  0.4645031349783  0.1246244992126 1.0
C      1  0.6799607051397  0.7652911699522  0.2715743351677 1.0
C      1  0.1049037460231  0.4534749507464  0.5813431881592 1.0
C      1  0.4560335352733  0.4436164217607  0.7012299698035 1.0
C      1  0.2050820993652  0.6984870813277  0.5311021404848 1.0
C      1  0.2854285851243  0.7516647418359  0.3064266463500 1.0
END
