TITL C-519-9595-14 -7.043 3375.00 -1201.35941968 0 0 150 (Ci) n - 1
REM
REM Run started: at 2020.12.30 00:44:37 in /gpfs/home/chem/mssmkc/CARBON/AIRSS/Generating-Clusters/Str-Search/Higher-Symm/C100-200
REM VASP from code version vasp.5.4.4.18Apr17-6-g9f103f2a35 (build Oct 11 2019 16:45:47) gamma-only
REM
REM
REM
REM
REM ./C.cell (533062f00bc710175b3da973d35f2034)
REM AIRSS Version 0.9.1 bugfix July 2018 build 013d7b7c2542+ Fri, 06 Jul 2018 19:26:36 +0100
REM compiler GCC version 6.3.0
REM options -cpp -iprefix /gpfs/warwick/csc/orac/software/Core/GCCcore/6.3.0/bin/../lib/gcc/x86_64-pc-linux-gnu/6.3.0/ -mtune=generic -march=x86-64 -g -O0
REM seed -1939428295 589361937 -684868050 -1457192529 1133456646 -613292005 702103653 504102066 -516552099 1711491313 553220176 -406979157
REM
REM C.POTCAR (d86ddea03c3ceb6dc662c8ad6801f873)
REM 
CELL 1.54180   15.00000   15.00000   15.00000   90.00000   90.00000   90.00000
LATT -1
SFAC C  
C      1  0.5091082085668  0.6003665657630  0.3221436259650 1.0
C      1  0.4908917571436  0.3996334276215  0.6778564122095 1.0
C      1  0.5320650463223  0.2660495943533  0.8056509285039 1.0
C      1  0.4679349611158  0.7339503974354  0.1943490931523 1.0
C      1  0.3588901742145  0.5184350140292  0.7476589690662 1.0
C      1  0.6411098225959  0.4815649927589  0.2523410381901 1.0
C      1  0.6541016590911  0.5331345705881  0.4178229311309 1.0
C      1  0.3458983445992  0.4668654328298  0.5821770769969 1.0
C      1  0.5369484242578  0.7515249400820  0.7050054818838 1.0
C      1  0.4630515799351  0.2484750567818  0.2949945209463 1.0
C      1  0.5590989801990  0.6448411306001  0.8398157035922 1.0
C      1  0.4409010111267  0.3551588719553  0.1601843040647 1.0
C      1  0.3080547767106  0.5937938505357  0.7986771240840 1.0
C      1  0.6919452103176  0.4062061534943  0.2013228814208 1.0
C      1  0.6188384365947  0.5157059528355  0.1105003730114 1.0
C      1  0.3811615777351  0.4842940435160  0.8894996104008 1.0
C      1  0.8631288881793  0.5803852116773  0.4102242267280 1.0
C      1  0.1368711321247  0.4196147895189  0.5897757729355 1.0
C      1  0.7408133695739  0.5047892450310  0.7647589880009 1.0
C      1  0.2591866518145  0.4952107697831  0.2352410131351 1.0
C      1  0.5901599476530  0.5636518953248  0.6392118627919 1.0
C      1  0.4098400474408  0.4363481054394  0.3607881327648 1.0
C      1  0.2780765157396  0.7429761831246  0.4748259124438 1.0
C      1  0.7219234719831  0.2570238344999  0.5251740923137 1.0
C      1  0.6429151308565  0.6571256380342  0.8004550121448 1.0
C      1  0.3570848630903  0.3428743630929  0.1995449820347 1.0
C      1  0.1264770006052  0.5021170677390  0.5903395585822 1.0
C      1  0.8735229979355  0.4978829399752  0.4096604377221 1.0
C      1  0.6704299313180  0.3620929283395  0.8164792532356 1.0
C      1  0.3295700581727  0.6379070843600  0.1835207400043 1.0
C      1  0.5983449310682  0.3197408477256  0.7730328837293 1.0
C      1  0.4016550858474  0.6802591501248  0.2269671211024 1.0
C      1  0.2032702343337  0.3652135533164  0.5458105187463 1.0
C      1  0.7967297602675  0.6347864243962  0.4541894913597 1.0
C      1  0.3600976816039  0.8299893362715  0.5926625582261 1.0
C      1  0.6399023129728  0.1700106773799  0.4073374565441 1.0
C      1  0.7577268511158  0.3899108498858  0.6392474942875 1.0
C      1  0.2422731671943  0.6100891518648  0.3607525069734 1.0
C      1  0.2282124112664  0.5839516967087  0.7423877963998 1.0
C      1  0.7717875904656  0.4160483002281  0.2576122009039 1.0
C      1  0.4463564135430  0.3322808573088  0.4803217896103 1.0
C      1  0.5536435906235  0.6677191599338  0.5196782051987 1.0
C      1  0.8160547075908  0.6194146747212  0.5551085974833 1.0
C      1  0.1839453146245  0.3805853251653  0.4448914068680 1.0
C      1  0.7906424015933  0.3779072909054  0.3387425004644 1.0
C      1  0.2093575903927  0.6220927156813  0.6612575061476 1.0
C      1  0.3464711915996  0.3442067878133  0.4812877173683 1.0
C      1  0.6535288046846  0.6557932101476  0.5187122748048 1.0
C      1  0.6690365240267  0.5690701385084  0.5759421406699 1.0
C      1  0.3309634880552  0.4309298562513  0.4240578663151 1.0
C      1  0.6015959553482  0.8615278789873  0.6185796042687 1.0
C      1  0.3984040370996  0.1384721272695  0.3814203853710 1.0
C      1  0.4644659911158  0.2315760328822  0.6716848752318 1.0
C      1  0.5355340367215  0.7684239701706  0.3283151076715 1.0
C      1  0.6599936696669  0.4066340376855  0.5274998753294 1.0
C      1  0.3400063330093  0.5933659472625  0.4725001282345 1.0
C      1  0.6292814887869  0.7237472954501  0.7274081771853 1.0
C      1  0.3707185039365  0.2762527023703  0.2725918309966 1.0
C      1  0.2605855273978  0.4975923439640  0.7815809427931 1.0
C      1  0.7394144682317  0.5024076583421  0.2184190513911 1.0
C      1  0.7367957237278  0.3020291475528  0.3760456932719 1.0
C      1  0.2632042866957  0.6979708390488  0.6239543131688 1.0
C      1  0.7975855290833  0.7035027368774  0.5293469735366 1.0
C      1  0.2024144801621  0.2964972634277  0.4706530304805 1.0
C      1  0.1586474234507  0.6560510172590  0.5115327555419 1.0
C      1  0.8413525680378  0.3439489747275  0.4884672474993 1.0
C      1  0.3007066186711  0.8493393434778  0.7129745880896 1.0
C      1  0.6992933747066  0.1506606613421  0.2870254021170 1.0
C      1  0.5145378704897  0.1183805211553  0.4812993398167 1.0
C      1  0.4854621137185  0.8816194655950  0.5187006454760 1.0
C      1  0.4786954742837  0.1653787138976  0.3337285895360 1.0
C      1  0.5213045433222  0.8346212782480  0.6662714142873 1.0
C      1  0.6924649215702  0.2214163966293  0.3396369896733 1.0
C      1  0.3075350868530  0.7785835894373  0.6603630241990 1.0
C      1  0.7003049396803  0.4773760712130  0.1268252974308 1.0
C      1  0.2996950636670  0.5226239408120  0.8731747012249 1.0
C      1  0.2504242030069  0.3596817702848  0.3046155264343 1.0
C      1  0.7495757875244  0.6403182299751  0.6953844710381 1.0
C      1  0.3407522334124  0.6202744734765  0.3742265556467 1.0
C      1  0.6592477671822  0.3797255279481  0.6257734590802 1.0
C      1  0.6127885337955  0.8116521952694  0.2756393036062 1.0
C      1  0.3872114584574  0.1883478488254  0.7243606789127 1.0
C      1  0.4918130996725  0.5298951438570  0.2442172609619 1.0
C      1  0.5081868994231  0.4701048439128  0.7557827317294 1.0
C      1  0.5664357801209  0.5252674885093  0.7156618906207 1.0
C      1  0.4335642114733  0.4747325022482  0.2843380950401 1.0
C      1  0.6584096436686  0.8261298900616  0.5561561454524 1.0
C      1  0.3415903668865  0.1738701103278  0.4438438703344 1.0
C      1  0.4289022769111  0.4841894147712  0.8124335508599 1.0
C      1  0.5710977281410  0.5158105637079  0.1875664408810 1.0
C      1  0.4444966948330  0.4623084853245  0.6097785414576 1.0
C      1  0.5555033043891  0.5376915031410  0.3902214582132 1.0
C      1  0.4259307443134  0.3253800858371  0.6933479398964 1.0
C      1  0.5740692052567  0.6746198974668  0.3066520621421 1.0
C      1  0.1518851745190  0.5908417641748  0.5858817680542 1.0
C      1  0.8481148394431  0.4091582329677  0.4141182441012 1.0
C      1  0.5095218669161  0.7195869382880  0.4649548325961 1.0
C      1  0.4904781244057  0.2804130779985  0.5350451591615 1.0
C      1  0.4243736576326  0.8474242149563  0.4511295570695 1.0
C      1  0.5756263407612  0.1525757678316  0.5488704185265 1.0
C      1  0.4199373474480  0.1245468661513  0.4724856235882 1.0
C      1  0.5800626493742  0.8754531374405  0.5275143733908 1.0
C      1  0.5183126290945  0.3392613785304  0.1918198381107 1.0
C      1  0.4816873651419  0.6607386225461  0.8081801629924 1.0
C      1  0.3349245470942  0.5039932576449  0.4924149329110 1.0
C      1  0.6650754510919  0.4960067384629  0.5075850906079 1.0
C      1  0.2858505348832  0.5680370529164  0.1829847991480 1.0
C      1  0.7141494893771  0.4319629421748  0.8170152213483 1.0
C      1  0.2337749735250  0.4277980819220  0.3744953031048 1.0
C      1  0.7662250259215  0.5722019213074  0.6255046916927 1.0
C      1  0.2809979903121  0.3987822504926  0.2251731247426 1.0
C      1  0.7190020155314  0.6012177466165  0.7748268753757 1.0
C      1  0.2280788374898  0.5168182323993  0.3233868118207 1.0
C      1  0.7719211554863  0.4831817735631  0.6766131788660 1.0
C      1  0.5218615764780  0.2215764255081  0.5961675870492 1.0
C      1  0.4781384587769  0.7784235718047  0.4038323653718 1.0
C      1  0.7969520374237  0.3306079091340  0.5789024242442 1.0
C      1  0.2030479603583  0.6693920833774  0.4210975755710 1.0
C      1  0.5341004518123  0.3212721287284  0.2832400516477 1.0
C      1  0.4658995443827  0.6787278809122  0.7167599583553 1.0
C      1  0.2990580303076  0.2841131325555  0.3342310501705 1.0
C      1  0.7009419527656  0.7158868607841  0.6657689551978 1.0
C      1  0.6842862465114  0.7737183969706  0.3214240675177 1.0
C      1  0.3157137962645  0.2262816368769  0.6785759550688 1.0
C      1  0.3318411981152  0.3126259607826  0.6530778911478 1.0
C      1  0.6681587624977  0.6873739929221  0.3469220854330 1.0
C      1  0.4874922493288  0.3988167562328  0.4185673530668 1.0
C      1  0.5125077409508  0.6011832521440  0.5814326463734 1.0
C      1  0.3024521437944  0.3719981285840  0.5776241856462 1.0
C      1  0.6975478391510  0.6280018973302  0.4223757518036 1.0
C      1  0.6560967627060  0.1797198766386  0.5052608592461 1.0
C      1  0.3439032330977  0.8202801373986  0.4947391221469 1.0
C      1  0.5643360390601  0.3773177422888  0.3556549580711 1.0
C      1  0.4356639496808  0.6226822673316  0.6443450407962 1.0
C      1  0.3258041869430  0.6686788708654  0.5314499165720 1.0
C      1  0.6741958374513  0.3313211240554  0.4685500701899 1.0
C      1  0.5075575898270  0.4865671472188  0.4582123449650 1.0
C      1  0.4924424152257  0.5134328612229  0.5417876449324 1.0
C      1  0.7871300659216  0.2758923461949  0.4543787225954 1.0
C      1  0.2128699345882  0.7241076422582  0.5456212760172 1.0
C      1  0.5532483865473  0.7405636579124  0.2302110659588 1.0
C      1  0.4467516045619  0.2594363550403  0.7697889875785 1.0
C      1  0.3846426547363  0.5332436941380  0.6547337440886 1.0
C      1  0.6153573448461  0.4667563048145  0.3452662541232 1.0
C      1  0.4485365779186  0.8606604474779  0.6057498733991 1.0
C      1  0.5514634222595  0.1393395438530  0.3942501324447 1.0
C      1  0.4119400231008  0.6393044637847  0.3197953849684 1.0
C      1  0.5880599649253  0.3606955251902  0.6802046148619 1.0
C      1  0.2928201861690  0.2635166877965  0.4345716191856 1.0
C      1  0.7071798182815  0.7364833059990  0.5654283981970 1.0
END
