TITL C-5119-875-22 -8.675 3375.00 -1481.75616040 0 0 180 (C1) n - 1
REM
REM Run started: at 2020.12.26 08:12:19 in /gpfs/home/chem/mssmkc/CARBON/AIRSS/Generating-Clusters/Str-Search/Higher-Symm/Only-C180
REM VASP from code version vasp.5.4.4.18Apr17-6-g9f103f2a35 (build Oct 11 2019 16:45:47) gamma-only
REM
REM
REM
REM
REM ./C.cell (73b75853f6e4503fb4b57bac71549d7d)
REM AIRSS Version 0.9.1 bugfix July 2018 build 013d7b7c2542+ Fri, 06 Jul 2018 19:26:36 +0100
REM compiler GCC version 6.3.0
REM options -cpp -iprefix /gpfs/warwick/csc/orac/software/Core/GCCcore/6.3.0/bin/../lib/gcc/x86_64-pc-linux-gnu/6.3.0/ -mtune=generic -march=x86-64 -g -O0
REM seed -1350326564 -1524915760 -1102456086 -966583204 -1140044656 1342363262 236994544 -623021898 -1432115944 1146493819 -710520940 -2071003794
REM
REM C.POTCAR (d86ddea03c3ceb6dc662c8ad6801f873)
REM 
CELL 1.54180   15.00000   15.00000   15.00000   90.00000   90.00000   90.00000
LATT -1
SFAC C  
C      1  0.5592086885319  0.2142415041261  0.6261031197624 1.0
C      1  0.6308111119341  0.2323412067346  0.5605286652644 1.0
C      1  0.6248065925586  0.1822528284013  0.4818951209319 1.0
C      1  0.6201926285088  0.2382455240167  0.4100446576462 1.0
C      1  0.5462328218230  0.2334448929865  0.3508603735159 1.0
C      1  0.4754753287232  0.1804733161680  0.3629510891540 1.0
C      1  0.3913919783955  0.2201227643542  0.3230236365734 1.0
C      1  0.3184623172359  0.1870255598610  0.3824254779783 1.0
C      1  0.3510334752424  0.2126778632844  0.4700818007616 1.0
C      1  0.4251239539088  0.1656484973892  0.5058734468516 1.0
C      1  0.4680002879083  0.2110611294525  0.5779492691934 1.0
C      1  0.7419211330393  0.1314798231349  0.6488564309931 1.0
C      1  0.8076202574806  0.1220034302344  0.4912796283504 1.0
C      1  0.7594117950651  0.1247304628629  0.3272681047742 1.0
C      1  0.6318036953394  0.1380288016908  0.2127982445115 1.0
C      1  0.4645235359825  0.1636241451359  0.1820885383390 1.0
C      1  0.2952618551521  0.1556290361971  0.2138032921737 1.0
C      1  0.2359963047385  0.1492128718586  0.3626463256313 1.0
C      1  0.1969446190991  0.1264718018469  0.5233841447299 1.0
C      1  0.2769436962182  0.1307063152321  0.6734312983695 1.0
C      1  0.4274673951405  0.1386414816419  0.7505336711246 1.0
C      1  0.5846178117408  0.1613310810380  0.7089267698867 1.0
C      1  0.7626835715876  0.4297853138496  0.7509542227064 1.0
C      1  0.7458447583797  0.4218384902915  0.4755978879845 1.0
C      1  0.7890739418103  0.4305577797098  0.3938584998429 1.0
C      1  0.5681114594405  0.4524745458575  0.1853519961821 1.0
C      1  0.4834546021099  0.4455963977291  0.2433941349277 1.0
C      1  0.2546235911872  0.5052688417604  0.3388148114734 1.0
C      1  0.2582165009107  0.4289113660799  0.3896200384502 1.0
C      1  0.2662614810900  0.4767015927316  0.5858081252312 1.0
C      1  0.3483353357436  0.4327590990855  0.5793285039774 1.0
C      1  0.5392673821011  0.4224184521727  0.8509625891186 1.0
C      1  0.7016039967216  0.3964747613971  0.7962548945044 1.0
C      1  0.3842821079419  0.1819974394720  0.2227002048096 1.0
C      1  0.2311504888174  0.1428468230909  0.2665229083921 1.0
C      1  0.1853639096059  0.1238924922871  0.4392468196787 1.0
C      1  0.2220703909467  0.1242604061383  0.6080852624163 1.0
C      1  0.3439076554209  0.1321593108528  0.7291515604592 1.0
C      1  0.5135706298300  0.1378421483171  0.7625471717916 1.0
C      1  0.6758858991702  0.1385442195440  0.7013261353818 1.0
C      1  0.7900585003869  0.1220407277093  0.5744622298527 1.0
C      1  0.7968972393314  0.1214113392674  0.4036278954632 1.0
C      1  0.7015900355304  0.1303879619452  0.2608293807474 1.0
C      1  0.5484744873422  0.1518997725625  0.1864208983512 1.0
C      1  0.8041336671418  0.6218127537998  0.6051128270379 1.0
C      1  0.7949595168904  0.6329099536271  0.4417953355043 1.0
C      1  0.6930847604839  0.6348856930535  0.2944166471827 1.0
C      1  0.5340304198950  0.6444317736117  0.2402104122798 1.0
C      1  0.2996515152326  0.7051635496549  0.2141156469560 1.0
C      1  0.1737921625683  0.6912344426100  0.3239261822018 1.0
C      1  0.1579550616149  0.6406713373220  0.5297516659600 1.0
C      1  0.1884578247610  0.6200967078748  0.6935920196963 1.0
C      1  0.4009613040855  0.4995084225541  0.7946745485276 1.0
C      1  0.5614852645814  0.5628891797751  0.8087051181281 1.0
C      1  0.7468936055283  0.6472332391212  0.7608694700152 1.0
C      1  0.7170280415059  0.7183669192808  0.1819475911493 1.0
C      1  0.6364671633226  0.7551440757134  0.1955556940777 1.0
C      1  0.3563980008506  0.8596700709682  0.1835465138667 1.0
C      1  0.2657142391016  0.8255535884704  0.3127377413578 1.0
C      1  0.2060914778717  0.7933397138081  0.4588958246236 1.0
C      1  0.1806770217264  0.7698929272285  0.6211912504221 1.0
C      1  0.3196498712071  0.5755978655816  0.9077506552852 1.0
C      1  0.4582971081059  0.6703612869970  0.8674958506042 1.0
C      1  0.5982962037612  0.7210069979516  0.7900756529772 1.0
C      1  0.9005181324910  0.6179693036766  0.6499705630281 1.0
C      1  0.8698513409912  0.7461992869953  0.5303831548612 1.0
C      1  0.4937897257860  0.9054977991772  0.2668042739643 1.0
C      1  0.4209852717781  0.9053667365566  0.2098834532401 1.0
C      1  0.3272151051163  0.8711786805968  0.3768223030178 1.0
C      1  0.2848888842512  0.8585617806320  0.4720088948905 1.0
C      1  0.2550820060373  0.7832579138795  0.6835302536082 1.0
C      1  0.3387140422474  0.8054402036084  0.6966933113114 1.0
C      1  0.5758343209729  0.8002631110610  0.7425898035269 1.0
C      1  0.6645578017063  0.8044570404871  0.6986194012859 1.0
C      1  0.7015648343901  0.9091678027865  0.5512403631374 1.0
C      1  0.7128922574393  0.8623415129472  0.4701329959729 1.0
C      1  0.6364597648915  0.8645800190171  0.4014752349375 1.0
C      1  0.4422291210492  0.4577071484788  0.1009188113374 1.0
C      1  0.3269625529927  0.5479095199917  0.1942112676312 1.0
C      1  0.1053935551942  0.5329854737803  0.3396306601549 1.0
C      1  0.0890931266441  0.4530682867649  0.5780939901246 1.0
C      1  0.2430273733700  0.5994365345163  0.8406343627135 1.0
C      1  0.4085103838580  0.4347947008910  0.9460464841704 1.0
C      1  0.6502918431749  0.4192316226292  0.9644508567887 1.0
C      1  0.8101280523856  0.5421569989733  0.8549691807870 1.0
C      1  0.8921823959967  0.4680607365019  0.5669063989679 1.0
C      1  0.8754378924372  0.5244411519508  0.2744331890045 1.0
C      1  0.7130489968139  0.5431648493170  0.1572559556656 1.0
C      1  0.4348009541279  0.8039639258105  0.5641753354897 1.0
C      1  0.4211735540063  0.8146756273029  0.6622853326785 1.0
C      1  0.5095323470640  0.8398860761682  0.6939229362116 1.0
C      1  0.5587737364742  0.8828058365863  0.6179076003052 1.0
C      1  0.6595751800713  0.8658341966517  0.6297482565836 1.0
C      1  0.7572948024052  0.7936032307051  0.4248747620501 1.0
C      1  0.7009599435333  0.7989634153424  0.3509593298433 1.0
C      1  0.5129840087786  0.8108914250711  0.2861148834032 1.0
C      1  0.4881333795183  0.7976768517233  0.3804758660656 1.0
C      1  0.4005934441963  0.8081983136008  0.4083424302233 1.0
C      1  0.3711385309834  0.8048978919047  0.4958801936614 1.0
C      1  0.4988106181525  0.4891481011999  0.7963302330199 1.0
C      1  0.6454660651555  0.5361807762426  0.8424517825021 1.0
C      1  0.8120982619759  0.5948630635481  0.7010394121696 1.0
C      1  0.7892054555935  0.5797556040563  0.5195186196430 1.0
C      1  0.7751296469064  0.5991934872083  0.3486602948488 1.0
C      1  0.6088217624585  0.5919741242479  0.2656285777254 1.0
C      1  0.4542309985878  0.6076326641395  0.1979413293873 1.0
C      1  0.2353814775266  0.6540821876721  0.2625204750770 1.0
C      1  0.1615420956228  0.5918559315667  0.4514574744635 1.0
C      1  0.1415694860544  0.5811582084069  0.6139816173169 1.0
C      1  0.3402723686678  0.5369519897093  0.7273486822302 1.0
C      1  0.3596757319021  0.9682886564911  0.4046171050114 1.0
C      1  0.3132386047422  0.9572773785668  0.4883697397150 1.0
C      1  0.3558691277349  0.9868302451613  0.5650750424557 1.0
C      1  0.4314128092330  0.9933743658535  0.5991719316170 1.0
C      1  0.5223797943455  0.9788656486440  0.6014510992437 1.0
C      1  0.5831437623970  0.0347902806240  0.5598434341703 1.0
C      1  0.6607170493522  0.9893701310441  0.5267812217308 1.0
C      1  0.6276802010504  0.0184405500953  0.4405310145834 1.0
C      1  0.5983939704079  0.9571644184175  0.3791526086524 1.0
C      1  0.5112287148821  0.9687200024716  0.3374279064503 1.0
C      1  0.4422190619224  0.0156848031517  0.3890533355013 1.0
C      1  0.2190002711219  0.5955867698352  0.9251604297243 1.0
C      1  0.2882606176093  0.4664231248626  0.0578918255319 1.0
C      1  0.7167391856580  0.4481284224678  0.0184010889429 1.0
C      1  0.8897184769398  0.5166437283406  0.8277860543835 1.0
C      1  0.9468911384491  0.3932876829971  0.5508632251644 1.0
C      1  0.9619996945445  0.4998366029756  0.2600031308918 1.0
C      1  0.7364470224531  0.4959206568486  0.0842904207199 1.0
C      1  0.3773345331850  0.4455190659946  0.0335520720288 1.0
C      1  0.2723863564342  0.5175884036869  0.1202582328154 1.0
C      1  0.0417767712526  0.4996248390512  0.2847222235977 1.0
C      1  0.0301732922853  0.3854381659959  0.5527274237366 1.0
C      1  0.3877842269294  0.3272224422733  0.3350505951010 1.0
C      1  0.3144991391562  0.3557073981911  0.3977878357343 1.0
C      1  0.3357945170190  0.3044174960847  0.4811579298903 1.0
C      1  0.3821247012210  0.3513115659105  0.5512036735604 1.0
C      1  0.4536963438120  0.3046332284499  0.5900597741092 1.0
C      1  0.5477848328473  0.3154668389888  0.6144257804917 1.0
C      1  0.6293418507145  0.3294920808965  0.5648393312489 1.0
C      1  0.6626667688100  0.3803502049671  0.4861107589806 1.0
C      1  0.6217453815053  0.3350775512544  0.4056402886279 1.0
C      1  0.5481921321911  0.3315265314040  0.3412994791715 1.0
C      1  0.4695798295055  0.3782749442559  0.3048206007843 1.0
C      1  0.8168437326477  0.7273553423539  0.4586393611740 1.0
C      1  0.6941697186180  0.7376375751523  0.2802554523931 1.0
C      1  0.5475677605040  0.7426967635669  0.2346070344715 1.0
C      1  0.2988637830033  0.7998215979913  0.2268261625279 1.0
C      1  0.2048700534354  0.7727882039861  0.3647039493380 1.0
C      1  0.1728448080774  0.7387528136627  0.5307197798738 1.0
C      1  0.1898907301857  0.7121883052790  0.6932683289029 1.0
C      1  0.3894727502561  0.6385712328456  0.9015207559153 1.0
C      1  0.5383772810354  0.6569917394086  0.8220849364114 1.0
C      1  0.6883990419954  0.7184249587332  0.7488285677904 1.0
C      1  0.8708423946017  0.6948792731306  0.6015063663378 1.0
C      1  0.1807818925996  0.5013821645834  0.4055186854098 1.0
C      1  0.1754278349177  0.4884000916319  0.5906083222332 1.0
C      1  0.3389761898948  0.5020060110207  0.6406834000477 1.0
C      1  0.4979370819056  0.4043070596103  0.9333122256954 1.0
C      1  0.6393845648604  0.4348086485524  0.8636228355361 1.0
C      1  0.8217506116813  0.5041045969635  0.7527278833345 1.0
C      1  0.8039357898830  0.4828684141599  0.5301509611847 1.0
C      1  0.8128137222569  0.4978411563189  0.3417862118269 1.0
C      1  0.6307704382732  0.5168534362151  0.2053706986976 1.0
C      1  0.4247062813017  0.5067655657714  0.1892641817625 1.0
C      1  0.2690607215891  0.5622662064206  0.2719789622100 1.0
C      1  0.8300652647570  0.6096547413211  0.2631248813947 1.0
C      1  0.7514133125051  0.6239130749303  0.2008612178744 1.0
C      1  0.5326674869009  0.4312658511522  0.0930394576081 1.0
C      1  0.3676419918254  0.6411615492028  0.1865040981286 1.0
C      1  0.1242848194083  0.6220744053332  0.3674200227149 1.0
C      1  0.0433735395098  0.5336017538473  0.6084830517081 1.0
C      1  0.2575056257191  0.5815721955529  0.7500875643399 1.0
C      1  0.3656737582544  0.4884310491410  0.8816225733841 1.0
C      1  0.5622878757840  0.4054650184918  0.0053346633151 1.0
C      1  0.7272082693951  0.5827909177792  0.8348348269052 1.0
C      1  0.9511057039664  0.5418714903868  0.6095019155919 1.0
C      1  0.5242794690414  0.8276040101724  0.5368743340694 1.0
C      1  0.5537444044382  0.8196655315095  0.4464124044848 1.0
C      1  0.5727718309247  0.0951060409333  0.4763588789254 1.0
C      1  0.4755202731499  0.1061281240503  0.4353620169723 1.0
END
