TITL C-5119-875-26 -8.558 3375.00 -1497.73776052 0 0 180 (Cs) n - 1
REM
REM Run started: at 2020.12.26 11:20:04 in /gpfs/home/chem/mssmkc/CARBON/AIRSS/Generating-Clusters/Str-Search/Higher-Symm/Only-C180
REM VASP from code version vasp.5.4.4.18Apr17-6-g9f103f2a35 (build Oct 11 2019 16:45:47) gamma-only
REM
REM
REM
REM
REM ./C.cell (73b75853f6e4503fb4b57bac71549d7d)
REM AIRSS Version 0.9.1 bugfix July 2018 build 013d7b7c2542+ Fri, 06 Jul 2018 19:26:36 +0100
REM compiler GCC version 6.3.0
REM options -cpp -iprefix /gpfs/warwick/csc/orac/software/Core/GCCcore/6.3.0/bin/../lib/gcc/x86_64-pc-linux-gnu/6.3.0/ -mtune=generic -march=x86-64 -g -O0
REM seed -205576972 -1203492337 -1415046907 1708807211 -1782440293 -672426843 -674278464 -192902357 -713911331 -1240435672 -1992089169 -2003435758
REM
REM C.POTCAR (d86ddea03c3ceb6dc662c8ad6801f873)
REM 
CELL 1.54180   15.00000   15.00000   15.00000   90.00000   90.00000   90.00000
LATT -1
SFAC C  
C      1  0.7126646343837  0.2124799586577  0.6846831692628 1.0
C      1  0.6279501669611  0.8301926956021  0.6809946533496 1.0
C      1  0.1663198343389  0.4527570108455  0.6876253680725 1.0
C      1  0.7126647420809  0.7875215001639  0.6846827131204 1.0
C      1  0.6279502790669  0.1698084827815  0.6809951733712 1.0
C      1  0.1663199656470  0.5472422039372  0.6876253842559 1.0
C      1  0.8580934658858  0.4541381437558  0.4640267566434 1.0
C      1  0.3761827923337  0.8089920872511  0.4562630662670 1.0
C      1  0.2971544154523  0.2390817267421  0.4566207660984 1.0
C      1  0.8580933632918  0.5458617040079  0.4640259921733 1.0
C      1  0.3761831030896  0.1910082864426  0.4562637369015 1.0
C      1  0.2971541778057  0.7609181427590  0.4566197395777 1.0
C      1  0.2876691406955  0.7683253582993  0.7024005865515 1.0
C      1  0.3767514032498  0.1770118613968  0.6901692794429 1.0
C      1  0.8354582193646  0.5506511832867  0.7126053185351 1.0
C      1  0.2876678435444  0.2316738354548  0.7024022122536 1.0
C      1  0.3767504537958  0.8229875183918  0.6901675594687 1.0
C      1  0.8354569990191  0.4493514166209  0.7126086004225 1.0
C      1  0.2668176310512  0.5545534558008  0.7035297546597 1.0
C      1  0.5771528250422  0.2554265583137  0.7066100779965 1.0
C      1  0.6726333127166  0.6954396153996  0.7128209878337 1.0
C      1  0.2668174294398  0.4454455900163  0.7035298503549 1.0
C      1  0.5771527753162  0.7445739712585  0.7066094167296 1.0
C      1  0.6726335354455  0.3045603977314  0.7128213737658 1.0
C      1  0.9216218583231  0.3762378566172  0.5820916647432 1.0
C      1  0.3860812113605  0.9478699358347  0.5617391716651 1.0
C      1  0.1915777953364  0.1992379489978  0.5676830012382 1.0
C      1  0.9216226406184  0.6237668382337  0.5820799476144 1.0
C      1  0.3860819638836  0.0521303449225  0.5617393197925 1.0
C      1  0.1915773325748  0.8007585509092  0.5676831642371 1.0
C      1  0.6187940619241  0.3859878075767  0.8386931928646 1.0
C      1  0.5337975369430  0.6625397867476  0.8373645964926 1.0
C      1  0.3449782994653  0.4495660961181  0.8383819854551 1.0
C      1  0.6187940849656  0.6140126737289  0.8386924522146 1.0
C      1  0.5337976035293  0.3374608376273  0.8373653888133 1.0
C      1  0.3449785647701  0.5504342851779  0.8383819830589 1.0
C      1  0.1257196556685  0.5495386824398  0.5311685577423 1.0
C      1  0.6387555691331  0.1482780578141  0.5177319934828 1.0
C      1  0.7218352118290  0.8001458107777  0.5196273588709 1.0
C      1  0.1257197561680  0.4504607654501  0.5311685874121 1.0
C      1  0.6387553360907  0.8517220571558  0.5177316322883 1.0
C      1  0.7218353978872  0.1998548858558  0.5196279058368 1.0
C      1  0.6986899827915  0.2330759780779  0.4296098717996 1.0
C      1  0.6196555219703  0.8243662261059  0.4261528669963 1.0
C      1  0.1627167159108  0.4509571424950  0.4412470725755 1.0
C      1  0.6986895360048  0.7669242496538  0.4296096720802 1.0
C      1  0.6196560352267  0.1756338566945  0.4261530969439 1.0
C      1  0.1627164586878  0.5490425853679  0.4412470119974 1.0
C      1  0.5466156876462  0.7968515945902  0.3754663439419 1.0
C      1  0.2266667388168  0.4020196527676  0.3962028896102 1.0
C      1  0.6982557791074  0.3123081091510  0.3836572105071 1.0
C      1  0.5466162617089  0.2031483494069  0.3754663274795 1.0
C      1  0.2266661749054  0.5979803324770  0.3962025884383 1.0
C      1  0.6982557140351  0.6876919568421  0.3836573478250 1.0
C      1  0.4957945367939  0.3025837796012  0.2562537280280 1.0
C      1  0.6478315843256  0.6177379517394  0.2364447035795 1.0
C      1  0.3276097921238  0.5908886155614  0.2699762268497 1.0
C      1  0.4957941398694  0.6974162167650  0.2562539106898 1.0
C      1  0.6478302856702  0.3822616431140  0.2364448208276 1.0
C      1  0.3276099466317  0.4091114122685  0.2699763867760 1.0
C      1  0.7016071846718  0.5473723373314  0.5050824007448 1.0
C      1  0.3758301776575  0.6229043711810  0.4656982580402 1.0
C      1  0.4697341604166  0.3216534099617  0.4632599241814 1.0
C      1  0.7016069076333  0.4526275187525  0.5050824609127 1.0
C      1  0.3758305081398  0.3770955747604  0.4656982341856 1.0
C      1  0.4697336669016  0.6783469634879  0.4632601367156 1.0
C      1  0.2690712790278  0.5947160784761  0.6075509202193 1.0
C      1  0.5410434611962  0.2454181397110  0.6080241870524 1.0
C      1  0.7025778954019  0.6686270501828  0.6197493911674 1.0
C      1  0.2690714167873  0.4052829437142  0.6075510239331 1.0
C      1  0.5410433630391  0.7545820272926  0.6080236329072 1.0
C      1  0.7025785421934  0.3313738059295  0.6197508454886 1.0
C      1  0.2052902508874  0.7938225647765  0.4771980790895 1.0
C      1  0.3854446875663  0.0949696145043  0.4737130834029 1.0
C      1  0.9196417538880  0.6164399987891  0.4895376503808 1.0
C      1  0.2052916361871  0.2061781515468  0.4771997544442 1.0
C      1  0.3854429188091  0.9050311830835  0.4737126410084 1.0
C      1  0.9196433522060  0.3835602901945  0.4895364360991 1.0
C      1  0.5991077098299  0.3774499369142  0.1542417648340 1.0
C      1  0.5139641658995  0.6674880769897  0.1606627113318 1.0
C      1  0.3256957740131  0.4518550064996  0.1794495432137 1.0
C      1  0.5991074534348  0.6225497091195  0.1542425087675 1.0
C      1  0.5139642825895  0.3325118169046  0.1606624068778 1.0
C      1  0.3256961814057  0.5481448087695  0.1794496937469 1.0
C      1  0.6519644680570  0.6937113054781  0.2976036527306 1.0
C      1  0.2575984431922  0.5459828446492  0.3238136079154 1.0
C      1  0.5731234002259  0.2535345372146  0.2989967956949 1.0
C      1  0.6519646838345  0.3062884714598  0.2976035108934 1.0
C      1  0.2575987284243  0.4540171818300  0.3238137463417 1.0
C      1  0.5731229659288  0.7464650762494  0.2989971401863 1.0
C      1  0.3611746343265  0.8242029040277  0.2810808876495 1.0
C      1  0.2783162201988  0.2287761947956  0.2766161198566 1.0
C      1  0.8678119836454  0.4518995703430  0.3084208131375 1.0
C      1  0.3611744974865  0.1757972302403  0.2810811093792 1.0
C      1  0.2783159116613  0.7712241290948  0.2766152346946 1.0
C      1  0.8678137534217  0.5480969947330  0.3084210240597 1.0
C      1  0.5811039536427  0.5462689646299  0.8970304451445 1.0
C      1  0.4177249703892  0.5490898352697  0.9026911124959 1.0
C      1  0.4967973129208  0.4046619001296  0.8984856316204 1.0
C      1  0.5811037003133  0.4537325670135  0.8970297487994 1.0
C      1  0.4177243567540  0.4509107701701  0.9026913220779 1.0
C      1  0.4967976388103  0.5953390338653  0.8984856296672 1.0
C      1  0.1589674201016  0.1983695068789  0.3942508154868 1.0
C      1  0.9511065007578  0.3535467333439  0.4049563201472 1.0
C      1  0.3895252942521  0.9517922600232  0.3897810212078 1.0
C      1  0.1589668514217  0.8016305339543  0.3942489369558 1.0
C      1  0.9511040669912  0.6464508802330  0.4049572806640 1.0
C      1  0.3895256545283  0.0482082042951  0.3897816092031 1.0
C      1  0.3005852566609  0.6697939381848  0.4103233800793 1.0
C      1  0.4531665943253  0.2372973677372  0.4037410744366 1.0
C      1  0.7068086519447  0.5914813978330  0.4138200566155 1.0
C      1  0.3005855105492  0.3302055847178  0.4103239941124 1.0
C      1  0.4531661579511  0.7627029645417  0.4037411032736 1.0
C      1  0.7068084982260  0.4085182930770  0.4138202908389 1.0
C      1  0.7547567312506  0.5523135383114  0.7646807761538 1.0
C      1  0.3329840654245  0.7029040136505  0.7564635382301 1.0
C      1  0.4168404076887  0.2486913685012  0.7509898336192 1.0
C      1  0.7547560125076  0.4476898985913  0.7646843641863 1.0
C      1  0.3329835617683  0.2970958446093  0.7564650202483 1.0
C      1  0.4168403711736  0.7513077207799  0.7509880509074 1.0
C      1  0.5860035316005  0.1589951414367  0.5950790671924 1.0
C      1  0.7427812910024  0.7542392386623  0.5980873284953 1.0
C      1  0.1692197337185  0.5903176029498  0.6020866658885 1.0
C      1  0.5860029878332  0.8410056708770  0.5950786039405 1.0
C      1  0.7427815574632  0.2457616299294  0.5980878742698 1.0
C      1  0.1692195373400  0.4096814273826  0.6020867000062 1.0
C      1  0.9316845723232  0.6150232655572  0.3287890316512 1.0
C      1  0.2010630719010  0.7923568732079  0.3208410777192 1.0
C      1  0.3763521353833  0.0924339357054  0.3099637408927 1.0
C      1  0.9316866049561  0.3849727933723  0.3287924453449 1.0
C      1  0.2010636535991  0.2076436355915  0.3208416474602 1.0
C      1  0.3763524811355  0.9075668049061  0.3099626735180 1.0
C      1  0.4249313142514  0.4527953487797  0.5968542987654 1.0
C      1  0.5875097851018  0.4523400489678  0.6129506401072 1.0
C      1  0.5065026356346  0.5948675157959  0.5992312265122 1.0
C      1  0.4249312447519  0.5472046786157  0.5968547797714 1.0
C      1  0.5875097502703  0.5476599768592  0.6129507062359 1.0
C      1  0.5065027795136  0.4051322236732  0.5992313886571 1.0
C      1  0.7954566772273  0.5502308164154  0.3821852036905 1.0
C      1  0.3283389045883  0.6867872341931  0.3087097560744 1.0
C      1  0.4157854868307  0.2604827321363  0.3059973204976 1.0
C      1  0.7954563573725  0.4497675087242  0.3821862332923 1.0
C      1  0.3283391856501  0.3132125988266  0.3087104025688 1.0
C      1  0.4157850521666  0.7395172264427  0.3059976406687 1.0
C      1  0.3143623292842  0.3929299447079  0.7734112422517 1.0
C      1  0.6896682863039  0.3790087314233  0.7792956385966 1.0
C      1  0.5057571795943  0.7241792377950  0.7727074878288 1.0
C      1  0.3143627728420  0.6070700733781  0.7734105111680 1.0
C      1  0.6896668952836  0.6209922325589  0.7792960559245 1.0
C      1  0.5057568706780  0.2758205103675  0.7727088485099 1.0
C      1  0.3904580627424  0.8914811761574  0.6354936149396 1.0
C      1  0.2184059825129  0.2209894350121  0.6446996524612 1.0
C      1  0.8830637824451  0.3980007718973  0.6535845494516 1.0
C      1  0.3904579681667  0.1085186244326  0.6354947685304 1.0
C      1  0.2184041825738  0.7790105142408  0.6446966049278 1.0
C      1  0.8830573231085  0.6019946912737  0.6535943855668 1.0
C      1  0.5055308192484  0.3139956318444  0.5590599227789 1.0
C      1  0.6708861781016  0.5910282502448  0.5835354975697 1.0
C      1  0.3470017747251  0.5955561638932  0.5593577231303 1.0
C      1  0.5055303976227  0.6860045358625  0.5590604142674 1.0
C      1  0.6708862202028  0.4089717633579  0.5835358534693 1.0
C      1  0.3470019191899  0.4044434377062  0.5593576280055 1.0
C      1  0.5597731140556  0.5462752884954  0.1037866045703 1.0
C      1  0.3941603880582  0.5500937965242  0.1108541053750 1.0
C      1  0.4725455774231  0.4036343944492  0.1079901821792 1.0
C      1  0.5597730085027  0.4537246947527  0.1037864788233 1.0
C      1  0.3941605255178  0.4499064758319  0.1108546379523 1.0
C      1  0.4725453513751  0.5963657681829  0.1079901990913 1.0
C      1  0.4148812834012  0.5512512673099  0.3103539451673 1.0
C      1  0.5016114103503  0.3968705876067  0.3033201757702 1.0
C      1  0.5929391945397  0.5515704251997  0.2878640259606 1.0
C      1  0.4148813119243  0.4487488625240  0.3103540623840 1.0
C      1  0.5016114225212  0.6031294354704  0.3033200817032 1.0
C      1  0.5929389902966  0.4484298224076  0.2878640407982 1.0
C      1  0.5164196330501  0.3989904422213  0.4062227195533 1.0
C      1  0.6112124134468  0.5516755390272  0.3886296255122 1.0
C      1  0.4244899091511  0.5497257930942  0.4132950412741 1.0
C      1  0.5164193004637  0.6010099559106  0.4062226731507 1.0
C      1  0.6112125639259  0.4483247929886  0.3886295375776 1.0
C      1  0.4244900835006  0.4502744839306  0.4132950052269 1.0
END
