TITL C-519-9595-3 -7.216 3375.00 -1270.76398068 0 0 154 (Ci) n - 1
REM
REM Run started: at 2020.12.29 17:20:14 in /gpfs/home/chem/mssmkc/CARBON/AIRSS/Generating-Clusters/Str-Search/Higher-Symm/C100-200
REM VASP from code version vasp.5.4.4.18Apr17-6-g9f103f2a35 (build Oct 11 2019 16:45:47) gamma-only
REM
REM
REM
REM
REM ./C.cell (533062f00bc710175b3da973d35f2034)
REM AIRSS Version 0.9.1 bugfix July 2018 build 013d7b7c2542+ Fri, 06 Jul 2018 19:26:36 +0100
REM compiler GCC version 6.3.0
REM options -cpp -iprefix /gpfs/warwick/csc/orac/software/Core/GCCcore/6.3.0/bin/../lib/gcc/x86_64-pc-linux-gnu/6.3.0/ -mtune=generic -march=x86-64 -g -O0
REM seed 1008006701 -1113530375 696127663 -615205707 -1207404103 -1331664865 2026727962 -691187028 -314292897 -1478331869 -1684755011 -1084281251
REM
REM C.POTCAR (d86ddea03c3ceb6dc662c8ad6801f873)
REM 
CELL 1.54180   15.00000   15.00000   15.00000   90.00000   90.00000   90.00000
LATT -1
SFAC C  
C      1  0.6320137693759  0.4157221796221  0.1919036304999 1.0
C      1  0.3679863213104  0.5842770284454  0.8080955306433 1.0
C      1  0.1975910048200  0.5185488098211  0.6114677943521 1.0
C      1  0.8024097409825  0.4814529317233  0.3885320523609 1.0
C      1  0.4688773410759  0.5601621484740  0.6028627618212 1.0
C      1  0.5311224927808  0.4398393167713  0.3971364530419 1.0
C      1  0.5137616526003  0.5144939093844  0.1371247500666 1.0
C      1  0.4862393092022  0.4855041331998  0.8628756451167 1.0
C      1  0.7706171602393  0.4580004748062  0.3002355072422 1.0
C      1  0.2293838664292  0.5420009398352  0.6997632712980 1.0
C      1  0.2829652733098  0.3982436700383  0.6684928933769 1.0
C      1  0.7170349449396  0.6017561375636  0.3315070434945 1.0
C      1  0.5618363864086  0.2605837268637  0.3394166930108 1.0
C      1  0.4381629825206  0.7394159690677  0.6605825472345 1.0
C      1  0.4510792446846  0.4316297692487  0.6944576876413 1.0
C      1  0.5489204877099  0.5683713852251  0.3055417613654 1.0
C      1  0.6317964769000  0.1978244014131  0.2966726102838 1.0
C      1  0.3682024198159  0.8021744912286  0.7033268146602 1.0
C      1  0.3600927477098  0.2734793201237  0.2936800986998 1.0
C      1  0.6399069786741  0.7265211406761  0.7063200729886 1.0
C      1  0.1418103519538  0.4122345858535  0.4542214601615 1.0
C      1  0.8581874947354  0.5877651457033  0.5457818864616 1.0
C      1  0.1744725780884  0.6260326159202  0.4641971108182 1.0
C      1  0.8255267139048  0.3739688370717  0.5358022473756 1.0
C      1  0.5453163246830  0.5638265324952  0.8572820783073 1.0
C      1  0.4546841949369  0.4361716235220  0.1427193668532 1.0
C      1  0.7859104188789  0.2375567445066  0.3849304847500 1.0
C      1  0.2140892149965  0.7624435808058  0.6150670328969 1.0
C      1  0.3303425597504  0.4339809779584  0.8179954825957 1.0
C      1  0.6696583463625  0.5660192999192  0.1820033818903 1.0
C      1  0.7220859612590  0.6736724623287  0.5376826039072 1.0
C      1  0.2779160295880  0.3263288505061  0.4623206022857 1.0
C      1  0.6611445265682  0.4609694144638  0.7811410000975 1.0
C      1  0.3388557455271  0.5390304926953  0.2188594231821 1.0
C      1  0.3328384942786  0.2347269134333  0.6894407281496 1.0
C      1  0.6671655846144  0.7652708283012  0.3105613998564 1.0
C      1  0.6113672716137  0.3112095491180  0.7452452571994 1.0
C      1  0.3886330230705  0.6887899937566  0.2547531370164 1.0
C      1  0.3651416391526  0.7930311208714  0.4177267360470 1.0
C      1  0.6348595105985  0.2069704940381  0.5822721590008 1.0
C      1  0.6717705904855  0.3448577413748  0.6701079089774 1.0
C      1  0.3282293993315  0.6551425678149  0.3298911122941 1.0
C      1  0.3604857262760  0.5504236941619  0.3208603630600 1.0
C      1  0.6395139867773  0.4495767660203  0.6791389087492 1.0
C      1  0.4922809710168  0.1930142252140  0.6666026504832 1.0
C      1  0.5077214210683  0.8069842815727  0.3333983111059 1.0
C      1  0.2117190240030  0.7173651279018  0.4347607192207 1.0
C      1  0.7882807296308  0.2826377403127  0.5652364598160 1.0
C      1  0.2053931656489  0.3734445577523  0.5163732690966 1.0
C      1  0.7946056369392  0.6265563946669  0.4836287841884 1.0
C      1  0.7228035216776  0.1787873707110  0.4268863441561 1.0
C      1  0.2771955342244  0.8212142317783  0.5731113586083 1.0
C      1  0.3689237367298  0.4511145951934  0.1797640500444 1.0
C      1  0.6310762237988  0.5488847920630  0.8202363499217 1.0
C      1  0.6018781661756  0.7460674062091  0.7879646439219 1.0
C      1  0.3981276844293  0.2539297200026  0.2120372021190 1.0
C      1  0.7258544333005  0.6131357036082  0.6223588780876 1.0
C      1  0.2741458222275  0.3868646261613  0.3776437283377 1.0
C      1  0.6353866580618  0.8746048935941  0.4107442633520 1.0
C      1  0.3646140280819  0.1253929987267  0.5892580878034 1.0
C      1  0.8201671772652  0.3994205431941  0.4434332657149 1.0
C      1  0.1798325577827  0.6005808095147  0.5565654031148 1.0
C      1  0.5980808479318  0.2643453681412  0.2482263592731 1.0
C      1  0.4019195725632  0.7356544071705  0.7517726960725 1.0
C      1  0.4703416792560  0.6351967048522  0.5493988919880 1.0
C      1  0.5296558787819  0.3648038821126  0.4505992712214 1.0
C      1  0.2992655636378  0.3461504212961  0.2917831452528 1.0
C      1  0.7007338689454  0.6538488897675  0.7082179230405 1.0
C      1  0.5949552169162  0.3031185252448  0.4259166018193 1.0
C      1  0.4050430832294  0.6968821782497  0.5740819600171 1.0
C      1  0.8128696758846  0.4886372185144  0.6805673129373 1.0
C      1  0.1871297629176  0.5113604111650  0.3194340871230 1.0
C      1  0.7848366119987  0.5783972231835  0.4028885773747 1.0
C      1  0.2151630881994  0.4216040669521  0.5971130214911 1.0
C      1  0.3745414011649  0.4281429232469  0.6272894379225 1.0
C      1  0.6254586283179  0.5718582185719  0.3727100563977 1.0
C      1  0.6064545246926  0.7653664661354  0.6245061211446 1.0
C      1  0.3935443579243  0.2346331753394  0.3754949348118 1.0
C      1  0.7176256287974  0.2190281261711  0.5213323346981 1.0
C      1  0.2823740946761  0.7809730890729  0.4786672815204 1.0
C      1  0.6039756092150  0.8253628849929  0.3349383394893 1.0
C      1  0.3960268968798  0.1746341452048  0.6650638065986 1.0
C      1  0.1797961625889  0.4315322719718  0.3757341010878 1.0
C      1  0.8202035880814  0.5684643438222  0.6242689707430 1.0
C      1  0.4393367468707  0.2715842050490  0.1423361084900 1.0
C      1  0.5606636778214  0.7284135730510  0.8576652377770 1.0
C      1  0.3313668798425  0.4722199828185  0.3880729037514 1.0
C      1  0.6686326892994  0.5277803912039  0.6119277072282 1.0
C      1  0.4692822469470  0.6626410563625  0.3868498245173 1.0
C      1  0.5307171102102  0.3373592607567  0.6131492796712 1.0
C      1  0.5814726390770  0.8915455358038  0.4836618972597 1.0
C      1  0.4185265683404  0.1084531470469  0.5163389892585 1.0
C      1  0.7108082081261  0.5886787589279  0.7783003037822 1.0
C      1  0.2891897180039  0.4113212360073  0.2217005848963 1.0
C      1  0.3794521200695  0.6944723714284  0.4062597738787 1.0
C      1  0.6205477709973  0.3055290110229  0.5937390343805 1.0
C      1  0.4528019955608  0.8576599257939  0.5749376925205 1.0
C      1  0.5471968487342  0.1423404509254  0.4250625832682 1.0
C      1  0.6070232298173  0.3794460707814  0.8091734059430 1.0
C      1  0.3929763735949  0.6205526245754  0.1908261160556 1.0
C      1  0.5409652982449  0.4315930422270  0.6490800242692 1.0
C      1  0.4590338068152  0.5684074427805  0.3509194252153 1.0
C      1  0.6747184768658  0.4430624197705  0.2788676985871 1.0
C      1  0.3252831232058  0.5569359754095  0.7211330345521 1.0
C      1  0.4864610195954  0.2019798380780  0.3758061250089 1.0
C      1  0.5135373499380  0.7980207185269  0.6241940548119 1.0
C      1  0.3591176671017  0.3475603539558  0.7962150440611 1.0
C      1  0.6408823720943  0.6524390443125  0.2037834157688 1.0
C      1  0.5997243098548  0.4798456189971  0.3370025173925 1.0
C      1  0.4002759670603  0.5201551725415  0.6629966998596 1.0
C      1  0.3573956537109  0.8486277345818  0.6158143884115 1.0
C      1  0.6426028945782  0.1513717244133  0.3841847712467 1.0
C      1  0.2723486822424  0.4662616750072  0.7442036247112 1.0
C      1  0.7276520199374  0.5337382603319  0.2557956950105 1.0
C      1  0.4495898465761  0.8411093992057  0.4060245698623 1.0
C      1  0.5504114155104  0.1588914408803  0.5939748988105 1.0
C      1  0.4161666000041  0.6635396910463  0.8189945363973 1.0
C      1  0.5838341590526  0.3364605904369  0.1810055292543 1.0
C      1  0.3869278131525  0.4687148163777  0.4608020543218 1.0
C      1  0.6130720829754  0.5312864847679  0.5391976557166 1.0
C      1  0.1915239042011  0.6831503549240  0.6049096843715 1.0
C      1  0.8084761232140  0.3168513692910  0.3950885487854 1.0
C      1  0.7554601575296  0.5041653405211  0.7595168316359 1.0
C      1  0.2445392287750  0.4958336240433  0.2404839289096 1.0
C      1  0.4863602811142  0.8789325409661  0.4873268351201 1.0
C      1  0.5136392896721  0.1210679228685  0.5126735312058 1.0
C      1  0.1805429215173  0.5913262390780  0.3693775922875 1.0
C      1  0.8194567505833  0.4086736737293  0.6306221533872 1.0
C      1  0.6702557510006  0.7574341529391  0.5472327764255 1.0
C      1  0.3297428592016  0.2425649079372  0.4527693003695 1.0
C      1  0.3426942042509  0.1665205125239  0.5054255531162 1.0
C      1  0.6573060060600  0.8334786929554  0.4945776297709 1.0
C      1  0.4827556458020  0.7146556967410  0.2923788557719 1.0
C      1  0.5172442444392  0.2853445150619  0.7076201622281 1.0
C      1  0.5031143476769  0.6533140660263  0.8584807987474 1.0
C      1  0.4968856627976  0.3466835930493  0.1415205254487 1.0
C      1  0.7662955267392  0.3292388652830  0.6456653610899 1.0
C      1  0.2337043098807  0.6707618039812  0.3543322079358 1.0
C      1  0.3092880410633  0.3137047100146  0.7193034344749 1.0
C      1  0.6907121385044  0.6862948204881  0.2806960223179 1.0
C      1  0.5228642363323  0.6428727113665  0.4708337082113 1.0
C      1  0.4771342427480  0.3571276835268  0.5291653043836 1.0
C      1  0.6020535316277  0.5942509879944  0.4659014008316 1.0
C      1  0.3979444832000  0.4057493893565  0.5340980043611 1.0
C      1  0.6447550568716  0.2838348035746  0.5019814410765 1.0
C      1  0.3552458315846  0.7161688214092  0.4980165188305 1.0
C      1  0.3920015206706  0.5020179940185  0.8495201449942 1.0
C      1  0.6079993901242  0.4979823003290  0.1504791194602 1.0
C      1  0.5434784498443  0.6460022409255  0.2311851370520 1.0
C      1  0.4565219502254  0.3539978824348  0.7688140507527 1.0
C      1  0.4820163117409  0.6000800159746  0.1641882555754 1.0
C      1  0.5179835795959  0.3999193867992  0.8358114085549 1.0
C      1  0.5347913542225  0.5010415241842  0.5834041963111 1.0
C      1  0.4652087617775  0.4989601349537  0.4165958780091 1.0
END
