TITL C-519-9595-34 -8.238 3375.00 -1467.99342443 0 0 178 (Ci) n - 1
REM
REM Run started: at 2020.12.30 16:22:52 in /gpfs/home/chem/mssmkc/CARBON/AIRSS/Generating-Clusters/Str-Search/Higher-Symm/C100-200
REM VASP from code version vasp.5.4.4.18Apr17-6-g9f103f2a35 (build Oct 11 2019 16:45:47) gamma-only
REM
REM
REM
REM
REM ./C.cell (533062f00bc710175b3da973d35f2034)
REM AIRSS Version 0.9.1 bugfix July 2018 build 013d7b7c2542+ Fri, 06 Jul 2018 19:26:36 +0100
REM compiler GCC version 6.3.0
REM options -cpp -iprefix /gpfs/warwick/csc/orac/software/Core/GCCcore/6.3.0/bin/../lib/gcc/x86_64-pc-linux-gnu/6.3.0/ -mtune=generic -march=x86-64 -g -O0
REM seed 1814761630 1447860566 1783862179 -477611978 649787162 260905959 247926185 546078507 1044906613 -1324295733 886276312 -158170143
REM
REM C.POTCAR (d86ddea03c3ceb6dc662c8ad6801f873)
REM 
CELL 1.54180   15.00000   15.00000   15.00000   90.00000   90.00000   90.00000
LATT -1
SFAC C  
C      1  0.3373560404118  0.4148474196759  0.5627061164572 1.0
C      1  0.6626443628178  0.5851529904576  0.4372951566121 1.0
C      1  0.5245178141986  0.1501052787038  0.6382357389733 1.0
C      1  0.4754834765791  0.8498949321547  0.3617655313180 1.0
C      1  0.4921896358421  0.1965908267650  0.2477402612070 1.0
C      1  0.5078108387730  0.8034064840736  0.7522604527484 1.0
C      1  0.6913402127465  0.4071837891018  0.7661556446062 1.0
C      1  0.3086604452837  0.5928156476067  0.2338442593838 1.0
C      1  0.4109851366464  0.4999115297808  0.8520478152276 1.0
C      1  0.5890142847245  0.5000890961913  0.1479502516257 1.0
C      1  0.2454190551276  0.3093258008185  0.4593699851823 1.0
C      1  0.7545807184425  0.6906742452397  0.5406309527591 1.0
C      1  0.6538878908095  0.5636869641127  0.1757353076594 1.0
C      1  0.3461120830941  0.4363133009716  0.8242651935318 1.0
C      1  0.5934805191276  0.7102605386894  0.4275818839715 1.0
C      1  0.4065192424449  0.2897408612226  0.5724187284183 1.0
C      1  0.5429665165569  0.1760850508436  0.3216955234790 1.0
C      1  0.4570318962594  0.8239142075079  0.6783049668611 1.0
C      1  0.6182311824453  0.6301311201096  0.3563501388636 1.0
C      1  0.3817691234274  0.3698694338498  0.6436519285380 1.0
C      1  0.4333557201929  0.2987346367470  0.3873486553311 1.0
C      1  0.5666431142854  0.7012636731959  0.6126522021189 1.0
C      1  0.1795539958904  0.5252922765836  0.3391582088192 1.0
C      1  0.8204459627149  0.4747076174891  0.6608421519026 1.0
C      1  0.3992987892882  0.3552372909500  0.8266084439008 1.0
C      1  0.6007021176033  0.6447638565660  0.1733933267153 1.0
C      1  0.1782851679044  0.6124687567303  0.3849991627858 1.0
C      1  0.8217154480899  0.3875312986187  0.6149998424910 1.0
C      1  0.3303894430401  0.3076944007017  0.7061837598950 1.0
C      1  0.6696108347636  0.6923043754961  0.2938173361248 1.0
C      1  0.7609979585546  0.2469317799486  0.4223349498105 1.0
C      1  0.2390018054807  0.7530687873915  0.5776646000797 1.0
C      1  0.5864673792427  0.2925493404686  0.5915972148894 1.0
C      1  0.4135345166344  0.7074509014663  0.4084024856809 1.0
C      1  0.2096282168522  0.4072101066457  0.7043634561996 1.0
C      1  0.7903714469500  0.5927892026321  0.2956369441969 1.0
C      1  0.6692554218687  0.6654579419598  0.4950584471107 1.0
C      1  0.3307451910802  0.3345418732880  0.5049433311908 1.0
C      1  0.5293945882034  0.4648442336466  0.3193498925222 1.0
C      1  0.4706086075389  0.5351588225889  0.6806539883041 1.0
C      1  0.5415323267443  0.7687675639155  0.2408769657489 1.0
C      1  0.4584683894974  0.2312325942070  0.7591233094456 1.0
C      1  0.7584694305468  0.2363279382414  0.5855721155690 1.0
C      1  0.2415308665563  0.7636727080183  0.4144274329885 1.0
C      1  0.6598073289971  0.3732481991259  0.2162276104519 1.0
C      1  0.3401911752362  0.6267524538092  0.7837709992374 1.0
C      1  0.7640718413738  0.4737813974079  0.7365954716499 1.0
C      1  0.2359284203115  0.5262184326210  0.2634040448231 1.0
C      1  0.7016725086157  0.4348036810796  0.4130728615674 1.0
C      1  0.2983275934263  0.5651957977823  0.5869271985438 1.0
C      1  0.6107007220235  0.4256737180911  0.7061673072578 1.0
C      1  0.3892996495359  0.5743251800952  0.2938326976583 1.0
C      1  0.7285948456542  0.7468534940871  0.6127154928158 1.0
C      1  0.2714029409206  0.2531471026643  0.3872845146996 1.0
C      1  0.1448157714277  0.4268829390546  0.5294015020365 1.0
C      1  0.8551848890657  0.5731167273557  0.4705988631885 1.0
C      1  0.6398347963005  0.4602233963469  0.6170776905402 1.0
C      1  0.3601645090953  0.5397764204893  0.3829225904575 1.0
C      1  0.6169793349460  0.4076465061509  0.4571147999205 1.0
C      1  0.3830208909272  0.5923530400781  0.5428859274141 1.0
C      1  0.3463081455542  0.5117343139975  0.1743273461078 1.0
C      1  0.6536913398738  0.4882651000391  0.8256704242302 1.0
C      1  0.7003799924940  0.3090427436229  0.7394956911911 1.0
C      1  0.2996211595719  0.6909578880946  0.2605047105388 1.0
C      1  0.4934669131209  0.8644875808188  0.5974654691912 1.0
C      1  0.5065314957924  0.1355136975884  0.4025360666170 1.0
C      1  0.3903509050112  0.7963081868773  0.3507168372447 1.0
C      1  0.6096503472812  0.2036918568798  0.6492833125182 1.0
C      1  0.5169168433460  0.5875127346679  0.7859220443094 1.0
C      1  0.4830800516291  0.4124816828102  0.2140638200679 1.0
C      1  0.1060453493800  0.5981471596649  0.5472662402489 1.0
C      1  0.8939553022868  0.4018533788286  0.4527332399028 1.0
C      1  0.1626975608835  0.4249631610916  0.3640393399014 1.0
C      1  0.8373028788442  0.5750370081807  0.6359605794313 1.0
C      1  0.2863065694916  0.4559069383086  0.2217616301892 1.0
C      1  0.7136939511641  0.5440931834130  0.7782380639916 1.0
C      1  0.6705444060118  0.3559000335492  0.5914898239059 1.0
C      1  0.3294557758621  0.6441006641196  0.4085105792148 1.0
C      1  0.1358414576232  0.6984431435877  0.6823207374485 1.0
C      1  0.8641574784838  0.3015579564298  0.3176787318989 1.0
C      1  0.2707419403110  0.4799282688622  0.5831764864282 1.0
C      1  0.7292578653250  0.5200710518233  0.4168239128720 1.0
C      1  0.4403509521101  0.8784754681651  0.5192472792295 1.0
C      1  0.5596500972731  0.1215234390363  0.4807538790813 1.0
C      1  0.5643979185916  0.5173418523295  0.8430140640935 1.0
C      1  0.4356012359867  0.4826585539630  0.1569823763480 1.0
C      1  0.5846565199851  0.6574757623584  0.7614321821409 1.0
C      1  0.4153431309807  0.3425223738471  0.2385634806706 1.0
C      1  0.4993272393147  0.6802354117507  0.4369666653295 1.0
C      1  0.5006737990880  0.3197649654441  0.5630350702728 1.0
C      1  0.4633269753747  0.4327469557647  0.6608165367016 1.0
C      1  0.5366739688392  0.5672535688646  0.3391860722372 1.0
C      1  0.6254216260747  0.8026106372574  0.3922914986422 1.0
C      1  0.3745791618707  0.1973888440048  0.6077105793111 1.0
C      1  0.8067240825887  0.2680645884338  0.5077114209975 1.0
C      1  0.1932756109255  0.7319361894335  0.4922872882176 1.0
C      1  0.2834023426520  0.2419140723265  0.6487354607005 1.0
C      1  0.7165984518492  0.7580854896254  0.3512656000770 1.0
C      1  0.3691598231247  0.2235590049505  0.3901915468541 1.0
C      1  0.6308369504561  0.7764400807520  0.6098070782878 1.0
C      1  0.3801202360751  0.2787163239421  0.7829891481177 1.0
C      1  0.6198818309057  0.7212853868403  0.2170110541117 1.0
C      1  0.4593053319248  0.7269550652766  0.2119547749271 1.0
C      1  0.5406972023517  0.2730461653195  0.7880450612588 1.0
C      1  0.3929527834826  0.7472991585145  0.6464928372483 1.0
C      1  0.6070464127598  0.2527007832795  0.3535067608649 1.0
C      1  0.4493606382073  0.5970680044171  0.6189140626289 1.0
C      1  0.5506386162989  0.4029325992689  0.3810868586845 1.0
C      1  0.7167736169749  0.3947328795585  0.3300829331431 1.0
C      1  0.2832254477894  0.6052665582719  0.6699170570382 1.0
C      1  0.6636865580518  0.6054315764044  0.7221192649485 1.0
C      1  0.3363147695942  0.3945680672465  0.2778800799026 1.0
C      1  0.7633825232568  0.6875677993324  0.3112808484804 1.0
C      1  0.2366177753484  0.3124316154893  0.6887207786607 1.0
C      1  0.8881547058336  0.4961801117256  0.4370001105060 1.0
C      1  0.1118462284909  0.5038204984590  0.5629997277454 1.0
C      1  0.0991585538088  0.6509699273353  0.6237849179780 1.0
C      1  0.9008425589592  0.3490303297109  0.3762148525658 1.0
C      1  0.4390725183504  0.2563997799749  0.2194296419714 1.0
C      1  0.5609244858590  0.7435984185752  0.7805706646749 1.0
C      1  0.4195087965434  0.5906927010280  0.8197132419680 1.0
C      1  0.5804898841906  0.4093068295686  0.1802821763399 1.0
C      1  0.8519475877258  0.3543000089726  0.5284223335588 1.0
C      1  0.1480523964737  0.6457004524016  0.4715772168241 1.0
C      1  0.5039096092341  0.5799412584996  0.4400560165446 1.0
C      1  0.4960904707459  0.4200590635815  0.5599454710713 1.0
C      1  0.4989423408681  0.4591676225576  0.8687419957956 1.0
C      1  0.5010573977310  0.5408349154704  0.1312579717869 1.0
C      1  0.1807372061560  0.3846007505223  0.4517605916458 1.0
C      1  0.8192635100140  0.6153990804614  0.5482396842661 1.0
C      1  0.2683182112228  0.4623785559685  0.7657536992333 1.0
C      1  0.7316814543049  0.5376211055234  0.2342465805189 1.0
C      1  0.7482943866243  0.3167843638004  0.6461902513301 1.0
C      1  0.2517063496699  0.6832157834853  0.3538095539961 1.0
C      1  0.3742878208345  0.7484974732471  0.2587281930777 1.0
C      1  0.6257144284303  0.2515022510883  0.7412723286626 1.0
C      1  0.7751495085811  0.2702404160410  0.3322980477731 1.0
C      1  0.2248495994058  0.7297612032476  0.6677006127186 1.0
C      1  0.4085361639321  0.1334658101011  0.5301570136357 1.0
C      1  0.5914643084375  0.8665354169400  0.4698436193594 1.0
C      1  0.3156547756876  0.8226814030207  0.4155956944795 1.0
C      1  0.6843462492095  0.1773188738642  0.5844039799112 1.0
C      1  0.2182512698102  0.2832223245893  0.3152421155225 1.0
C      1  0.7817478478094  0.7167772606413  0.6847575902856 1.0
C      1  0.5814491506988  0.4646286659678  0.5338304980646 1.0
C      1  0.4185504442222  0.5353711808903  0.4661695697776 1.0
C      1  0.5275310066880  0.3975962631791  0.7267562215261 1.0
C      1  0.4724700326629  0.6024012183101  0.2732440068537 1.0
C      1  0.3556534566291  0.8419315378366  0.5025041139465 1.0
C      1  0.6443461482838  0.1580691512171  0.4974950879915 1.0
C      1  0.3575837360541  0.6783141753117  0.4977771575394 1.0
C      1  0.6424155504430  0.3216860460814  0.5022224737290 1.0
C      1  0.3880804723976  0.3776952339959  0.4303669796082 1.0
C      1  0.6119197402871  0.6223038634262  0.5696337893834 1.0
C      1  0.8168697410123  0.5476395759549  0.3820110017469 1.0
C      1  0.1831307770322  0.4523597763793  0.6179894076988 1.0
C      1  0.6636625554907  0.2376352173231  0.4401668493312 1.0
C      1  0.3363367834518  0.7623646321531  0.5598326618052 1.0
C      1  0.4488190508355  0.1806897223109  0.6808071033718 1.0
C      1  0.5511814338742  0.8193092805923  0.3191937872113 1.0
C      1  0.5855615266680  0.8487876193369  0.5666002941302 1.0
C      1  0.4144360519747  0.1512136632257  0.4334006666703 1.0
C      1  0.6551629618534  0.5656533166514  0.6373478093742 1.0
C      1  0.3448372278754  0.4343455380450  0.3626522807559 1.0
C      1  0.7252657281866  0.4408970232781  0.2480231040016 1.0
C      1  0.2747325008597  0.5591031412863  0.7519770309806 1.0
C      1  0.1656190799606  0.3500230365709  0.3071728862819 1.0
C      1  0.8343800448988  0.6499772156632  0.6928277583889 1.0
C      1  0.4191961169331  0.4433488406017  0.5027919802021 1.0
C      1  0.5808039483321  0.5566510136996  0.4972089801743 1.0
C      1  0.4991811985864  0.3676395303789  0.8236813544352 1.0
C      1  0.5008193739486  0.6323614749260  0.1763210131348 1.0
C      1  0.6799843949714  0.3059570134571  0.2953587222790 1.0
C      1  0.3200139869301  0.6940449270446  0.7046398798290 1.0
C      1  0.5246760393436  0.3106361850039  0.3772742023534 1.0
C      1  0.4753227409443  0.6893635206998  0.6227254804201 1.0
C      1  0.5014482306953  0.8857455927688  0.4450950861678 1.0
C      1  0.4985523494425  0.1142548596926  0.5549065449231 1.0
END
