TITL C-5119-875-29 -9.007 3375.00 -1489.67050455 0 0 180 (C1) n - 1
REM
REM Run started: at 2020.12.26 14:55:43 in /gpfs/home/chem/mssmkc/CARBON/AIRSS/Generating-Clusters/Str-Search/Higher-Symm/Only-C180
REM VASP from code version vasp.5.4.4.18Apr17-6-g9f103f2a35 (build Oct 11 2019 16:45:47) gamma-only
REM
REM
REM
REM
REM ./C.cell (73b75853f6e4503fb4b57bac71549d7d)
REM AIRSS Version 0.9.1 bugfix July 2018 build 013d7b7c2542+ Fri, 06 Jul 2018 19:26:36 +0100
REM compiler GCC version 6.3.0
REM options -cpp -iprefix /gpfs/warwick/csc/orac/software/Core/GCCcore/6.3.0/bin/../lib/gcc/x86_64-pc-linux-gnu/6.3.0/ -mtune=generic -march=x86-64 -g -O0
REM seed -2051898235 1799798753 -2001423693 -461115388 -821654564 -397202819 -1053316041 407549174 -938430181 -7946628 1981284483 149190192
REM
REM C.POTCAR (d86ddea03c3ceb6dc662c8ad6801f873)
REM 
CELL 1.54180   15.00000   15.00000   15.00000   90.00000   90.00000   90.00000
LATT -1
SFAC C  
C      1  0.4463949949630  0.2772993348486  0.7302003647727 1.0
C      1  0.6684277802598  0.3305095163237  0.7501763879254 1.0
C      1  0.7756742359097  0.5181199824190  0.7611058760202 1.0
C      1  0.6644917120384  0.7095943345076  0.7542889934324 1.0
C      1  0.4378292768374  0.7227179927676  0.7561141708786 1.0
C      1  0.2762186673137  0.5702780930817  0.7508059535250 1.0
C      1  0.2407913081499  0.3467150873381  0.7332147631073 1.0
C      1  0.1870154616859  0.2416969701934  0.5167914905153 1.0
C      1  0.5127346385194  0.0797069849247  0.4980725269310 1.0
C      1  0.8368296148695  0.2550496387252  0.4953499322242 1.0
C      1  0.9545651032986  0.6006601497998  0.4928444606222 1.0
C      1  0.6597371949056  0.8887776654737  0.4856851270607 1.0
C      1  0.3021104249171  0.8687370715182  0.4982593094931 1.0
C      1  0.0582781807190  0.5924520941969  0.4977606300855 1.0
C      1  0.4644844605298  0.6990882745953  0.1804780009976 1.0
C      1  0.3748874892487  0.6540320978773  0.1853178520576 1.0
C      1  0.3254344344623  0.4343654496798  0.1994437259424 1.0
C      1  0.3846728562422  0.3513076549102  0.1966885172345 1.0
C      1  0.5893084051693  0.3261790104114  0.1731552201439 1.0
C      1  0.6938319945319  0.5012237162268  0.1860111629830 1.0
C      1  0.6699114008132  0.5960680309288  0.1902068352639 1.0
C      1  0.2340093036541  0.6471716723369  0.6223922831685 1.0
C      1  0.1735531614573  0.3954652175431  0.5957414189347 1.0
C      1  0.4065927632063  0.1849986071115  0.6168627728128 1.0
C      1  0.6861421562551  0.2470871846266  0.6161595261716 1.0
C      1  0.8087079535013  0.4703165907047  0.6204374529897 1.0
C      1  0.7238246363382  0.7254006123863  0.6155395841320 1.0
C      1  0.4569426875425  0.7926417768308  0.6134384050850 1.0
C      1  0.4029922566333  0.4837132797683  0.5397843742444 1.0
C      1  0.4285924398800  0.3974323678280  0.5039668805997 1.0
C      1  0.5240436936546  0.3912240000639  0.4779519515025 1.0
C      1  0.5793306441753  0.4514182791905  0.5429277535192 1.0
C      1  0.6070936657547  0.5376246132352  0.5052780178635 1.0
C      1  0.5227854508568  0.5938660505081  0.4762935306301 1.0
C      1  0.4190047285800  0.5615975472155  0.4790262774837 1.0
C      1  0.8286365364935  0.3500964325135  0.3559200450939 1.0
C      1  0.8297526166413  0.6628164607404  0.3750507291936 1.0
C      1  0.5762004861754  0.8612761354762  0.3453868976661 1.0
C      1  0.2657893003258  0.7989029944651  0.3556298961419 1.0
C      1  0.1419424218306  0.5024838045673  0.3719761303180 1.0
C      1  0.2671194021832  0.2116741576197  0.3672053539976 1.0
C      1  0.5782869821542  0.1505165330712  0.3580062572313 1.0
C      1  0.3653084738780  0.7962870155500  0.6380872496012 1.0
C      1  0.1658188329074  0.5777479295096  0.6351999759429 1.0
C      1  0.2130481957942  0.2397630793191  0.6112038680899 1.0
C      1  0.4975083804874  0.1528209386600  0.6432678444042 1.0
C      1  0.7724037045722  0.2805998368811  0.6441346681642 1.0
C      1  0.8443278356169  0.5640824284278  0.6252129377323 1.0
C      1  0.6619930657534  0.8016469890559  0.6304708252269 1.0
C      1  0.6079642242970  0.7702464998150  0.7037063765851 1.0
C      1  0.3548170414187  0.7287075974331  0.7105214519839 1.0
C      1  0.2044000082624  0.5170742676827  0.7048454668439 1.0
C      1  0.2739073801028  0.2653171373640  0.6824553071187 1.0
C      1  0.5295647806953  0.2198715445133  0.7001182414071 1.0
C      1  0.7629263876346  0.3444525887887  0.7167741740590 1.0
C      1  0.7919810902644  0.5978247858347  0.7030631567705 1.0
C      1  0.4469758762298  0.3594860220432  0.6648514280362 1.0
C      1  0.5342089133095  0.4092890146030  0.6957951251187 1.0
C      1  0.6175714648481  0.3647498948538  0.6689484694994 1.0
C      1  0.5823459990017  0.5813990963794  0.6467171330447 1.0
C      1  0.5127354147859  0.6512911333929  0.6304764908630 1.0
C      1  0.4210072026388  0.6088658017423  0.6249187506353 1.0
C      1  0.3808740605276  0.4384978728009  0.6620136249971 1.0
C      1  0.2855470970161  0.2711499746759  0.2921787265621 1.0
C      1  0.5416294554428  0.2246355992483  0.2998180982514 1.0
C      1  0.7497705977361  0.3726421452715  0.2954062197055 1.0
C      1  0.7805886623304  0.6191708044478  0.3011405065529 1.0
C      1  0.5760426511046  0.7899020965035  0.2794094560555 1.0
C      1  0.3202410784601  0.7584699683647  0.2865692649041 1.0
C      1  0.2222461389174  0.5169348987039  0.3102694840467 1.0
C      1  0.4808656507920  0.7617202162838  0.5225372007525 1.0
C      1  0.2767394484321  0.6395773219967  0.5347707005460 1.0
C      1  0.2493102770075  0.4158965322918  0.5421417790813 1.0
C      1  0.4158579189524  0.2352964271404  0.5356364947823 1.0
C      1  0.6502342001022  0.2993951431827  0.5304173865138 1.0
C      1  0.7489911567256  0.4499741989173  0.5520410120632 1.0
C      1  0.6885542940528  0.6740812781038  0.5418614367266 1.0
C      1  0.5211678547073  0.6789056181957  0.5347977513727 1.0
C      1  0.3684400664174  0.6241369743303  0.5405113055350 1.0
C      1  0.3217449842848  0.4532995190269  0.5874822767403 1.0
C      1  0.4460870479257  0.3248774452229  0.5694001356538 1.0
C      1  0.5459673054289  0.2980596908258  0.5147189213161 1.0
C      1  0.6582924809767  0.3946432016350  0.5746063663731 1.0
C      1  0.6456563931034  0.5935414225552  0.5750592338015 1.0
C      1  0.7060488502363  0.6560078851911  0.2520646885069 1.0
C      1  0.4911103836925  0.7687955271029  0.2369190252811 1.0
C      1  0.3033544123720  0.6749757386253  0.2431280299762 1.0
C      1  0.2483806721022  0.4356174750505  0.2592838929728 1.0
C      1  0.3701010405033  0.2717869327546  0.2505152772583 1.0
C      1  0.6067239784271  0.2718802667268  0.2404337617150 1.0
C      1  0.7512714574459  0.4621467380541  0.2503394984866 1.0
C      1  0.5075677770879  0.3882960800961  0.3744568595989 1.0
C      1  0.5931598196762  0.4270326310148  0.3457157226138 1.0
C      1  0.6072686180918  0.5170013352344  0.3592076771659 1.0
C      1  0.5469107581307  0.6008386404869  0.3764322116839 1.0
C      1  0.4533424604006  0.6195652544672  0.3431454343165 1.0
C      1  0.3922819029128  0.5476455175787  0.3816907928813 1.0
C      1  0.4173104720393  0.4393132839511  0.3548553887929 1.0
C      1  0.4131543806930  0.7879333937475  0.2957094189390 1.0
C      1  0.2428777424525  0.6152493766454  0.2978302340682 1.0
C      1  0.2338195300106  0.3538454488019  0.2994344260112 1.0
C      1  0.4410721477013  0.2224901080097  0.2986191960524 1.0
C      1  0.6889746842128  0.2923169821409  0.2901738884954 1.0
C      1  0.7960552160592  0.5269519958216  0.3031941372638 1.0
C      1  0.6542861935945  0.7276703913161  0.3019167457193 1.0
C      1  0.4994882928578  0.9088329829381  0.3812167716154 1.0
C      1  0.1900375582394  0.7544173488663  0.3933728316599 1.0
C      1  0.1236801102336  0.4210995411926  0.4036359119604 1.0
C      1  0.3273222649111  0.1416813835489  0.3909552972058 1.0
C      1  0.6639843866222  0.1479564092937  0.3830219605511 1.0
C      1  0.8783640589798  0.4151153042659  0.3921662615385 1.0
C      1  0.8021974398669  0.7493544192980  0.4059625721811 1.0
C      1  0.4992750609015  0.1338245060189  0.4188434922123 1.0
C      1  0.7970007681128  0.2732939825971  0.4108119170360 1.0
C      1  0.8848632327014  0.5967180292020  0.4189694425379 1.0
C      1  0.6563550253775  0.8589845092594  0.3986488236769 1.0
C      1  0.3189182226777  0.8600218648668  0.4066135295126 1.0
C      1  0.1323654686764  0.5877485362828  0.4243152445206 1.0
C      1  0.2044909873448  0.2540310365334  0.4254353122936 1.0
C      1  0.6536215362594  0.8641931687436  0.5648395183568 1.0
C      1  0.3107891675991  0.8364302032452  0.5740889877682 1.0
C      1  0.0964068016312  0.5749171313955  0.5774997988333 1.0
C      1  0.1542055640771  0.3037269404420  0.5792829864286 1.0
C      1  0.5297735343904  0.0924625603785  0.5783465771988 1.0
C      1  0.8372946464821  0.2670058069225  0.5767213952679 1.0
C      1  0.9045889407018  0.5952241114649  0.5669825830863 1.0
C      1  0.1956762731055  0.3531821312182  0.3924631989181 1.0
C      1  0.4127145416625  0.1473009400817  0.3622703965393 1.0
C      1  0.7164445512148  0.2265016138753  0.3696225675851 1.0
C      1  0.8392012882975  0.5054738203388  0.3937589282715 1.0
C      1  0.7121083441603  0.7755036102828  0.3800062691137 1.0
C      1  0.4173425364829  0.8544515281320  0.3752615121123 1.0
C      1  0.1810121801221  0.6643189251636  0.3701736383369 1.0
C      1  0.4339715250323  0.7102344311222  0.3673578360114 1.0
C      1  0.2909925242392  0.5645262539752  0.3750753390310 1.0
C      1  0.3620671565210  0.3919450948174  0.4276588037524 1.0
C      1  0.4892483000950  0.2847815155010  0.3680006124750 1.0
C      1  0.6692666557612  0.3655728933498  0.3603961756615 1.0
C      1  0.6722270896854  0.5225928882254  0.4312036607840 1.0
C      1  0.6148403872021  0.6745550419848  0.3786438973801 1.0
C      1  0.6199780462761  0.2639040271912  0.6895264608154 1.0
C      1  0.7939445489750  0.4358793713169  0.7099137243299 1.0
C      1  0.7399157909901  0.6775411810039  0.6994607887594 1.0
C      1  0.5096004754331  0.7492092393860  0.6886694436794 1.0
C      1  0.2901525710046  0.6543523527582  0.7011033710502 1.0
C      1  0.1947243423327  0.4209861704372  0.6894873655477 1.0
C      1  0.3632270763340  0.2334860901501  0.6889867088197 1.0
C      1  0.4645226413513  0.6541966398858  0.8180258127787 1.0
C      1  0.3435433540416  0.5314903331132  0.8102789893784 1.0
C      1  0.2835779759972  0.3680114418249  0.8136314176785 1.0
C      1  0.4517453277731  0.3330539737187  0.8147198758945 1.0
C      1  0.6229553307713  0.3784469304158  0.8227632075928 1.0
C      1  0.7234358800706  0.5201744542947  0.8386687779881 1.0
C      1  0.6310191246797  0.6694211803806  0.8324631757936 1.0
C      1  0.7540247643829  0.4929186154139  0.4608075491821 1.0
C      1  0.6705890470312  0.7018996357299  0.4481512224541 1.0
C      1  0.4453956245902  0.7726837796773  0.4337282302384 1.0
C      1  0.2333700343688  0.6085886484475  0.4499903511387 1.0
C      1  0.2723663683273  0.3896002339472  0.4516227037852 1.0
C      1  0.4879293048495  0.2332822277227  0.4595921356417 1.0
C      1  0.6941202206382  0.3020672701095  0.4373838515295 1.0
C      1  0.4565587289919  0.4163217860204  0.1649227871419 1.0
C      1  0.5533132376492  0.4071174943246  0.1472405796979 1.0
C      1  0.6074180650289  0.4827081406615  0.1418397329598 1.0
C      1  0.5838154621045  0.5781178301268  0.1454098968996 1.0
C      1  0.5015880502745  0.6186175049708  0.1402130633433 1.0
C      1  0.4106230270375  0.5775141035128  0.1375571999799 1.0
C      1  0.3893385614801  0.4891286575947  0.1436836202329 1.0
C      1  0.4348857720246  0.5615217862290  0.8270182077658 1.0
C      1  0.3249786833289  0.4449136626698  0.8444138985103 1.0
C      1  0.3725880644089  0.3620141980839  0.8480890071604 1.0
C      1  0.5241635432138  0.4033779740816  0.8041044879513 1.0
C      1  0.6589335766334  0.4499062790514  0.8644067481146 1.0
C      1  0.6604542558664  0.5874453527949  0.8693213767223 1.0
C      1  0.5422457194300  0.6795912071836  0.8596860983483 1.0
C      1  0.4092543595648  0.4289084499031  0.2572430503644 1.0
C      1  0.4405496517565  0.5115709760748  0.6302920643566 1.0
C      1  0.5366310397019  0.4917443299653  0.6375702368936 1.0
C      1  0.5081058872131  0.4980526755291  0.8479030099276 1.0
C      1  0.5924383283841  0.5184505065297  0.8845350468825 1.0
END
