TITL C-519-9595-8 -5.946 3375.00 -1062.15734358 0 0 127 (Cs) n - 1
REM
REM Run started: at 2020.12.29 19:57:51 in /gpfs/home/chem/mssmkc/CARBON/AIRSS/Generating-Clusters/Str-Search/Higher-Symm/C100-200
REM VASP from code version vasp.5.4.4.18Apr17-6-g9f103f2a35 (build Oct 11 2019 16:45:47) gamma-only
REM
REM
REM
REM
REM ./C.cell (533062f00bc710175b3da973d35f2034)
REM AIRSS Version 0.9.1 bugfix July 2018 build 013d7b7c2542+ Fri, 06 Jul 2018 19:26:36 +0100
REM compiler GCC version 6.3.0
REM options -cpp -iprefix /gpfs/warwick/csc/orac/software/Core/GCCcore/6.3.0/bin/../lib/gcc/x86_64-pc-linux-gnu/6.3.0/ -mtune=generic -march=x86-64 -g -O0
REM seed 818815128 -1025436458 481480845 49190752 -335762760 266672515 875699838 -371996916 -653510485 -1160827107 -1377606133 -1076490860
REM
REM C.POTCAR (d86ddea03c3ceb6dc662c8ad6801f873)
REM 
CELL 1.54180   15.00000   15.00000   15.00000   90.00000   90.00000   90.00000
LATT -1
SFAC C  
C      1  0.7559840695779  0.5465332447902  0.3881919657853 1.0
C      1  0.2441290979241  0.4512878849210  0.3886113996386 1.0
C      1  0.2430622500859  0.5464105650359  0.3876603498287 1.0
C      1  0.7550627743545  0.4514477921932  0.3891060396132 1.0
C      1  0.4523133704261  0.6299027677147  0.5344696771542 1.0
C      1  0.5468065206071  0.3571847692372  0.5228185601090 1.0
C      1  0.5465364738531  0.6299388201481  0.5345766406256 1.0
C      1  0.4522147887934  0.3571606480440  0.5226793100051 1.0
C      1  0.5972108637813  0.2574302874033  0.3329859280313 1.0
C      1  0.4021966936247  0.7390978814043  0.3320317000413 1.0
C      1  0.4023066315151  0.2573941173049  0.3328514239242 1.0
C      1  0.5969603260681  0.7391829185091  0.3321971371892 1.0
C      1  0.3216021775797  0.7242844924710  0.7506279561678 1.0
C      1  0.6765088201337  0.2737115656847  0.7512163903315 1.0
C      1  0.6767280468858  0.7243860287054  0.7510160201224 1.0
C      1  0.3221532403919  0.2736757473365  0.7509353589081 1.0
C      1  0.3101600550373  0.2393411238855  0.4973669008368 1.0
C      1  0.6897420257301  0.7587036554463  0.4964906135578 1.0
C      1  0.6890761424515  0.2394467810092  0.4976519074928 1.0
C      1  0.3090863351216  0.7585771643271  0.4962082777479 1.0
C      1  0.2333776943005  0.3752805158599  0.6540761515489 1.0
C      1  0.7673846816504  0.6214070806471  0.6555643049420 1.0
C      1  0.7654507415785  0.3754734252392  0.6545325776690 1.0
C      1  0.2311577999523  0.6211961965564  0.6550450887732 1.0
C      1  0.5868573924508  0.5903963799310  0.4555180922081 1.0
C      1  0.4120726311040  0.4089965008758  0.4481394202864 1.0
C      1  0.4121499892095  0.5903813236554  0.4553102474041 1.0
C      1  0.5869992866357  0.4091347510513  0.4483991514603 1.0
C      1  0.3385728566247  0.5515647847338  0.5085153544611 1.0
C      1  0.6554747918733  0.4507161653923  0.5082587812108 1.0
C      1  0.6602979473994  0.5515665985656  0.5088925690539 1.0
C      1  0.3435579722509  0.4506894579658  0.5079315965886 1.0
C      1  0.6759270161960  0.6822535259261  0.3494893632688 1.0
C      1  0.3241005629186  0.3152622663360  0.3501075620760 1.0
C      1  0.3231329275904  0.6822130129306  0.3491146369448 1.0
C      1  0.6753256449718  0.3153877931876  0.3504051077163 1.0
C      1  0.4518869035555  0.2681541694649  0.2556987916747 1.0
C      1  0.5477507098398  0.7287310409362  0.2550248481019 1.0
C      1  0.5477624333779  0.2681526641953  0.2557680092746 1.0
C      1  0.4515886173154  0.7286524804333  0.2549607721092 1.0
C      1  0.6730705578366  0.5468270989305  0.2423092086094 1.0
C      1  0.3261350286992  0.4505190741448  0.2421712654094 1.0
C      1  0.3263790168987  0.5467791788054  0.2419573711997 1.0
C      1  0.6733801615549  0.4505931874949  0.2424788464136 1.0
C      1  0.2584069495738  0.3954326543901  0.4782255404071 1.0
C      1  0.7450044807964  0.6037811308847  0.4761102439596 1.0
C      1  0.7406865276190  0.3955573011023  0.4786782101956 1.0
C      1  0.2538722900369  0.6036812548240  0.4755570939254 1.0
C      1  0.4520882205579  0.3904787632202  0.7394659200364 1.0
C      1  0.5462314339151  0.6090490072759  0.7380019467891 1.0
C      1  0.5466093275133  0.3904655101237  0.7396301766811 1.0
C      1  0.4522561492714  0.6090571275945  0.7378388613259 1.0
C      1  0.5922820324759  0.3115324021326  0.7670957067655 1.0
C      1  0.4065851905367  0.6883834955275  0.7657293132367 1.0
C      1  0.4063662863535  0.3115158343360  0.7668851418423 1.0
C      1  0.5917702053217  0.6883600838505  0.7659904919517 1.0
C      1  0.3995727593520  0.1984830768328  0.4925712080043 1.0
C      1  0.6003860752427  0.7998931307786  0.4909239808935 1.0
C      1  0.5996808259911  0.1985211437490  0.4926993046559 1.0
C      1  0.3984098050338  0.7998753015714  0.4907679373897 1.0
C      1  0.6110525586327  0.5535531402616  0.6821878770043 1.0
C      1  0.3892993350460  0.4461114180347  0.6818669662030 1.0
C      1  0.3875750456046  0.5534839407320  0.6818698666499 1.0
C      1  0.6094691926778  0.4460383028678  0.6821639202715 1.0
C      1  0.4025352208087  0.4204540210785  0.1866964902853 1.0
C      1  0.5968926732948  0.5764680087909  0.1864550588100 1.0
C      1  0.5971047926300  0.4204976393294  0.1868620502441 1.0
C      1  0.4026702248255  0.5764133165871  0.1862387650157 1.0
C      1  0.2323289093128  0.7851218548063  0.6458811439671 1.0
C      1  0.7663467621767  0.2109398486495  0.6458613312576 1.0
C      1  0.7661270550994  0.7853293177977  0.6463238988010 1.0
C      1  0.2325075771305  0.2107903860499  0.6454202445500 1.0
C      1  0.7092939579757  0.5947452762144  0.3156659351624 1.0
C      1  0.2899565129115  0.4029365587905  0.3159797288675 1.0
C      1  0.2898412556993  0.5946797638418  0.3152068811453 1.0
C      1  0.7094098570978  0.4030636415495  0.3163751385302 1.0
C      1  0.4500399102971  0.1688291476926  0.5679327418850 1.0
C      1  0.5492523026679  0.8291089390241  0.5655722938272 1.0
C      1  0.5490889715123  0.1688862195129  0.5679839594288 1.0
C      1  0.4495034031056  0.8291336897118  0.5654589165451 1.0
C      1  0.5899368158242  0.4227269307676  0.5858220756000 1.0
C      1  0.3912124416961  0.5883601381873  0.5886106416623 1.0
C      1  0.4089823856705  0.4227096391995  0.5855628046812 1.0
C      1  0.6074960348291  0.5883323859442  0.5888957427994 1.0
C      1  0.5485486401190  0.3422027210369  0.1908874107071 1.0
C      1  0.4511100801364  0.6548714677762  0.1899221405248 1.0
C      1  0.4511598308361  0.3421875810521  0.1908140134087 1.0
C      1  0.5484458251233  0.6549319730387  0.1899806109195 1.0
C      1  0.4008742974237  0.2228069263543  0.7313211618605 1.0
C      1  0.5981817861965  0.7759635432899  0.7291855719560 1.0
C      1  0.5977943454485  0.2229022363820  0.7315051981644 1.0
C      1  0.4000832724087  0.7760207812234  0.7288851083355 1.0
C      1  0.2938440228054  0.6873671123868  0.4355969138305 1.0
C      1  0.7025813383794  0.3115607524703  0.4376164726147 1.0
C      1  0.7050875306886  0.6874403083488  0.4360095398388 1.0
C      1  0.2966882852295  0.3114715847909  0.4372940162488 1.0
C      1  0.4522988617493  0.5489208094149  0.3837728610309 1.0
C      1  0.5474079776226  0.4508969690142  0.3760457277627 1.0
C      1  0.5468894077078  0.5489502745390  0.3838626479063 1.0
C      1  0.4519478351040  0.4508562385042  0.3759547401573 1.0
C      1  0.2446069105578  0.2867803729302  0.7005981428447 1.0
C      1  0.7547885547640  0.7093801752927  0.7019432826782 1.0
C      1  0.7541133311397  0.2869589803986  0.7009914844913 1.0
C      1  0.2436146031458  0.7091658734931  0.7014763120054 1.0
C      1  0.5489639585014  0.1810918346576  0.6653226772269 1.0
C      1  0.4495886207002  0.8173073240801  0.6626501192686 1.0
C      1  0.4499054489816  0.1810086216555  0.6652815145003 1.0
C      1  0.5489369896282  0.8172618914311  0.6627401276423 1.0
C      1  0.4502343312626  0.7801951264297  0.4086416041515 1.0
C      1  0.5488604163108  0.2162667788978  0.4093891050491 1.0
C      1  0.5487331870687  0.7802121148304  0.4087278619484 1.0
C      1  0.4505532341873  0.2162855167752  0.4093411921258 1.0
C      1  0.2428465266684  0.2523139667115  0.5626091204668 1.0
C      1  0.7556879116355  0.7449975729515  0.5633006937354 1.0
C      1  0.7562184379096  0.2524784520665  0.5630190371473 1.0
C      1  0.2429335938646  0.7447892341830  0.5628659166005 1.0
C      1  0.7141358152739  0.4521783118268  0.6864476158725 1.0
C      1  0.2824791519698  0.5439796005689  0.6880233723960 1.0
C      1  0.2845930141451  0.4520426619621  0.6860628138963 1.0
C      1  0.7160742849896  0.5441257208351  0.6884683391977 1.0
C      1  0.2186120570786  0.6449911858584  0.5641769217705 1.0
C      1  0.7784047806388  0.3529257639226  0.5645589750844 1.0
C      1  0.7800803913463  0.6451432657007  0.5647425488854 1.0
C      1  0.2206615076816  0.3527260523060  0.5640722124459 1.0
C      1  0.4521851168876  0.4984048310008  0.1599088581464 1.0
C      1  0.5474584622564  0.4984251069868  0.1600258861761 1.0
C      1  0.4995100985817  0.4564474101785  0.5489476022102 1.0
END
