TITL C-5119-875-5 -4.061 3375.00 -1488.03715512 0 0 180 (Td) n - 1
REM
REM Run started: at 2020.12.25 12:43:00 in /gpfs/home/chem/mssmkc/CARBON/AIRSS/Generating-Clusters/Str-Search/Higher-Symm/Only-C180
REM VASP from code version vasp.5.4.4.18Apr17-6-g9f103f2a35 (build Oct 11 2019 16:45:47) gamma-only
REM
REM
REM
REM
REM ./C.cell (73b75853f6e4503fb4b57bac71549d7d)
REM AIRSS Version 0.9.1 bugfix July 2018 build 013d7b7c2542+ Fri, 06 Jul 2018 19:26:36 +0100
REM compiler GCC version 6.3.0
REM options -cpp -iprefix /gpfs/warwick/csc/orac/software/Core/GCCcore/6.3.0/bin/../lib/gcc/x86_64-pc-linux-gnu/6.3.0/ -mtune=generic -march=x86-64 -g -O0
REM seed 103771488 1814429483 -1834540305 354069774 324531247 -210621792 1188604249 -1948648623 575756587 -2038811931 -1553506172 -801679248
REM
REM C.POTCAR (d86ddea03c3ceb6dc662c8ad6801f873)
REM 
CELL 1.54180   15.00000   15.00000   15.00000   90.00000   90.00000   90.00000
LATT -1
SFAC C  
C      1  0.6164105878107  0.2473831253565  0.3148366847751 1.0
C      1  0.3148367165582  0.6164105790194  0.2473831257641 1.0
C      1  0.2473831219862  0.3148367630815  0.6164105637522 1.0
C      1  0.3835894070721  0.2473831157967  0.6851632952575 1.0
C      1  0.6164105797102  0.7526168923951  0.6851632402755 1.0
C      1  0.3835894288207  0.7526168790949  0.3148367131501 1.0
C      1  0.6851632986602  0.6164106043673  0.7526168470176 1.0
C      1  0.3148366821663  0.3835894119744  0.7526168859986 1.0
C      1  0.6851632747895  0.3835894330983  0.2473831076459 1.0
C      1  0.7526168710406  0.3148367481015  0.3835894212129 1.0
C      1  0.2473831126466  0.6851632696535  0.3835894232630 1.0
C      1  0.7526168734856  0.6851632841327  0.6164105449015 1.0
C      1  0.3148367027383  0.2473831409710  0.6164105930309 1.0
C      1  0.2473831209171  0.6164105626920  0.3148367203468 1.0
C      1  0.6164105772041  0.3148367418207  0.2473831128791 1.0
C      1  0.6851632964938  0.2473831170195  0.3835893909673 1.0
C      1  0.6851632738622  0.7526168831362  0.6164105470505 1.0
C      1  0.3148367225314  0.7526168654401  0.3835894209432 1.0
C      1  0.7526168824110  0.6164105832801  0.6851632376186 1.0
C      1  0.7526168686587  0.3835894424407  0.3148367120920 1.0
C      1  0.2473831123298  0.3835894528546  0.6851632618101 1.0
C      1  0.3835893877688  0.3148367073127  0.7526169027515 1.0
C      1  0.3835894222779  0.6851632825735  0.2473831035332 1.0
C      1  0.6164105887522  0.6851633059571  0.7526168468063 1.0
C      1  0.6325649208967  0.4388040886485  0.7032015306322 1.0
C      1  0.7032015392453  0.6325649161606  0.4388041255030 1.0
C      1  0.4388041029688  0.7032015404488  0.6325649280535 1.0
C      1  0.3674351001567  0.4388041538833  0.2967984401251 1.0
C      1  0.6325649267505  0.5611958655005  0.2967984768903 1.0
C      1  0.3674350739735  0.5611958519344  0.7032015088348 1.0
C      1  0.2967984448434  0.6325649106568  0.5611958647229 1.0
C      1  0.7032015408624  0.3674350874928  0.5611959003172 1.0
C      1  0.2967984367381  0.3674350933619  0.4388041031358 1.0
C      1  0.5611958597392  0.7032015345948  0.3674351197602 1.0
C      1  0.4388041084611  0.2967984747052  0.3674350580667 1.0
C      1  0.5611958815391  0.2967984699816  0.6325648976999 1.0
C      1  0.7032015460954  0.4388040931786  0.6325649315324 1.0
C      1  0.4388040904864  0.6325649120724  0.7032015362251 1.0
C      1  0.6325649188260  0.7032015313809  0.4388041403003 1.0
C      1  0.2967984477554  0.4388041238816  0.3674350603336 1.0
C      1  0.2967984365769  0.5611958697462  0.6325648922753 1.0
C      1  0.7032015459560  0.5611958744428  0.3674351147390 1.0
C      1  0.5611958673239  0.6325649147197  0.2967984792358 1.0
C      1  0.5611958708728  0.3674350738850  0.7032015114416 1.0
C      1  0.4388041389484  0.3674350986597  0.2967984302377 1.0
C      1  0.3674350909943  0.7032015280365  0.5611958771814 1.0
C      1  0.3674350874255  0.2967984740743  0.4388041070141 1.0
C      1  0.6325649185859  0.2967984786259  0.5611958738631 1.0
C      1  0.4237422741229  0.5016370004543  0.0496611990364 1.0
C      1  0.0496611478298  0.4237422440660  0.5016370571266 1.0
C      1  0.5016369902139  0.0496612295631  0.4237423007160 1.0
C      1  0.5762577320243  0.5016369754262  0.9503387289447 1.0
C      1  0.4237422591073  0.4983628877123  0.9503388351670 1.0
C      1  0.5762577830197  0.4983629989624  0.0496610969431 1.0
C      1  0.9503388006054  0.4237422430436  0.4983629979543 1.0
C      1  0.0496611488560  0.5762577866695  0.4983630613097 1.0
C      1  0.9503387961359  0.5762577800244  0.5016369048215 1.0
C      1  0.4983629600157  0.0496611681761  0.5762577843048 1.0
C      1  0.5016370146214  0.9503387955540  0.5762577252928 1.0
C      1  0.4983629414442  0.9503388578691  0.4237422299848 1.0
C      1  0.0496611885819  0.5016369301050  0.4237422704419 1.0
C      1  0.5016370036760  0.4237422581544  0.0496612079699 1.0
C      1  0.4237422664333  0.0496611961271  0.5016371296884 1.0
C      1  0.9503387744114  0.5016370045798  0.5762577146364 1.0
C      1  0.9503388441998  0.4983629636455  0.4237422159614 1.0
C      1  0.0496611188343  0.4983630281365  0.5762578063900 1.0
C      1  0.4983628941042  0.4237422246016  0.9503388457899 1.0
C      1  0.4983630069667  0.5762577720328  0.0496610878303 1.0
C      1  0.5016369771306  0.5762577010393  0.9503387197623 1.0
C      1  0.5762577434968  0.0496611907055  0.4983629897938 1.0
C      1  0.5762577559610  0.9503388106658  0.5016369283677 1.0
C      1  0.4237422352764  0.9503388214195  0.4983629814961 1.0
C      1  0.6782479446335  0.4574681679379  0.1812102804297 1.0
C      1  0.1812102787012  0.6782479359793  0.4574681751530 1.0
C      1  0.4574681796163  0.1812102967127  0.6782480095036 1.0
C      1  0.3217520098178  0.4574681548263  0.8187897098282 1.0
C      1  0.6782479891143  0.5425318554656  0.8187896770434 1.0
C      1  0.3217520640642  0.5425318364205  0.1812102957499 1.0
C      1  0.8187896993347  0.6782479823450  0.5425318235904 1.0
C      1  0.1812102975217  0.3217520946081  0.5425318239425 1.0
C      1  0.8187896928386  0.3217520396112  0.4574681711050 1.0
C      1  0.5425318306980  0.1812103012063  0.3217520305218 1.0
C      1  0.4574681772106  0.8187897136448  0.3217520307252 1.0
C      1  0.5425318298120  0.8187897129046  0.6782479383619 1.0
C      1  0.1812102809657  0.4574681967114  0.6782479518813 1.0
C      1  0.4574681718445  0.6782479484777  0.1812102723954 1.0
C      1  0.6782479848609  0.1812102946903  0.4574681601469 1.0
C      1  0.8187897080433  0.4574681712544  0.3217520163676 1.0
C      1  0.8187897003266  0.5425318345202  0.6782479365224 1.0
C      1  0.1812102902724  0.5425318208999  0.3217520908688 1.0
C      1  0.5425318433126  0.6782479816216  0.8187896768992 1.0
C      1  0.5425318359047  0.3217520617141  0.1812102959474 1.0
C      1  0.4574681489747  0.3217519961659  0.8187897202062 1.0
C      1  0.3217520346977  0.1812103157047  0.5425318436667 1.0
C      1  0.3217520405491  0.8187897004712  0.4574681719850 1.0
C      1  0.6782479600847  0.8187897040207  0.5425318164047 1.0
C      1  0.6583204147296  0.7963938267232  0.4516085020792 1.0
C      1  0.4516085005048  0.6583203539625  0.7963938536179 1.0
C      1  0.7963938862654  0.4516084967454  0.6583203342166 1.0
C      1  0.3416796412881  0.7963938424483  0.5483915047832 1.0
C      1  0.6583203932694  0.2036061394580  0.5483914835125 1.0
C      1  0.3416796655602  0.2036061297973  0.4516085296303 1.0
C      1  0.5483915039326  0.6583203729493  0.2036061821079 1.0
C      1  0.4516084718495  0.3416796830937  0.2036061352372 1.0
C      1  0.5483914575707  0.3416796146421  0.7963938662226 1.0
C      1  0.2036061261794  0.4516084821649  0.3416796227264 1.0
C      1  0.7963938830619  0.5483914865066  0.3416796363165 1.0
C      1  0.2036061244760  0.5483915338656  0.6583203822496 1.0
C      1  0.4516084873125  0.7963938649477  0.6583203250192 1.0
C      1  0.7963938549658  0.6583204247808  0.4516085051505 1.0
C      1  0.6583203717090  0.4516085249475  0.7963938587859 1.0
C      1  0.5483914874909  0.7963938529581  0.3416796504388 1.0
C      1  0.5483914910231  0.2036061400515  0.6583204030478 1.0
C      1  0.4516085054885  0.2036061378109  0.3416796127902 1.0
C      1  0.2036061251590  0.6583203746272  0.5483915227907 1.0
C      1  0.2036061106601  0.3416796800270  0.4516084958712 1.0
C      1  0.7963938684572  0.3416796349420  0.5483915009481 1.0
C      1  0.3416796796883  0.4516084748415  0.2036061405079 1.0
C      1  0.3416796265389  0.5483914760360  0.7963938530174 1.0
C      1  0.6583203787134  0.5483915017176  0.2036061839763 1.0
C      1  0.4984430613809  0.3573441600889  0.5724168565131 1.0
C      1  0.5724169082339  0.4984430393827  0.3573442444287 1.0
C      1  0.3573442010718  0.5724169025118  0.4984430185908 1.0
C      1  0.5015569855076  0.3573441467592  0.4275830931480 1.0
C      1  0.4984430518482  0.6426558063866  0.4275831796507 1.0
C      1  0.5015569650168  0.6426558122470  0.5724169694711 1.0
C      1  0.4275831440643  0.4984430347578  0.6426558041774 1.0
C      1  0.5724168806016  0.5015569304392  0.6426558998056 1.0
C      1  0.4275831405552  0.5015569715481  0.3573441860675 1.0
C      1  0.6426558459809  0.5724168829609  0.5015570522092 1.0
C      1  0.3573442264013  0.4275831081968  0.5015569109180 1.0
C      1  0.6426558221555  0.4275831119731  0.4984430861275 1.0
C      1  0.5724169013230  0.3573441524195  0.4984430368748 1.0
C      1  0.3573442132112  0.4984430260433  0.5724168593472 1.0
C      1  0.4984430507696  0.5724168874343  0.3573442402153 1.0
C      1  0.4275831576540  0.3573441666954  0.5015569019489 1.0
C      1  0.4275831406655  0.6426558114103  0.4984430845474 1.0
C      1  0.5724169103378  0.6426558122952  0.5015570468864 1.0
C      1  0.6426558399726  0.4984430435928  0.4275831866165 1.0
C      1  0.6426558292763  0.5015569425861  0.5724169666172 1.0
C      1  0.3573442081072  0.5015569930489  0.4275830834918 1.0
C      1  0.5015569501820  0.5724168694806  0.6426558975402 1.0
C      1  0.5015569867120  0.4275830993000  0.3573441911523 1.0
C      1  0.4984430566600  0.4275831046610  0.6426558084866 1.0
C      1  0.8944329940449  0.6294835758860  0.5625911255831 1.0
C      1  0.5625911728241  0.8944330212543  0.6294835547338 1.0
C      1  0.6294835985207  0.5625911698146  0.8944330015328 1.0
C      1  0.1055670104559  0.6294835349145  0.4374088587531 1.0
C      1  0.8944330067137  0.3705164139847  0.4374088454358 1.0
C      1  0.1055670148207  0.3705164621582  0.5625911650184 1.0
C      1  0.4374088266947  0.8944330197895  0.3705164335518 1.0
C      1  0.5625911421199  0.1055669825273  0.3705164138284 1.0
C      1  0.4374088318895  0.1055669749537  0.6294836263761 1.0
C      1  0.3705164652369  0.5625911761565  0.1055669994370 1.0
C      1  0.6294835739873  0.4374088432387  0.1055669787936 1.0
C      1  0.3705163696593  0.4374087940429  0.8944330516325 1.0
C      1  0.5625911499449  0.6294835820534  0.8944329858141 1.0
C      1  0.6294835529109  0.8944329959701  0.5625911243938 1.0
C      1  0.8944330117008  0.5625911690802  0.6294835541335 1.0
C      1  0.4374088519391  0.6294835675916  0.1055669727710 1.0
C      1  0.4374087794818  0.3705163496232  0.8944330652400 1.0
C      1  0.5625911788092  0.3705164555286  0.1055670075498 1.0
C      1  0.3705164141003  0.8944330195154  0.4374088335156 1.0
C      1  0.3705164027134  0.1055669810752  0.5625912057881 1.0
C      1  0.6294835785706  0.1055669777345  0.4374088298443 1.0
C      1  0.1055670160285  0.5625911178411  0.3705164680302 1.0
C      1  0.1055670023131  0.4374088666499  0.6294835701299 1.0
C      1  0.8944330189439  0.4374088275616  0.3705164157015 1.0
C      1  0.3826243651887  0.6173756459758  0.8474784536876 1.0
C      1  0.8474784722850  0.3826243095837  0.6173756767914 1.0
C      1  0.8474784316364  0.6173757180624  0.3826243166067 1.0
C      1  0.1525215468847  0.6173758098890  0.6173757950079 1.0
C      1  0.3826242961201  0.8474784972354  0.6173756858572 1.0
C      1  0.6173756782862  0.1525215683293  0.6173756703385 1.0
C      1  0.6173756127403  0.3826244048956  0.8474784557959 1.0
C      1  0.6173757802518  0.6173757739103  0.1525215531023 1.0
C      1  0.6173757565575  0.8474784176046  0.3826242778203 1.0
C      1  0.3826242345518  0.3826242356174  0.1525214614475 1.0
C      1  0.3826243527220  0.1525215128442  0.3826243326156 1.0
C      1  0.1525215177851  0.3826242225511  0.3826241935238 1.0
END
