TITL C-519-9595-17 -4.857 3375.00 -827.42407818 0 0 103 (C1) n - 1
REM
REM Run started: at 2020.12.30 02:52:23 in /gpfs/home/chem/mssmkc/CARBON/AIRSS/Generating-Clusters/Str-Search/Higher-Symm/C100-200
REM VASP from code version vasp.5.4.4.18Apr17-6-g9f103f2a35 (build Oct 11 2019 16:45:47) gamma-only
REM
REM
REM
REM
REM ./C.cell (533062f00bc710175b3da973d35f2034)
REM AIRSS Version 0.9.1 bugfix July 2018 build 013d7b7c2542+ Fri, 06 Jul 2018 19:26:36 +0100
REM compiler GCC version 6.3.0
REM options -cpp -iprefix /gpfs/warwick/csc/orac/software/Core/GCCcore/6.3.0/bin/../lib/gcc/x86_64-pc-linux-gnu/6.3.0/ -mtune=generic -march=x86-64 -g -O0
REM seed 422622781 -888419387 -1607207746 -497311128 1911946298 1703874057 98230166 -1237650717 1305331880 -750587424 -804670773 1887113250
REM
REM C.POTCAR (d86ddea03c3ceb6dc662c8ad6801f873)
REM 
CELL 1.54180   15.00000   15.00000   15.00000   90.00000   90.00000   90.00000
LATT -1
SFAC C  
C      1  0.3345347022489  0.7930660722598  0.5181746790020 1.0
C      1  0.3367448269643  0.3373087774471  0.7342479210287 1.0
C      1  0.3270022888255  0.3695350221755  0.2382280634477 1.0
C      1  0.4243509175177  0.2329175728196  0.5340263633487 1.0
C      1  0.4156202595703  0.5956449286124  0.2488044534930 1.0
C      1  0.4238011989548  0.6610328145525  0.7059839018580 1.0
C      1  0.5297037254438  0.2682191000611  0.4016018364036 1.0
C      1  0.5194862265567  0.6892699787366  0.3479964828662 1.0
C      1  0.5369768394698  0.5331041667442  0.7433980966008 1.0
C      1  0.2546881840662  0.4213722836149  0.5610818865863 1.0
C      1  0.2522266849488  0.4795373645847  0.4053223797846 1.0
C      1  0.2503837873642  0.5853072621076  0.5345953712601 1.0
C      1  0.2385899714255  0.3722032518694  0.2645750722142 1.0
C      1  0.2416901624929  0.8276478978645  0.5244683391061 1.0
C      1  0.2466994945880  0.3546759144708  0.7239244429269 1.0
C      1  0.8052576872730  0.4932930403941  0.5810500083482 1.0
C      1  0.8051321824110  0.5031440657241  0.4846778826137 1.0
C      1  0.8467711352992  0.5660536913705  0.5409223932838 1.0
C      1  0.4386863645461  0.2393060906793  0.4384241646100 1.0
C      1  0.4282321920880  0.6748706171645  0.3057932175954 1.0
C      1  0.4427853553645  0.5761186961466  0.7468807496416 1.0
C      1  0.3932804987427  0.7414108104488  0.5928020463502 1.0
C      1  0.3995473358846  0.2966584574970  0.6600901219070 1.0
C      1  0.3908885782268  0.4542184746421  0.2366908159944 1.0
C      1  0.5607923874627  0.7585902086674  0.6469072655338 1.0
C      1  0.5591989346184  0.2304192622669  0.6569488099633 1.0
C      1  0.5562790210355  0.4957129650044  0.1847189620163 1.0
C      1  0.6158895626258  0.3946298058278  0.4775881720885 1.0
C      1  0.6055114594838  0.5545876145683  0.4068558240272 1.0
C      1  0.6262298801518  0.5355649987655  0.5833598078642 1.0
C      1  0.5262313685455  0.3878657451291  0.5298169681220 1.0
C      1  0.5106813228449  0.5285603631590  0.3709427770021 1.0
C      1  0.5371916144112  0.5914919669808  0.5739204610632 1.0
C      1  0.6293605425177  0.6298186978877  0.5913537120951 1.0
C      1  0.6035985812563  0.3345450148936  0.5540541945531 1.0
C      1  0.5886760516519  0.5380444319600  0.3136225293590 1.0
C      1  0.2920532777796  0.5240924582055  0.6830408592984 1.0
C      1  0.2911389399548  0.3246749204073  0.4304121752579 1.0
C      1  0.2841274441307  0.6393158995895  0.3845521386434 1.0
C      1  0.5423474697330  0.5208512904326  0.6388886391189 1.0
C      1  0.5283161470553  0.3657215002616  0.4357887856754 1.0
C      1  0.5232426691782  0.6130181263109  0.4177602272319 1.0
C      1  0.1716381282966  0.3985661546871  0.7173076991166 1.0
C      1  0.1655982774334  0.3575035552030  0.3099541926145 1.0
C      1  0.2347204815120  0.7445821736555  0.5015643006830 1.0
C      1  0.5060719611239  0.4293171845729  0.3656933744248 1.0
C      1  0.4855234850498  0.6283827703623  0.5039173969622 1.0
C      1  0.5163541023822  0.4274465874803  0.6212178779361 1.0
C      1  0.6346274458245  0.2466780248885  0.5866612543420 1.0
C      1  0.6192902812442  0.5717659086753  0.2296616243813 1.0
C      1  0.6435632537354  0.6938271723211  0.6659740494861 1.0
C      1  0.5932250783514  0.4037483501723  0.2281624307305 1.0
C      1  0.6002503591696  0.7814254706911  0.5552820204672 1.0
C      1  0.5783560083517  0.3047560077676  0.7200429346593 1.0
C      1  0.7491208965086  0.4695789482828  0.6571351634221 1.0
C      1  0.7539630118418  0.4992594049848  0.4049918535083 1.0
C      1  0.8480085644048  0.6538502096603  0.5743817834028 1.0
C      1  0.6034248805750  0.4416733107764  0.3204207375001 1.0
C      1  0.6762114676966  0.7161253031306  0.5715210046012 1.0
C      1  0.6091203413550  0.3726344293795  0.6494671218047 1.0
C      1  0.2871307267801  0.5996431874522  0.6255629058588 1.0
C      1  0.2918190565984  0.3387717800471  0.5250620753200 1.0
C      1  0.2860803639499  0.5505174238772  0.3482730510319 1.0
C      1  0.7088765398222  0.3808704871011  0.6437057420387 1.0
C      1  0.6567510940896  0.4646102850256  0.4159620295326 1.0
C      1  0.7760795206115  0.7138990218122  0.5774446097929 1.0
C      1  0.6062057331273  0.7164121696854  0.3086836979479 1.0
C      1  0.6341668042448  0.5203787786881  0.7739764749646 1.0
C      1  0.6272602212101  0.2296327779987  0.3898216674584 1.0
C      1  0.2421764038941  0.6548524472734  0.4717121739839 1.0
C      1  0.2404284568425  0.4418842105642  0.6559320587122 1.0
C      1  0.2369933884361  0.3874694812246  0.3756045788504 1.0
C      1  0.4320079116674  0.7003974143273  0.5113962435485 1.0
C      1  0.4455028907154  0.3857406365234  0.6722755474029 1.0
C      1  0.4394705911828  0.3985807124045  0.3038142641123 1.0
C      1  0.3468027873798  0.5365956790396  0.2758317261990 1.0
C      1  0.3487216241280  0.6684167096417  0.6465643360711 1.0
C      1  0.3549279077768  0.2861969079622  0.5708701368413 1.0
C      1  0.7247465973289  0.6379203081192  0.7053057025370 1.0
C      1  0.7153720351193  0.2323856229824  0.5307779002560 1.0
C      1  0.7199902286968  0.5919046218582  0.2631172965381 1.0
C      1  0.5811411065142  0.2603928941989  0.3128770653178 1.0
C      1  0.5808239984669  0.7660246580915  0.3838951675500 1.0
C      1  0.5787997201989  0.4476971875460  0.7877195800310 1.0
C      1  0.4713574945046  0.7385267944794  0.6634921455743 1.0
C      1  0.4716064871851  0.2285616084307  0.6248643254526 1.0
C      1  0.4655479663073  0.5183507046443  0.1960219589311 1.0
C      1  0.6566122531811  0.6633215717687  0.2488720580425 1.0
C      1  0.7118096850099  0.5397912389823  0.7216746051488 1.0
C      1  0.7024611160482  0.2243390322080  0.4401486818258 1.0
C      1  0.5858512681643  0.3141811647157  0.2387511883236 1.0
C      1  0.5808993811518  0.7964588773822  0.4682558067477 1.0
C      1  0.5711417088784  0.3568213364926  0.7924955232240 1.0
C      1  0.3575285667987  0.6990005781705  0.3651325049413 1.0
C      1  0.3703844312287  0.5126380575531  0.7383541533388 1.0
C      1  0.3661312530047  0.2800813284246  0.3890940477062 1.0
C      1  0.3855335579228  0.3245940346656  0.3030003601676 1.0
C      1  0.3828694615960  0.7501359614030  0.4473192588177 1.0
C      1  0.3917701507783  0.4174356098835  0.7390767535426 1.0
C      1  0.7973686783047  0.6716757523486  0.6585372146324 1.0
C      1  0.7284896599262  0.2920804280339  0.6046944805701 1.0
C      1  0.7654079950831  0.5558710103524  0.3311737129232 1.0
C      1  0.2502633765773  0.4948389176195  0.5001337689649 1.0
END
