TITL C-51468-4529-4 -3.066 3375.00 -540.28335407 0 0 66 (C1) n - 1
REM
REM Run started: at 2020.11.21 08:05:07 in /rds/project/t2_vol4/rds-t2-cs072/BORA/CARBON/AIRSS/Generating-Clusters/Str-Search/Higher-Symm
REM VASP from code version vasp.5.4.4.18Apr17-6-g9f103f2a35 (build Oct 11 2019 16:45:47) gamma-only
REM
REM
REM
REM
REM ./C.cell (e5ae0387ce4d49c7c0135a1433873289)
REM AIRSS Version 0.9.1 bugfix July 2018 build 013d7b7c2542+ Fri, 06 Jul 2018 19:26:36 +0100
REM compiler GCC version 4.8.5 20150623 (Red Hat 4.8.5-39)
REM options -cpp -mtune=generic -march=x86-64 -g -O0
REM seed -293256760 -417722060 1352283017 1842698182 -2036206970 -874424597 -1019831641 876839948 -1154061347 39292266 -48972423 1767375071
REM
REM C.POTCAR (d86ddea03c3ceb6dc662c8ad6801f873)
REM 
CELL 1.54180   15.00000   15.00000   15.00000   90.00000   90.00000   90.00000
LATT -1
SFAC C  
C      1  0.4555219576624  0.5781930742771  0.3282410785219 1.0
C      1  0.5943503559842  0.4727014427422  0.2704380843959 1.0
C      1  0.4263293873276  0.4272177448546  0.2625773360865 1.0
C      1  0.5150742750522  0.7287823059325  0.6222854036793 1.0
C      1  0.6855147548625  0.3736712365594  0.6143032366767 1.0
C      1  0.2914358888378  0.4023219625468  0.6461710641729 1.0
C      1  0.7246343384540  0.5268131915782  0.3942107466204 1.0
C      1  0.4249058541913  0.3016334693610  0.3710098843017 1.0
C      1  0.3618207877744  0.6902008009035  0.3946416325295 1.0
C      1  0.5368519491189  0.7713274927443  0.5392515383134 1.0
C      1  0.7140942278571  0.3316122432673  0.5332869850878 1.0
C      1  0.2766509127957  0.3954301553287  0.5525791497015 1.0
C      1  0.3258791976511  0.6122840078041  0.5297392718223 1.0
C      1  0.6970931429517  0.6026266192548  0.5320432785833 1.0
C      1  0.4850640192816  0.2926599305243  0.5050761164919 1.0
C      1  0.3792959124757  0.3556526642681  0.6971747410464 1.0
C      1  0.4316209327411  0.6874020066881  0.6321593262536 1.0
C      1  0.6928871085418  0.4671945226267  0.6264835269902 1.0
C      1  0.6686503176260  0.6047022853671  0.4339655828286 1.0
C      1  0.5212293532925  0.3168515884978  0.4065759387353 1.0
C      1  0.3189115118902  0.5978277002506  0.4245541123000 1.0
C      1  0.5589162034008  0.5896958400761  0.6887798876392 1.0
C      1  0.5507992663269  0.4069322191202  0.6876024029629 1.0
C      1  0.3921467544302  0.5168891617785  0.7010669791507 1.0
C      1  0.4486371853878  0.4228221344483  0.6863336730194 1.0
C      1  0.4546539662348  0.5916042366187  0.6678926797893 1.0
C      1  0.5988507085030  0.4966548131819  0.6588139158739 1.0
C      1  0.3886834934450  0.7405615323157  0.4737627154366 1.0
C      1  0.7604965579921  0.4752084923834  0.4723209222026 1.0
C      1  0.3918463877207  0.2767856373796  0.4562968679405 1.0
C      1  0.2533516688999  0.4823086110804  0.5174352541877 1.0
C      1  0.6189088167194  0.7303814090108  0.5099221893571 1.0
C      1  0.6400974785515  0.2781603837407  0.5012711579330 1.0
C      1  0.4371846787586  0.3868262579618  0.5143553698309 1.0
C      1  0.4192468144804  0.5734921696885  0.5062330957192 1.0
C      1  0.5694452752826  0.4672111809171  0.4798852094705 1.0
C      1  0.3698108867337  0.6959300198754  0.5567110693354 1.0
C      1  0.7342681908779  0.5181411492607  0.5558850320670 1.0
C      1  0.3002247041732  0.3280316086927  0.7179278824627 1.0
C      1  0.5671558826958  0.2803796985475  0.5624018663706 1.0
C      1  0.2762004079865  0.5475165424912  0.5822821893451 1.0
C      1  0.6549946745775  0.6719916877983  0.5769892267230 1.0
C      1  0.6140117753777  0.6927444052288  0.4223782985679 1.0
C      1  0.6211512524086  0.3011073530724  0.4068857137638 1.0
C      1  0.2749267685359  0.5001976046104  0.4248446690615 1.0
C      1  0.6225865030749  0.5145997637873  0.4207721594367 1.0
C      1  0.5078818608823  0.4056655760588  0.4488534158071 1.0
C      1  0.4162592365610  0.5586590999707  0.4179459058834 1.0
C      1  0.3777111258215  0.3784520997687  0.3305844228577 1.0
C      1  0.4495979077109  0.6753684707281  0.3468739734140 1.0
C      1  0.6617978996452  0.4618508781216  0.3437807785552 1.0
C      1  0.3072797075178  0.5013189934822  0.6631665458038 1.0
C      1  0.5903078826759  0.6682344093733  0.6507860160570 1.0
C      1  0.5957371647051  0.3382245724263  0.6398145200810 1.0
C      1  0.3379714456279  0.3604260016717  0.4818576591264 1.0
C      1  0.4797377174928  0.7690754129939  0.4650537209230 1.0
C      1  0.7445763641859  0.3835600907219  0.4599073298108 1.0
C      1  0.4665879684201  0.5456355821468  0.5792151360778 1.0
C      1  0.5461765122254  0.4930801082133  0.5702554970297 1.0
C      1  0.4592805132382  0.4435314154071  0.5894358718780 1.0
C      1  0.4352759254300  0.5217079708113  0.2519797367845 1.0
C      1  0.5318953483480  0.5451593638717  0.2616402614434 1.0
C      1  0.5197294109676  0.4233158283207  0.2588103161667 1.0
C      1  0.5227045969062  0.7176790575548  0.3921299001441 1.0
C      1  0.6822806165378  0.3695434304836  0.3846317474078 1.0
C      1  0.3207980061555  0.4162315794297  0.3974587819624 1.0
END
