TITL C-519-9595-27 -10.131 3375.00 -1655.01315631 0 0 199 (C1) n - 1
REM
REM Run started: at 2020.12.30 11:14:56 in /gpfs/home/chem/mssmkc/CARBON/AIRSS/Generating-Clusters/Str-Search/Higher-Symm/C100-200
REM VASP from code version vasp.5.4.4.18Apr17-6-g9f103f2a35 (build Oct 11 2019 16:45:47) gamma-only
REM
REM
REM
REM
REM ./C.cell (533062f00bc710175b3da973d35f2034)
REM AIRSS Version 0.9.1 bugfix July 2018 build 013d7b7c2542+ Fri, 06 Jul 2018 19:26:36 +0100
REM compiler GCC version 6.3.0
REM options -cpp -iprefix /gpfs/warwick/csc/orac/software/Core/GCCcore/6.3.0/bin/../lib/gcc/x86_64-pc-linux-gnu/6.3.0/ -mtune=generic -march=x86-64 -g -O0
REM seed -990934185 1982387220 1912338985 1839199208 -1927210623 -157474759 -125171110 112293025 -1041856944 1330403040 13983142 -374497765
REM
REM C.POTCAR (d86ddea03c3ceb6dc662c8ad6801f873)
REM 
CELL 1.54180   15.00000   15.00000   15.00000   90.00000   90.00000   90.00000
LATT -1
SFAC C  
C      1  0.5830171005268  0.4997565812978  0.9787426748145 1.0
C      1  0.4699362140909  0.1281076441029  0.6811196460250 1.0
C      1  0.5341430015626  0.2194711946817  0.1558164732493 1.0
C      1  0.4721414240319  0.7412019424685  0.0853783353416 1.0
C      1  0.4830288163044  0.8921174196752  0.5935587198765 1.0
C      1  0.5460155710863  0.4146649310534  0.0003202160365 1.0
C      1  0.4712432001402  0.8526032814689  0.6652868057155 1.0
C      1  0.4635881483572  0.8110972690033  0.1321733539299 1.0
C      1  0.5249919687772  0.2895325520957  0.1145961117490 1.0
C      1  0.4648597816596  0.1058105323688  0.6023360624834 1.0
C      1  0.8707036304892  0.7019881594991  0.5403221592600 1.0
C      1  0.8560062072603  0.5203176351719  0.6725191322832 1.0
C      1  0.8746253273603  0.3548118885032  0.5148622130638 1.0
C      1  0.8610831637659  0.4063421377111  0.3658100513462 1.0
C      1  0.8402693568157  0.6297597619088  0.3488072127715 1.0
C      1  0.1393128613537  0.3232182889311  0.5551023940723 1.0
C      1  0.1813467437853  0.5143145508410  0.6939482022066 1.0
C      1  0.1626049080064  0.6738567502387  0.4926855489896 1.0
C      1  0.1597849817146  0.5854312043947  0.3632375600488 1.0
C      1  0.1757503827521  0.3396294381969  0.3920441652317 1.0
C      1  0.6098924847424  0.4821169341811  0.3854362032792 1.0
C      1  0.5983924976167  0.6413297357816  0.4243208223179 1.0
C      1  0.6211159822095  0.6131709402876  0.5950038228666 1.0
C      1  0.5980072835856  0.4421293202390  0.6240974019457 1.0
C      1  0.6054897462048  0.3432943391276  0.4738963334161 1.0
C      1  0.4081975271332  0.5111080052861  0.3337258020287 1.0
C      1  0.3966753152507  0.3598200568144  0.4324513445242 1.0
C      1  0.3749198634597  0.3812427192478  0.6078557427476 1.0
C      1  0.4087558016724  0.5455555272325  0.6266982388769 1.0
C      1  0.4064741499369  0.6319335710871  0.4673766256917 1.0
C      1  0.7765199007671  0.7268202769322  0.6855026393836 1.0
C      1  0.7911603281447  0.3588586760124  0.7260695383418 1.0
C      1  0.7602630585442  0.2066489492033  0.4556525008195 1.0
C      1  0.7784133654095  0.4433069692688  0.2224351195836 1.0
C      1  0.7644997031896  0.7932538393248  0.3640023439673 1.0
C      1  0.2059973064355  0.2886400005433  0.7077502688645 1.0
C      1  0.2479208972310  0.6662156178281  0.7591295151226 1.0
C      1  0.2656376061764  0.7718056863176  0.4330607922729 1.0
C      1  0.2361817180721  0.5140816979909  0.2365068968461 1.0
C      1  0.2552605892953  0.1836110994222  0.4028769439739 1.0
C      1  0.7306700108960  0.2295972950533  0.6190785049287 1.0
C      1  0.7399567546830  0.3142654940106  0.3199304402894 1.0
C      1  0.6909961410678  0.7056063013906  0.2846873823470 1.0
C      1  0.7471676591629  0.7945230766858  0.5347445227616 1.0
C      1  0.7260676415856  0.4712987741866  0.7708073958572 1.0
C      1  0.2716923899254  0.7432900954388  0.5984659939282 1.0
C      1  0.2748387419642  0.6687182044442  0.3017014378298 1.0
C      1  0.3192908593396  0.2839391428874  0.2881414266515 1.0
C      1  0.2349697657637  0.2063393878641  0.5674022782509 1.0
C      1  0.3182384090550  0.5301833809037  0.7947773020763 1.0
C      1  0.1448747302997  0.5789780053772  0.5191806930370 1.0
C      1  0.1446403066422  0.5083141347697  0.5975608220516 1.0
C      1  0.1512790326240  0.4177887120797  0.5443565730634 1.0
C      1  0.1707400864004  0.4319953569728  0.4525934369972 1.0
C      1  0.1565375950199  0.5234113166210  0.4334191590158 1.0
C      1  0.8858369471906  0.4482342112290  0.5142688645930 1.0
C      1  0.8943015021948  0.5193153868639  0.5818912533600 1.0
C      1  0.8957522971085  0.6072196543486  0.5209376680815 1.0
C      1  0.8715171840241  0.5774318856557  0.4253713653700 1.0
C      1  0.8789399974803  0.4826400506414  0.4236884681456 1.0
C      1  0.1484660454038  0.3804231163872  0.3050552848116 1.0
C      1  0.1559236105894  0.6728000671134  0.3981133346657 1.0
C      1  0.1688783389130  0.7343843540189  0.7465390245241 1.0
C      1  0.1604795528277  0.4369337135921  0.7368031918001 1.0
C      1  0.1434771460710  0.2790045522058  0.4680137993634 1.0
C      1  0.8477943194685  0.5808369694083  0.2706157490146 1.0
C      1  0.8563218904191  0.3321799714086  0.4217443490135 1.0
C      1  0.8444859123242  0.2920330061671  0.5772538233900 1.0
C      1  0.8568253067740  0.6007968726406  0.7161001162147 1.0
C      1  0.8819881129156  0.7560300992543  0.4649674337829 1.0
C      1  0.3960770227942  0.7513038140420  0.8110861977100 1.0
C      1  0.4256950693823  0.3623618328003  0.8937224012194 1.0
C      1  0.3877022844868  0.0618569828344  0.4576721967667 1.0
C      1  0.4126262287236  0.4118548600118  0.0998942490496 1.0
C      1  0.3854483085629  0.8443769105328  0.2786413487267 1.0
C      1  0.5765227950220  0.2186730727073  0.7590969375047 1.0
C      1  0.6210849001373  0.6454544838927  0.9088785052056 1.0
C      1  0.5686816352102  0.9048075965813  0.4515242495328 1.0
C      1  0.5892242474571  0.6253791095705  0.0916820728692 1.0
C      1  0.6075045453833  0.1243964031507  0.2945972069768 1.0
C      1  0.4562975389692  0.7732735022455  0.7213990655308 1.0
C      1  0.5184229005296  0.3664640520063  0.9254796260678 1.0
C      1  0.4462284484384  0.1293734706131  0.5098197089651 1.0
C      1  0.5098143163381  0.3841243653861  0.0915283987603 1.0
C      1  0.4599478879056  0.8443840150074  0.2147801912475 1.0
C      1  0.4926851540943  0.1693914820960  0.7618471142046 1.0
C      1  0.5616043817526  0.5659865384685  0.8998035031680 1.0
C      1  0.4950166257797  0.9335101372502  0.5086491466810 1.0
C      1  0.4971219957494  0.6566240421419  0.0716376884594 1.0
C      1  0.5388579977355  0.1703735443035  0.2387887706954 1.0
C      1  0.6812620222827  0.7321958316081  0.7008142870160 1.0
C      1  0.7271994930916  0.3787564376860  0.7975077622394 1.0
C      1  0.6695973124609  0.1747296223339  0.4620565085299 1.0
C      1  0.6912433266761  0.4348909207530  0.1865760397610 1.0
C      1  0.6848012069171  0.8082258828934  0.3086166867258 1.0
C      1  0.2991690393171  0.2763224615680  0.7240238415539 1.0
C      1  0.3262038378224  0.6823207081865  0.8148212910946 1.0
C      1  0.3641693748724  0.7936819477379  0.4295063622983 1.0
C      1  0.3196544861911  0.5110880119004  0.1847216310822 1.0
C      1  0.3243876370936  0.1134230487481  0.3929620149872 1.0
C      1  0.6314907641158  0.6264850357159  0.2691034482180 1.0
C      1  0.6565730437446  0.7759158586087  0.5422725926541 1.0
C      1  0.6501448165044  0.5299385432227  0.7486225331331 1.0
C      1  0.6397707938360  0.2438326565482  0.6049472942213 1.0
C      1  0.6371171709927  0.3192637552099  0.3026819317584 1.0
C      1  0.3618233768345  0.3708136164540  0.2733342450030 1.0
C      1  0.3253567929924  0.2321929930478  0.5701015827945 1.0
C      1  0.3702498658750  0.4571350557838  0.7580472836515 1.0
C      1  0.3616948152012  0.7276477831785  0.5879567812964 1.0
C      1  0.3689604349780  0.6718865036840  0.3146914830815 1.0
C      1  0.3718698631363  0.4016470342233  0.5122009531411 1.0
C      1  0.3924791165811  0.4142443944987  0.3505332429557 1.0
C      1  0.4046469000994  0.5984017660961  0.3727150228897 1.0
C      1  0.3917553651654  0.5614439593151  0.5331753955310 1.0
C      1  0.3840221135090  0.4604920638324  0.6618369557858 1.0
C      1  0.6055911429195  0.5899480794414  0.5035595389159 1.0
C      1  0.6134513096384  0.5786572426095  0.3493141945720 1.0
C      1  0.6140384990210  0.3811292218923  0.3832693724766 1.0
C      1  0.6035568437817  0.4212168916380  0.5316256504488 1.0
C      1  0.6244040638233  0.5320949223910  0.6522105443153 1.0
C      1  0.2246213318697  0.7340162079348  0.6801109079956 1.0
C      1  0.1629106622316  0.3556476332791  0.7563009343099 1.0
C      1  0.1997834676461  0.2036180935160  0.4781029261289 1.0
C      1  0.1848879325815  0.4368988918863  0.2567173284902 1.0
C      1  0.2248382962876  0.7279282798873  0.3594245494069 1.0
C      1  0.7968528605362  0.2933764699925  0.6630402885612 1.0
C      1  0.8339102991955  0.6769761640013  0.7407065265871 1.0
C      1  0.7990348805625  0.8045866436661  0.4512874305041 1.0
C      1  0.8285995534792  0.5214155847193  0.2165729612999 1.0
C      1  0.7867825489069  0.2706252459573  0.3933662968800 1.0
C      1  0.6396430517012  0.7063931601794  0.6136724456515 1.0
C      1  0.5670446428351  0.3724699813823  0.6873877485102 1.0
C      1  0.6068538153397  0.2417148860030  0.5079671974259 1.0
C      1  0.6219970310514  0.3849567607798  0.2217874397415 1.0
C      1  0.5654360345917  0.7360242216225  0.4157745885319 1.0
C      1  0.3476055423067  0.2954259498735  0.6385493374571 1.0
C      1  0.4480422486592  0.6166497992655  0.6813374257786 1.0
C      1  0.3927666073235  0.7211084368673  0.4952047246555 1.0
C      1  0.4099988090465  0.5168254745477  0.2348000835446 1.0
C      1  0.4318739136447  0.2717588921507  0.4369879089949 1.0
C      1  0.4608842187717  0.6159022992586  0.8630982065821 1.0
C      1  0.4244581345586  0.2031444290124  0.8179268418909 1.0
C      1  0.4545698099998  0.1705644896862  0.2969824838319 1.0
C      1  0.4460890414414  0.5745201939778  0.0948287131267 1.0
C      1  0.4101677163122  0.9716228042732  0.4641408474454 1.0
C      1  0.5739286604980  0.3696038942408  0.8508754144478 1.0
C      1  0.5322595418161  0.7242352306317  0.7740503223379 1.0
C      1  0.5344537862696  0.8293008848867  0.2802838586770 1.0
C      1  0.5526581371804  0.4445577916338  0.1659951559690 1.0
C      1  0.5328890396097  0.1638702467282  0.4626291487789 1.0
C      1  0.2533720666326  0.2681746033220  0.3537359500508 1.0
C      1  0.2208897113940  0.5868777038206  0.2889909441397 1.0
C      1  0.2232368208782  0.7424991575868  0.5148475152338 1.0
C      1  0.2446055701898  0.5705459765545  0.7433446747557 1.0
C      1  0.1777140339289  0.2654423634907  0.6208694769429 1.0
C      1  0.7760807885192  0.7038161972952  0.3313667069298 1.0
C      1  0.7969390271226  0.3878431076889  0.2952406203698 1.0
C      1  0.7918406572732  0.2199960059877  0.5436181695883 1.0
C      1  0.8038613452981  0.4564688013995  0.7154845579333 1.0
C      1  0.8035484108679  0.7420404241983  0.5957634509233 1.0
C      1  0.6032389306378  0.9502495363875  0.3701875038949 1.0
C      1  0.6555404486423  0.7071990744413  0.8651906482568 1.0
C      1  0.6413844393337  0.2433119357564  0.8145597847838 1.0
C      1  0.6093911270650  0.0512991398574  0.3599277288867 1.0
C      1  0.6198105228021  0.5460251005215  0.0537198077118 1.0
C      1  0.3677090468008  0.1260666178466  0.3108833525270 1.0
C      1  0.3920808264718  0.2763705901952  0.8725748503849 1.0
C      1  0.4710971353358  0.7158379895911  0.8533850504335 1.0
C      1  0.3513041069902  0.9179156041401  0.3225098351235 1.0
C      1  0.3978826897027  0.4963431726722  0.0567367216463 1.0
C      1  0.3408498002929  0.2441099051292  0.8020265024682 1.0
C      1  0.3664840533098  0.2062346706824  0.2663300454860 1.0
C      1  0.3441621587690  0.5571003167478  0.0998509260939 1.0
C      1  0.3684798877317  0.8987605589707  0.4138604734753 1.0
C      1  0.3622808277114  0.5993098478168  0.8462667036171 1.0
C      1  0.6315065050683  0.7362025834592  0.7783685548303 1.0
C      1  0.6203982998508  0.8734766722304  0.3020025613598 1.0
C      1  0.6349182772951  0.5010494129688  0.1407637089119 1.0
C      1  0.6125893101116  0.1080702062520  0.4415054064254 1.0
C      1  0.6621316969423  0.3287758620230  0.8401771487573 1.0
C      1  0.4044169062376  0.7611652767737  0.3393154442599 1.0
C      1  0.4225421127942  0.7019738456897  0.6597305018393 1.0
C      1  0.4338205433201  0.4073814047039  0.8052464047548 1.0
C      1  0.3969443260938  0.2173701958831  0.5046095348755 1.0
C      1  0.3697206945445  0.4224581446568  0.1884077191233 1.0
C      1  0.5849248710131  0.2262283404045  0.3148192822861 1.0
C      1  0.5885936759793  0.2821957207597  0.6777020165236 1.0
C      1  0.5796092068434  0.5571998106114  0.7991337373879 1.0
C      1  0.5946150138668  0.8044644331029  0.4711017013691 1.0
C      1  0.5937506487871  0.5887481202446  0.1861626284713 1.0
C      1  0.5062624237670  0.7674228776528  0.3421281924276 1.0
C      1  0.5235110133884  0.3898355257117  0.7739415428352 1.0
C      1  0.4994247452465  0.2161945562367  0.3798925430773 1.0
C      1  0.4950422044279  0.5347802272514  0.1827676860508 1.0
C      1  0.5072729560267  0.6172990377711  0.7637543188446 1.0
C      1  0.6075728911685  0.4989158370886  0.4778564616552 1.0
C      1  0.3546245254916  0.4898107426082  0.4910495192379 1.0
C      1  0.9776497621210  0.5657356153734  0.5606680988207 1.0
C      1  0.0631370226797  0.5554916247903  0.5666060586203 1.0
END
