TITL C-5119-875-39 -8.467 3375.00 -1464.82395179 0 0 180 (C1) n - 1
REM
REM Run started: at 2020.12.26 22:14:33 in /gpfs/home/chem/mssmkc/CARBON/AIRSS/Generating-Clusters/Str-Search/Higher-Symm/Only-C180
REM VASP from code version vasp.5.4.4.18Apr17-6-g9f103f2a35 (build Oct 11 2019 16:45:47) gamma-only
REM
REM
REM
REM
REM ./C.cell (73b75853f6e4503fb4b57bac71549d7d)
REM AIRSS Version 0.9.1 bugfix July 2018 build 013d7b7c2542+ Fri, 06 Jul 2018 19:26:36 +0100
REM compiler GCC version 6.3.0
REM options -cpp -iprefix /gpfs/warwick/csc/orac/software/Core/GCCcore/6.3.0/bin/../lib/gcc/x86_64-pc-linux-gnu/6.3.0/ -mtune=generic -march=x86-64 -g -O0
REM seed 981557185 140923243 -825202663 -1650531334 -552836907 1492843631 1352445361 -2112635939 -672984903 -759944621 1728042494 1642134756
REM
REM C.POTCAR (d86ddea03c3ceb6dc662c8ad6801f873)
REM 
CELL 1.54180   15.00000   15.00000   15.00000   90.00000   90.00000   90.00000
LATT -1
SFAC C  
C      1  0.2025452463946  0.7079369252518  0.3208787878751 1.0
C      1  0.4703457600607  0.7131776654523  0.9125402884839 1.0
C      1  0.8286500968901  0.7160160198173  0.2939738989261 1.0
C      1  0.5676904002574  0.5182556783305  0.6570502611678 1.0
C      1  0.6013452343295  0.5074929386526  0.3522921132635 1.0
C      1  0.3398248148977  0.5071591285957  0.4908900432934 1.0
C      1  0.3460883165929  0.4230836699442  0.6280409738485 1.0
C      1  0.6969547841472  0.4413761987441  0.6128730152994 1.0
C      1  0.4990283385527  0.4390859154561  0.2568964988500 1.0
C      1  0.3303590881430  0.5307327143174  0.8471625705192 1.0
C      1  0.8858016222109  0.5364114387130  0.4616390764784 1.0
C      1  0.2968882706982  0.5733030092215  0.1652994627331 1.0
C      1  0.5536879721297  0.7227363208935  0.5343627305115 1.0
C      1  0.5072473718965  0.7010272145695  0.4440813296672 1.0
C      1  0.4607341989915  0.6912009843999  0.5176301356249 1.0
C      1  0.8484427971308  0.7309463310336  0.3733510306324 1.0
C      1  0.2566227917180  0.7392876932569  0.2645542130930 1.0
C      1  0.4073935043462  0.7354181481283  0.8617753749072 1.0
C      1  0.9357487974555  0.4626209088122  0.4251120377877 1.0
C      1  0.3249904633476  0.4842953262579  0.1348920162711 1.0
C      1  0.2778483138364  0.4575281183740  0.7918143250227 1.0
C      1  0.3447057374753  0.7314461314948  0.2369921542476 1.0
C      1  0.3642039834456  0.7040795570295  0.7854240797217 1.0
C      1  0.8364121732654  0.7090529893703  0.4620779998548 1.0
C      1  0.6350138395653  0.5631680460862  0.4243999081031 1.0
C      1  0.3562524317845  0.5658921506597  0.4096282805321 1.0
C      1  0.5041364520243  0.5901720897925  0.6812068398857 1.0
C      1  0.4533832225700  0.3024585841027  0.7263303826432 1.0
C      1  0.7081539634109  0.3124829669330  0.4135013963575 1.0
C      1  0.3367018411073  0.3637073811496  0.3616950991668 1.0
C      1  0.7508240488933  0.4090564455432  0.7839497942965 1.0
C      1  0.5799628854236  0.3855291694544  0.1242550725425 1.0
C      1  0.1381884990952  0.3931968252376  0.6010829267373 1.0
C      1  0.4181459479482  0.2796255620233  0.6399399591210 1.0
C      1  0.6683428876552  0.2934608367185  0.5053382477424 1.0
C      1  0.4236247715862  0.3349075910757  0.3576060810251 1.0
C      1  0.5343952197024  0.8673708676530  0.3333933954628 1.0
C      1  0.3383699957181  0.8490162197994  0.5814620813438 1.0
C      1  0.6548905469432  0.8407371910441  0.5881397266093 1.0
C      1  0.6153007207654  0.2200574348626  0.5141089120022 1.0
C      1  0.4591277660099  0.2712930247134  0.4175924821638 1.0
C      1  0.4630307442564  0.2342840101956  0.5780450251041 1.0
C      1  0.6527456473304  0.4453584938996  0.2868278655429 1.0
C      1  0.2561295981538  0.4495822540228  0.4797723087391 1.0
C      1  0.5831962475607  0.4522144514456  0.7317239579745 1.0
C      1  0.7237904536494  0.7925926215238  0.7290450003513 1.0
C      1  0.5689204780805  0.7896564165256  0.1737286713124 1.0
C      1  0.1791194473424  0.7729372514316  0.6204997559071 1.0
C      1  0.2924478906634  0.4401738694367  0.2232327458497 1.0
C      1  0.3434701528484  0.3918946853913  0.8373166548807 1.0
C      1  0.8519113248497  0.4050436924611  0.4327669740491 1.0
C      1  0.4727307038997  0.2867367131208  0.8592590737678 1.0
C      1  0.8051786961854  0.2791167088337  0.3162328524686 1.0
C      1  0.2111569872210  0.2936455569317  0.3095650973215 1.0
C      1  0.1797526087799  0.5443094157756  0.6004408998182 1.0
C      1  0.7158967301821  0.5529810620966  0.7386631134424 1.0
C      1  0.5760597499532  0.5417303532694  0.1605848792613 1.0
C      1  0.5111477773764  0.5839340416951  0.7878306657216 1.0
C      1  0.7489571400239  0.5698547317570  0.2532630971651 1.0
C      1  0.2644506527743  0.5593556098513  0.3545195904528 1.0
C      1  0.8426932744395  0.4935002638180  0.6820176284518 1.0
C      1  0.4248582686657  0.4712390650096  0.1070435774553 1.0
C      1  0.1770794969521  0.4668011876642  0.7477301313071 1.0
C      1  0.2796712905635  0.3631862882368  0.2793877515502 1.0
C      1  0.3959013294107  0.3200932891967  0.8089346942270 1.0
C      1  0.8052258036834  0.3338785989920  0.3958201169634 1.0
C      1  0.1463536460363  0.3915861535919  0.7021324058458 1.0
C      1  0.8357685096622  0.4122946019295  0.7299241550391 1.0
C      1  0.4831282253560  0.3883893278394  0.0893232416814 1.0
C      1  0.4433450063229  0.5748286171876  0.3471028588084 1.0
C      1  0.4116923845098  0.5772303718546  0.6259337714593 1.0
C      1  0.6209609513586  0.5651968252704  0.5141145672039 1.0
C      1  0.6089573801811  0.2951457616743  0.6585028451486 1.0
C      1  0.5669782271689  0.2922880041567  0.3105005322229 1.0
C      1  0.3208165247721  0.2886023840394  0.5167324532573 1.0
C      1  0.2109758655483  0.4846049014526  0.3939204774805 1.0
C      1  0.5321483107680  0.4913917024760  0.8100723035878 1.0
C      1  0.7467810744126  0.4756637503878  0.2555595872497 1.0
C      1  0.7672404376334  0.6565035574672  0.2584068016380 1.0
C      1  0.2162093575460  0.6450281995768  0.3852914478532 1.0
C      1  0.5263320983927  0.6554280758683  0.8627967899417 1.0
C      1  0.2947848869933  0.5336066024378  0.2614883483478 1.0
C      1  0.3912981841443  0.4634300996837  0.8825490343034 1.0
C      1  0.8347258681822  0.4647400446029  0.5029443855729 1.0
C      1  0.4376494160985  0.8488282145429  0.3426378258628 1.0
C      1  0.4068760509853  0.8285148821797  0.6542969789621 1.0
C      1  0.7055069786447  0.8243067601000  0.5045542308528 1.0
C      1  0.3211602764468  0.6105407896828  0.4923621621725 1.0
C      1  0.5975768362735  0.6250407287809  0.6624742790605 1.0
C      1  0.6118017647263  0.6181554337540  0.3476781911097 1.0
C      1  0.6229943783754  0.6526894095149  0.5689199188658 1.0
C      1  0.5164071364810  0.6601521598165  0.3526728168050 1.0
C      1  0.3810287149898  0.6526637850878  0.5620419690079 1.0
C      1  0.6002028798496  0.8976862379419  0.3911497831484 1.0
C      1  0.3613279536437  0.8745563417896  0.4961175132492 1.0
C      1  0.5616447645258  0.8122004075223  0.5849675347603 1.0
C      1  0.6930869027054  0.8438775209646  0.6706398683097 1.0
C      1  0.5615774781043  0.8099238220018  0.2610496173492 1.0
C      1  0.2634917971027  0.7889812148018  0.5991422861772 1.0
C      1  0.7061876436583  0.3680478642905  0.8484482509395 1.0
C      1  0.6495668814012  0.3292307990827  0.1229595957966 1.0
C      1  0.1062814145720  0.3393639920584  0.5362765326334 1.0
C      1  0.1411753894845  0.3092083171813  0.4595644364222 1.0
C      1  0.6239279605069  0.3324970303109  0.8485945978827 1.0
C      1  0.7015636812878  0.2944872848195  0.1871627812800 1.0
C      1  0.4840568670656  0.5511163913371  0.1237658798426 1.0
C      1  0.1565178197358  0.5511568957113  0.6979534995062 1.0
C      1  0.8058858391057  0.5709971560611  0.7291505816937 1.0
C      1  0.1969135650759  0.4610866160214  0.5615378941508 1.0
C      1  0.6859092152477  0.4602837816763  0.7213072750500 1.0
C      1  0.5872713860236  0.4507943664960  0.2035345952421 1.0
C      1  0.7416015334025  0.7057433794534  0.7504049326091 1.0
C      1  0.5321433226323  0.6912886191837  0.1764710857200 1.0
C      1  0.1433221951085  0.6893712102194  0.6315629476450 1.0
C      1  0.3922238380960  0.5659274484546  0.2566662281243 1.0
C      1  0.3484828827595  0.5625943706189  0.7013486340688 1.0
C      1  0.7833655777993  0.5961758700245  0.5577800693391 1.0
C      1  0.4943240924565  0.8385228124719  0.6376726676354 1.0
C      1  0.6664793304735  0.8669207079116  0.4341246342240 1.0
C      1  0.3888825214700  0.8732913225070  0.4175921181091 1.0
C      1  0.3293745705527  0.7157803464446  0.6214469787710 1.0
C      1  0.7234980861573  0.6693868224983  0.5605637481483 1.0
C      1  0.5033923109435  0.7273271598790  0.2714946448146 1.0
C      1  0.4806649985143  0.3373491724077  0.2761771514434 1.0
C      1  0.3311919849177  0.3190208127838  0.6143398820857 1.0
C      1  0.6888376950613  0.3336010065219  0.5983915413563 1.0
C      1  0.8252932401188  0.6630406926729  0.7483023399034 1.0
C      1  0.4559295168427  0.6438714144269  0.1364656833671 1.0
C      1  0.1306162421175  0.6382007694383  0.7127308012758 1.0
C      1  0.2620468944200  0.2827730041119  0.6741252494590 1.0
C      1  0.7762725751542  0.2987162283893  0.6300253036327 1.0
C      1  0.4355369620927  0.2791507874681  0.2047738357403 1.0
C      1  0.5942202952808  0.1707836129072  0.4304758892431 1.0
C      1  0.3742250366549  0.1500291139819  0.4434187980159 1.0
C      1  0.5541125207181  0.1364086636806  0.6594823079073 1.0
C      1  0.5130051175513  0.2335134926222  0.7820186887377 1.0
C      1  0.7182631610924  0.2303888401599  0.3416384584125 1.0
C      1  0.2476961540472  0.2264156381260  0.3697243068704 1.0
C      1  0.5363877468882  0.2341481018366  0.3841861773232 1.0
C      1  0.4068945232945  0.2306915436044  0.4925068875114 1.0
C      1  0.5632113257793  0.2152237255980  0.5996596498767 1.0
C      1  0.1429661126113  0.3407301329040  0.3636165103525 1.0
C      1  0.5317389750934  0.3532563086715  0.8877747934037 1.0
C      1  0.7912265578864  0.3207871627083  0.2280401101861 1.0
C      1  0.8000628919579  0.4107754772438  0.2238084475941 1.0
C      1  0.1505655404208  0.4317549688453  0.3577052715032 1.0
C      1  0.4930448313377  0.4453140848934  0.8791227181073 1.0
C      1  0.5987190528986  0.2854680389115  0.7626761579672 1.0
C      1  0.6561867481358  0.2712925661644  0.2717575270405 1.0
C      1  0.2356529678041  0.2728288793436  0.4601203543928 1.0
C      1  0.8530237151651  0.6184874635024  0.4942444570456 1.0
C      1  0.3712196902008  0.6445721381942  0.1870146130380 1.0
C      1  0.3456587249222  0.6070696747949  0.7846925546916 1.0
C      1  0.6166404383921  0.4928663824387  0.5777839586723 1.0
C      1  0.5076850083581  0.4947864506779  0.3397439871027 1.0
C      1  0.3914825279881  0.4878016305148  0.5712972530726 1.0
C      1  0.1970894661907  0.3120250812303  0.7143189039557 1.0
C      1  0.8328913518686  0.3336776963233  0.6782842981601 1.0
C      1  0.4466063066097  0.3149090913621  0.1288295708379 1.0
C      1  0.5476671586190  0.3572600258187  0.7101330252137 1.0
C      1  0.6473554869375  0.3537422520627  0.3333860794937 1.0
C      1  0.2929087934187  0.3582544375231  0.4510607101407 1.0
C      1  0.1731298306400  0.6287653331129  0.5583687540250 1.0
C      1  0.6619219788478  0.6369642285256  0.7454519810297 1.0
C      1  0.6044580326344  0.6230153735471  0.1885328176669 1.0
C      1  0.5465185416894  0.0566956565708  0.7126282990756 1.0
C      1  0.6333810749967  0.0805879360289  0.4013295047947 1.0
C      1  0.3524512022020  0.0732900323294  0.3954095380595 1.0
C      1  0.4161520559130  0.7748162943378  0.2798214453983 1.0
C      1  0.3680925594835  0.7489081688456  0.7030600953708 1.0
C      1  0.7597232467712  0.7429999555724  0.5094729833719 1.0
C      1  0.7901298372974  0.4942006022512  0.5876686284507 1.0
C      1  0.4398391165674  0.4965491276817  0.2047597869496 1.0
C      1  0.3238327283376  0.4721858271819  0.7052205106497 1.0
C      1  0.3069943023790  0.1562630295835  0.3773171054193 1.0
C      1  0.5239909948548  0.1442669387060  0.7455909325914 1.0
C      1  0.6842665924967  0.1468783161461  0.3760937176823 1.0
C      1  0.6687470928785  0.6298957168730  0.2638970052628 1.0
C      1  0.2282315233270  0.6426017589355  0.4808301930571 1.0
C      1  0.5962653451010  0.6355490386638  0.8158200221264 1.0
END
