TITL C-524-1366-6 -5.54 3375.00 -948.63531326 0 0 118 (C1) n - 1
REM
REM Run started: at 2020.12.22 00:52:20 in /gpfs/home/chem/mssmkc/CARBON/AIRSS/Generating-Clusters/Str-Search/Higher-Symm/C100-200
REM VASP from code version vasp.5.4.4.18Apr17-6-g9f103f2a35 (build Oct 11 2019 16:45:47) gamma-only
REM
REM
REM
REM
REM ./C.cell (533062f00bc710175b3da973d35f2034)
REM AIRSS Version 0.9.1 bugfix July 2018 build 013d7b7c2542+ Fri, 06 Jul 2018 19:26:36 +0100
REM compiler GCC version 6.3.0
REM options -cpp -iprefix /gpfs/warwick/csc/orac/software/Core/GCCcore/6.3.0/bin/../lib/gcc/x86_64-pc-linux-gnu/6.3.0/ -mtune=generic -march=x86-64 -g -O0
REM seed 148360320 34906588 1260874103 1339241766 1480365909 -502610719 -985781712 1206915937 -683722772 696102757 -276129018 -1721359422
REM
REM C.POTCAR (d86ddea03c3ceb6dc662c8ad6801f873)
REM 
CELL 1.54180   15.00000   15.00000   15.00000   90.00000   90.00000   90.00000
LATT -1
SFAC C  
C      1  0.5365617438789  0.8147663155021  0.5702180111064 1.0
C      1  0.1917386327095  0.5385036227556  0.4417130236796 1.0
C      1  0.4739902747216  0.1945146320185  0.5578060374715 1.0
C      1  0.8130212816482  0.4693070667962  0.4285810090650 1.0
C      1  0.7125682025890  0.5690807065932  0.7755125217846 1.0
C      1  0.4375763012158  0.7154078202569  0.2232472112452 1.0
C      1  0.2892779286702  0.4357390440033  0.7704802055665 1.0
C      1  0.5612140953993  0.2931212890752  0.2262618435596 1.0
C      1  0.1805305682317  0.4497238420294  0.6415327688746 1.0
C      1  0.5478636122169  0.1763354755434  0.3446014328630 1.0
C      1  0.8222909882117  0.5597424465212  0.6366909216245 1.0
C      1  0.4476617340868  0.8254920919522  0.3612161031062 1.0
C      1  0.3705094631011  0.6739730737600  0.2735243361836 1.0
C      1  0.3195740042110  0.3591045810365  0.7252119796175 1.0
C      1  0.6380360100271  0.3178518155739  0.2737754817096 1.0
C      1  0.6717465557492  0.6320427374291  0.7209140907946 1.0
C      1  0.8083085599015  0.4679800879330  0.5980125505987 1.0
C      1  0.5390801324699  0.8109647097007  0.4013790824343 1.0
C      1  0.1960431644044  0.5455422489122  0.6120506053676 1.0
C      1  0.4555319123235  0.1946511971884  0.3838375078497 1.0
C      1  0.4287281281424  0.2236326526901  0.4663258555940 1.0
C      1  0.7883911246157  0.4285638816118  0.5179100784074 1.0
C      1  0.5765007393471  0.7848619075448  0.4797239967088 1.0
C      1  0.2235355704590  0.5799098448902  0.5321792995069 1.0
C      1  0.5102661228370  0.2745838459150  0.6182497353987 1.0
C      1  0.7277030810541  0.4993778652882  0.3795332489161 1.0
C      1  0.5029954699125  0.7348783351727  0.6247495896555 1.0
C      1  0.2687935013734  0.5023717237964  0.3846754553101 1.0
C      1  0.6018484497588  0.3666007293412  0.5046448417713 1.0
C      1  0.6361654327350  0.6031380409703  0.5041993035082 1.0
C      1  0.3980926931873  0.6347099930712  0.4987256029902 1.0
C      1  0.3710063051580  0.3941848462730  0.5018362161217 1.0
C      1  0.2926740081681  0.3634340698829  0.4441720962159 1.0
C      1  0.6497192228745  0.3603852227007  0.5915861315405 1.0
C      1  0.7013904167507  0.6388244889642  0.4373469027561 1.0
C      1  0.3653338526338  0.7105052384449  0.5580557569740 1.0
C      1  0.6792613251603  0.4245583637557  0.3676897334773 1.0
C      1  0.5644151528155  0.6716604627026  0.6285770707775 1.0
C      1  0.3269001084902  0.5673827756653  0.3659903121845 1.0
C      1  0.4342777793287  0.3180093253162  0.6380146454088 1.0
C      1  0.1707478897464  0.6264453073700  0.3858671501100 1.0
C      1  0.3839605931638  0.1705244413816  0.6125326549947 1.0
C      1  0.8301580979849  0.3773066519920  0.3722642558418 1.0
C      1  0.6238364694584  0.8345641815675  0.6246972208081 1.0
C      1  0.5941072941729  0.5185167941929  0.6263956556638 1.0
C      1  0.5018354728645  0.5994259717053  0.3979480026701 1.0
C      1  0.4167544956488  0.4883742252492  0.6020966524277 1.0
C      1  0.5190626710846  0.4238295318267  0.3957614765494 1.0
C      1  0.5516490674431  0.7514341048109  0.3258895228203 1.0
C      1  0.2316322879700  0.5660299872809  0.7029776223831 1.0
C      1  0.4312457181782  0.2362705730694  0.2958346254390 1.0
C      1  0.7495968115621  0.4562228564569  0.6736393939034 1.0
C      1  0.2958836508457  0.6440901144117  0.5179402726437 1.0
C      1  0.3608977971409  0.2933889450624  0.4816818590579 1.0
C      1  0.7233304205095  0.3593429695352  0.5182567344465 1.0
C      1  0.6424307532651  0.7128486438181  0.4836025967443 1.0
C      1  0.6902833624178  0.7871331710151  0.6440116406702 1.0
C      1  0.2161617988972  0.6930667260283  0.3619732254695 1.0
C      1  0.3117460657511  0.2093169032877  0.6334809024740 1.0
C      1  0.7881078184312  0.3058147947509  0.3561471609782 1.0
C      1  0.4757112832740  0.7842555102505  0.2768349146440 1.0
C      1  0.2134295578333  0.4770545631869  0.7304776723167 1.0
C      1  0.5174363374717  0.2166056151253  0.2618692364525 1.0
C      1  0.7823343545521  0.5317287400844  0.7217427503019 1.0
C      1  0.3586337630330  0.3282159829890  0.5749866540233 1.0
C      1  0.6715440418553  0.3473198840452  0.4335478909372 1.0
C      1  0.6444563165362  0.6723311813016  0.5726010585044 1.0
C      1  0.3331153925085  0.6451745943346  0.4254173290120 1.0
C      1  0.4214195606661  0.3361198383364  0.2791862266883 1.0
C      1  0.6327603585464  0.4283704930212  0.7882872815536 1.0
C      1  0.5775347965674  0.6350072252112  0.2218427857932 1.0
C      1  0.3306335003471  0.5791222914773  0.7239575120079 1.0
C      1  0.5704890428435  0.3735315570131  0.7422340857969 1.0
C      1  0.6297606969750  0.5713428147766  0.2687351785958 1.0
C      1  0.4110753491191  0.6406219476975  0.7163209977919 1.0
C      1  0.3586642104796  0.4137315834137  0.2862924114384 1.0
C      1  0.4941662901477  0.3633504996738  0.2149459520571 1.0
C      1  0.6622002948650  0.5000199996360  0.8203206071950 1.0
C      1  0.5075020109462  0.6623586571478  0.1837522240382 1.0
C      1  0.3571928393515  0.5042769472974  0.7853759156677 1.0
C      1  0.4880250255785  0.5855492927515  0.7480397176391 1.0
C      1  0.4074989603333  0.4918945837561  0.2478854098054 1.0
C      1  0.4815896107443  0.4063500532002  0.7640663857024 1.0
C      1  0.5933576266092  0.4837822649444  0.2429241192203 1.0
C      1  0.2040449853148  0.3861575939415  0.4985511269299 1.0
C      1  0.6139713519313  0.1636311281555  0.4778947953095 1.0
C      1  0.7969193301012  0.6200460936801  0.4913148440977 1.0
C      1  0.3862313961020  0.8000644541031  0.5048603297792 1.0
C      1  0.8514594809502  0.5581055291510  0.4536686648018 1.0
C      1  0.4499460713105  0.8557544788900  0.5393615454678 1.0
C      1  0.1487479114826  0.4529863299296  0.4691800736091 1.0
C      1  0.5535529776680  0.1428476225924  0.5310039829527 1.0
C      1  0.4696166628955  0.5668300094181  0.4847429908940 1.0
C      1  0.4415210119568  0.4640684803172  0.5138844872110 1.0
C      1  0.5426877025641  0.4424214508543  0.4868928916125 1.0
C      1  0.5662595120946  0.5358233617505  0.5263952653981 1.0
C      1  0.5361920432455  0.6630240831395  0.3575630117955 1.0
C      1  0.3619355431407  0.5299148869175  0.6455814522694 1.0
C      1  0.4728837788011  0.3690603827710  0.3558753342015 1.0
C      1  0.6581880834151  0.4513801001673  0.6377746066590 1.0
C      1  0.5739756530029  0.5974955048339  0.6905946255969 1.0
C      1  0.3756217514486  0.5763245972855  0.2855953302437 1.0
C      1  0.4129609215623  0.3571525633465  0.7200944963925 1.0
C      1  0.6397102397842  0.4107350015914  0.2847766984276 1.0
C      1  0.7970015403571  0.6375319256614  0.5916223895321 1.0
C      1  0.3697656832031  0.7992543914869  0.4052321060269 1.0
C      1  0.2045185968253  0.3709484769860  0.5965975440418 1.0
C      1  0.6298442864779  0.1896149685404  0.3871954365473 1.0
C      1  0.6857690679539  0.2724111515005  0.3563887261137 1.0
C      1  0.7180947213474  0.6863420324405  0.6409859805125 1.0
C      1  0.3189141244537  0.7201074457419  0.3583332920390 1.0
C      1  0.2800786160736  0.3132693481626  0.6396905244781 1.0
C      1  0.4143505028321  0.7062481177982  0.6481114002285 1.0
C      1  0.2950761461979  0.4156884212620  0.3563426318566 1.0
C      1  0.5884568985422  0.3132670605860  0.6640800713698 1.0
C      1  0.6938477701884  0.5815815940997  0.3452980772317 1.0
C      1  0.5004838903576  0.4582743962524  0.2150768934261 1.0
C      1  0.4527847381280  0.4987792825833  0.7840428319418 1.0
END
