TITL C-524-1366-21 -5.467 3375.00 -964.64924816 0 0 120 (Th) n - 1
REM
REM Run started: at 2020.12.22 12:23:49 in /gpfs/home/chem/mssmkc/CARBON/AIRSS/Generating-Clusters/Str-Search/Higher-Symm/C100-200
REM VASP from code version vasp.5.4.4.18Apr17-6-g9f103f2a35 (build Oct 11 2019 16:45:47) gamma-only
REM
REM
REM
REM
REM ./C.cell (533062f00bc710175b3da973d35f2034)
REM AIRSS Version 0.9.1 bugfix July 2018 build 013d7b7c2542+ Fri, 06 Jul 2018 19:26:36 +0100
REM compiler GCC version 6.3.0
REM options -cpp -iprefix /gpfs/warwick/csc/orac/software/Core/GCCcore/6.3.0/bin/../lib/gcc/x86_64-pc-linux-gnu/6.3.0/ -mtune=generic -march=x86-64 -g -O0
REM seed -1595543818 635374458 1363641748 -682293328 -1162176204 1149240311 -720289312 -1478268715 -2076701492 -1897347470 1502237200 1570894132
REM
REM C.POTCAR (d86ddea03c3ceb6dc662c8ad6801f873)
REM 
CELL 1.54180   15.00000   15.00000   15.00000   90.00000   90.00000   90.00000
LATT -1
SFAC C  
C      1  0.6083750608396  0.6256525798487  0.4508662390787 1.0
C      1  0.4508662810053  0.6083750903731  0.6256525490772 1.0
C      1  0.6256525990237  0.4508662944275  0.6083750303234 1.0
C      1  0.3916249525103  0.3743474067492  0.4508663107821 1.0
C      1  0.3916249428888  0.6256525934730  0.5491337210512 1.0
C      1  0.6083750571648  0.3743474195479  0.5491337290468 1.0
C      1  0.5491337340057  0.3916249712672  0.6256526008865 1.0
C      1  0.5491337241774  0.6083750366921  0.3743474045955 1.0
C      1  0.4508662793434  0.3916249210802  0.3743474482450 1.0
C      1  0.3743474338570  0.5491337498058  0.6083750674798 1.0
C      1  0.3743474239466  0.4508662455823  0.3916249669720 1.0
C      1  0.6256525804361  0.5491336990216  0.3916249359926 1.0
C      1  0.6083750484672  0.6256525947966  0.5491336881966 1.0
C      1  0.4508662642438  0.6083750294105  0.3743473967440 1.0
C      1  0.6256525660509  0.4508662499236  0.3916249301223 1.0
C      1  0.3916249372968  0.3743474192452  0.5491337611100 1.0
C      1  0.3916249416226  0.6256525819753  0.4508662697689 1.0
C      1  0.6083750575913  0.3743474050935  0.4508662769399 1.0
C      1  0.5491337175481  0.3916249083180  0.3743474490738 1.0
C      1  0.5491337201748  0.6083750795514  0.6256525526051 1.0
C      1  0.4508662757284  0.3916249619424  0.6256525956661 1.0
C      1  0.3743473992494  0.5491337059679  0.3916249681458 1.0
C      1  0.3743474179646  0.4508663004753  0.6083750644021 1.0
C      1  0.6256525772176  0.5491337547223  0.6083750333968 1.0
C      1  0.5488688749232  0.5491041763780  0.8253096069726 1.0
C      1  0.8253095860250  0.5488688224404  0.5491041190965 1.0
C      1  0.5491041529989  0.8253095094189  0.5488688747882 1.0
C      1  0.4511312126365  0.4508958577441  0.8253094679096 1.0
C      1  0.4511311267381  0.5491041459231  0.1746904807671 1.0
C      1  0.5488687987095  0.4508958322822  0.1746904351988 1.0
C      1  0.1746904742584  0.4511311651097  0.5491042114635 1.0
C      1  0.1746904451531  0.5488688450324  0.4508958951824 1.0
C      1  0.8253095510100  0.4511311692507  0.4508957778543 1.0
C      1  0.4508958390260  0.1746904724821  0.5488688113319 1.0
C      1  0.4508958527449  0.8253095409853  0.4511311245291 1.0
C      1  0.5491041660403  0.1746905013638  0.4511311939742 1.0
C      1  0.5488687854319  0.5491041396920  0.1746905426186 1.0
C      1  0.8253095248171  0.5488688320040  0.4508957912119 1.0
C      1  0.5491041613790  0.8253095236629  0.4511311907371 1.0
C      1  0.4511311275954  0.4508958272665  0.1746904004018 1.0
C      1  0.4511312038131  0.5491041676082  0.8253095629830 1.0
C      1  0.5488688738531  0.4508958539083  0.8253095165347 1.0
C      1  0.1746904243871  0.4511311763309  0.4508958828679 1.0
C      1  0.1746904547465  0.5488688284672  0.5491042207723 1.0
C      1  0.8253095521247  0.4511311550327  0.5491041045697 1.0
C      1  0.4508958508295  0.1746904925823  0.4511311294629 1.0
C      1  0.4508958359682  0.8253094905182  0.5488688083971 1.0
C      1  0.5491041456508  0.1746904647856  0.5488688760544 1.0
C      1  0.2855671358603  0.5546411825479  0.3257418128295 1.0
C      1  0.3257417973596  0.2855671598718  0.5546412832795 1.0
C      1  0.5546412192116  0.3257417366493  0.2855670950489 1.0
C      1  0.7144328300565  0.4453587067900  0.3257417665348 1.0
C      1  0.7144328396273  0.5546413081221  0.6742581655780 1.0
C      1  0.2855671420629  0.4453588390720  0.6742582578345 1.0
C      1  0.6742582309799  0.7144328789965  0.5546411606059 1.0
C      1  0.6742582354641  0.2855671290329  0.4453588297139 1.0
C      1  0.3257418009383  0.7144328322216  0.4453587112760 1.0
C      1  0.4453587623795  0.6742581718229  0.2855671896143 1.0
C      1  0.4453587806372  0.3257417988662  0.7144328398576 1.0
C      1  0.5546412254358  0.6742582371763  0.7144328795741 1.0
C      1  0.2855671652505  0.5546412894561  0.6742582375151 1.0
C      1  0.3257417657136  0.2855671146369  0.4453588413870 1.0
C      1  0.5546412330251  0.3257418252035  0.7144328174622 1.0
C      1  0.7144328687867  0.4453588217341  0.6742581903135 1.0
C      1  0.7144328644798  0.5546411573231  0.3257417381995 1.0
C      1  0.2855671524991  0.4453586978426  0.3257418283794 1.0
C      1  0.6742582050044  0.7144328437828  0.4453587174359 1.0
C      1  0.6742582029298  0.2855671629026  0.5546412822580 1.0
C      1  0.3257417598877  0.7144328774580  0.5546411636719 1.0
C      1  0.4453587791116  0.6742582657117  0.7144329069017 1.0
C      1  0.4453587760955  0.3257417588077  0.2855671128334 1.0
C      1  0.5546412155473  0.6742582063282  0.2855671564284 1.0
C      1  0.6118085292403  0.2525161386765  0.3129943074698 1.0
C      1  0.3129942145977  0.6118084605384  0.2525161303982 1.0
C      1  0.2525161563752  0.3129942847818  0.6118086185732 1.0
C      1  0.3881915479958  0.7474839275007  0.3129941921593 1.0
C      1  0.3881915880769  0.2525160612533  0.6870057581368 1.0
C      1  0.6118085798064  0.7474838396224  0.6870057491165 1.0
C      1  0.6870057120498  0.3881914833115  0.2525160461008 1.0
C      1  0.6870057285443  0.6118085638681  0.7474838691391 1.0
C      1  0.3129942567979  0.3881915843640  0.7474839349625 1.0
C      1  0.7474840114220  0.6870057755312  0.6118082570557 1.0
C      1  0.7474839575157  0.3129942176332  0.3881916284067 1.0
C      1  0.2525160982825  0.6870057246340  0.3881914733135 1.0
C      1  0.6118084583897  0.2525160866377  0.6870058011566 1.0
C      1  0.3129942930662  0.6118085121753  0.7474839509159 1.0
C      1  0.2525160005489  0.3129942282900  0.3881917343421 1.0
C      1  0.3881914607149  0.7474838508786  0.6870056889104 1.0
C      1  0.3881914209381  0.2525161656159  0.3129942569917 1.0
C      1  0.6118084085435  0.7474839368040  0.3129942447832 1.0
C      1  0.6870057780653  0.3881915401588  0.7474838620352 1.0
C      1  0.6870057392402  0.6118084224368  0.2525160766164 1.0
C      1  0.3129942744199  0.3881914387638  0.2525161360057 1.0
C      1  0.7474838389321  0.6870057097394  0.3881913795397 1.0
C      1  0.7474838938669  0.3129942811271  0.6118085247756 1.0
C      1  0.2525160492598  0.6870057793680  0.6118083707410 1.0
C      1  0.2198229161232  0.6002319977147  0.6127164317436 1.0
C      1  0.6127164105983  0.2198229141358  0.6002320196582 1.0
C      1  0.6002319445310  0.6127164265271  0.2198228987904 1.0
C      1  0.7801771184401  0.3997680565841  0.6127164194328 1.0
C      1  0.7801770962567  0.6002319379305  0.3872834788979 1.0
C      1  0.2198228769778  0.3997680075572  0.3872836709537 1.0
C      1  0.3872835208888  0.7801771151280  0.6002319186458 1.0
C      1  0.3872835213971  0.2198229094538  0.3997680288601 1.0
C      1  0.6127164030173  0.7801771069161  0.3997680247617 1.0
C      1  0.3997680370360  0.3872835636052  0.2198229082199 1.0
C      1  0.3997680653180  0.6127164538652  0.7801771590762 1.0
C      1  0.6002319839338  0.3872836180392  0.7801770233199 1.0
C      1  0.2198228898220  0.6002319440354  0.3872835861510 1.0
C      1  0.6127164758094  0.2198228898683  0.3997680793656 1.0
C      1  0.6002319623719  0.6127164310845  0.7801770830543 1.0
C      1  0.7801770768732  0.3997680018875  0.3872835734229 1.0
C      1  0.7801771158185  0.6002319933726  0.6127163221827 1.0
C      1  0.2198229124653  0.3997680587549  0.6127165183436 1.0
C      1  0.3872835999378  0.7801770775117  0.3997679795409 1.0
C      1  0.3872835974150  0.2198228995250  0.6002319767254 1.0
C      1  0.6127164726567  0.7801770800524  0.6002319734525 1.0
C      1  0.3997680548244  0.3872835832351  0.7801770954610 1.0
C      1  0.3997680122978  0.6127163786706  0.2198229877277 1.0
C      1  0.6002319369409  0.3872835489176  0.2198228506512 1.0
END
