TITL C-524-1366-17 -10.409 3375.00 -1494.88471424 0 0 182 (C1) n - 1
REM
REM Run started: at 2020.12.22 09:03:40 in /gpfs/home/chem/mssmkc/CARBON/AIRSS/Generating-Clusters/Str-Search/Higher-Symm/C100-200
REM VASP from code version vasp.5.4.4.18Apr17-6-g9f103f2a35 (build Oct 11 2019 16:45:47) gamma-only
REM
REM
REM
REM
REM ./C.cell (533062f00bc710175b3da973d35f2034)
REM AIRSS Version 0.9.1 bugfix July 2018 build 013d7b7c2542+ Fri, 06 Jul 2018 19:26:36 +0100
REM compiler GCC version 6.3.0
REM options -cpp -iprefix /gpfs/warwick/csc/orac/software/Core/GCCcore/6.3.0/bin/../lib/gcc/x86_64-pc-linux-gnu/6.3.0/ -mtune=generic -march=x86-64 -g -O0
REM seed -1539710277 1240064907 566682433 1096469940 -175197228 1648895540 -249571217 1618956998 1795198634 1336081273 565938229 1421997166
REM
REM C.POTCAR (d86ddea03c3ceb6dc662c8ad6801f873)
REM 
CELL 1.54180   15.00000   15.00000   15.00000   90.00000   90.00000   90.00000
LATT -1
SFAC C  
C      1  0.6074180822010  0.1449396606194  0.7449826369963 1.0
C      1  0.8341648158377  0.3345089504981  0.7403304025252 1.0
C      1  0.8108261241140  0.6656946572222  0.7683390183569 1.0
C      1  0.5438784816613  0.8478714680522  0.7593622847486 1.0
C      1  0.2464734009837  0.7616922831718  0.7397410117672 1.0
C      1  0.1528456440129  0.4936143755064  0.7661687778309 1.0
C      1  0.2959145225587  0.1895306185556  0.7343916068306 1.0
C      1  0.3796721248202  0.5537113864400  0.1612967801083 1.0
C      1  0.3829115324453  0.4499294084345  0.1395461834496 1.0
C      1  0.4681067290003  0.3891108575823  0.1422036574462 1.0
C      1  0.5725314211236  0.4158088275272  0.1600612190314 1.0
C      1  0.6238444813486  0.5101106076420  0.1386066752601 1.0
C      1  0.5701651817781  0.5904888473101  0.1231732600541 1.0
C      1  0.4726397720532  0.6118947965652  0.1537105488637 1.0
C      1  0.1570551894723  0.2981470539509  0.3440779179685 1.0
C      1  0.4479314652789  0.1079537735558  0.3343995570558 1.0
C      1  0.7743396902747  0.2268721459369  0.3307122710383 1.0
C      1  0.9008902299982  0.5558872372108  0.3435272000702 1.0
C      1  0.7170792483832  0.8607862970343  0.3680416407807 1.0
C      1  0.3825229140469  0.8811039018930  0.3348045867420 1.0
C      1  0.1230864210680  0.6244404002668  0.3470720624239 1.0
C      1  0.4677693822785  0.6023481155197  0.6291265658856 1.0
C      1  0.3946732230729  0.5369668169804  0.6334530230771 1.0
C      1  0.3976731259412  0.4385844329846  0.6321796057915 1.0
C      1  0.4800798138639  0.3806912284564  0.6341048796855 1.0
C      1  0.5747651446620  0.4100274488419  0.6344152919846 1.0
C      1  0.6157086261645  0.5004052375871  0.6328957466883 1.0
C      1  0.5647819712889  0.5858970642383  0.6374040980429 1.0
C      1  0.5892204084995  0.6840014684851  0.1540497090373 1.0
C      1  0.4957003278364  0.7138291414063  0.1607331907546 1.0
C      1  0.2930158695886  0.6088632165990  0.1664245900693 1.0
C      1  0.3075215090708  0.4097727222989  0.1696871549077 1.0
C      1  0.4518259733636  0.3034447826922  0.1732362628651 1.0
C      1  0.6203292328017  0.3256893619985  0.1570965704242 1.0
C      1  0.7115764154542  0.5111080563605  0.1739908195378 1.0
C      1  0.0728882325951  0.6550882943139  0.5890303445882 1.0
C      1  0.0589355664795  0.4005315968331  0.5582223496878 1.0
C      1  0.4205105640903  0.0411740601353  0.5763863126284 1.0
C      1  0.7764543750191  0.1343088361711  0.5612418713952 1.0
C      1  0.9684204275469  0.4482864131556  0.5592679425088 1.0
C      1  0.7848126641294  0.8509059687632  0.6133944289762 1.0
C      1  0.4066144401163  0.9475826646741  0.5762793019047 1.0
C      1  0.5497347784815  0.5772769835684  0.8881962727228 1.0
C      1  0.4766493321517  0.5477375645881  0.9405508458334 1.0
C      1  0.3997804423225  0.5262102286341  0.8906650701007 1.0
C      1  0.3993044322024  0.4329527236231  0.8764753998770 1.0
C      1  0.4862621174050  0.3810691952358  0.8800770591625 1.0
C      1  0.5725126334757  0.4116470409076  0.8774042555353 1.0
C      1  0.6098280383596  0.5054186511729  0.8777099500915 1.0
C      1  0.2708390675504  0.3899591865861  0.2499428886695 1.0
C      1  0.4385516376722  0.2588950964124  0.2531708525075 1.0
C      1  0.6539618234513  0.3014162378337  0.2408158972162 1.0
C      1  0.7592692370136  0.5105520419182  0.2533560943642 1.0
C      1  0.6316629880117  0.6903149176383  0.2366771589258 1.0
C      1  0.4594894223231  0.7595197993062  0.2415849329873 1.0
C      1  0.2631566917701  0.6231226640340  0.2536854133077 1.0
C      1  0.7204284357450  0.1805799494026  0.6227954964587 1.0
C      1  0.8946928729273  0.4371474997595  0.6250111823000 1.0
C      1  0.7423092876785  0.7851195883079  0.6679710256361 1.0
C      1  0.4341920254439  0.8775773157433  0.6372709940829 1.0
C      1  0.1513754986245  0.6597698548289  0.6441802244660 1.0
C      1  0.1242720980088  0.4085963475516  0.6288352199392 1.0
C      1  0.4105746190512  0.1153281179370  0.6391163893101 1.0
C      1  0.3932910820109  0.9491126017826  0.4070975598188 1.0
C      1  0.0532369062682  0.6062658436172  0.4225130714542 1.0
C      1  0.0932641256217  0.3151458100264  0.4061579483862 1.0
C      1  0.4251108072813  0.0413099313609  0.4067225435327 1.0
C      1  0.8000748612087  0.1757718289322  0.3999604771939 1.0
C      1  0.9729493201714  0.5556811063668  0.4163379570436 1.0
C      1  0.7696314866581  0.8636964800630  0.4421469078644 1.0
C      1  0.4088028639065  0.7160203294157  0.7321133072308 1.0
C      1  0.2965897935663  0.5738977359067  0.7636854003451 1.0
C      1  0.3013069374791  0.3550149152555  0.7382605773516 1.0
C      1  0.4794606794581  0.2594247610603  0.7497549743030 1.0
C      1  0.6739947898662  0.3303279010845  0.7423363266303 1.0
C      1  0.7372574162198  0.5142669026643  0.7467370795358 1.0
C      1  0.5911590375678  0.6944727360651  0.7610030681483 1.0
C      1  0.3357377649741  0.4039334600563  0.3226714615897 1.0
C      1  0.4756464031060  0.3161637211513  0.3217613009816 1.0
C      1  0.6346435406345  0.3676762007438  0.3063976280853 1.0
C      1  0.6969231300424  0.5282064092144  0.3250316791286 1.0
C      1  0.6058054335736  0.6754081714319  0.3212784056793 1.0
C      1  0.4400896183168  0.6901413396953  0.2996947473595 1.0
C      1  0.3212422483939  0.5774959621106  0.3149945154900 1.0
C      1  0.4385488272902  0.6524046908162  0.7994444788997 1.0
C      1  0.3727775206109  0.5887700313258  0.8222118440708 1.0
C      1  0.3680797484236  0.3719632447772  0.8083749594080 1.0
C      1  0.4456453606666  0.3188441367114  0.8152835473789 1.0
C      1  0.6435681442632  0.3905854932037  0.8116437208462 1.0
C      1  0.6761817911938  0.4779620440218  0.8122717097563 1.0
C      1  0.5301135226309  0.6422241694659  0.8198394887553 1.0
C      1  0.5597987766178  0.5939688868169  0.2936681265354 1.0
C      1  0.4718208643068  0.6064528432206  0.2600602552808 1.0
C      1  0.3979777007510  0.5426150412118  0.2660174369268 1.0
C      1  0.4117209729505  0.4546325079573  0.2955592372466 1.0
C      1  0.4862980749334  0.4084092983991  0.2967039507812 1.0
C      1  0.5739404022934  0.4329090431018  0.2665558425880 1.0
C      1  0.6068518518137  0.5189451715722  0.2932790248884 1.0
C      1  0.6630639777575  0.7825535658156  0.5350625481507 1.0
C      1  0.3937633602349  0.8090955568428  0.5030119367428 1.0
C      1  0.1921968168489  0.5800327001776  0.5178283865374 1.0
C      1  0.2079692524197  0.3545610235011  0.5091338164597 1.0
C      1  0.4703791164224  0.1725405065439  0.5077408490296 1.0
C      1  0.7340909692754  0.2813911960251  0.5060082322215 1.0
C      1  0.8381841696186  0.5294325528913  0.5143485140909 1.0
C      1  0.8092783908622  0.4891117438928  0.5970319956383 1.0
C      1  0.6630219968561  0.7392714832389  0.6210191295303 1.0
C      1  0.4248080281486  0.7865856665883  0.5907536075479 1.0
C      1  0.2280341914364  0.6004736622114  0.6078695160926 1.0
C      1  0.2198925371176  0.3870235029579  0.5979054762613 1.0
C      1  0.4512681982103  0.2005885171697  0.5987975928850 1.0
C      1  0.6947482692195  0.2763154231549  0.5917275411009 1.0
C      1  0.3128282263251  0.5511414539401  0.4047954108838 1.0
C      1  0.3411212599613  0.3801064723551  0.4136420414427 1.0
C      1  0.5024435714728  0.3035340586954  0.4102444618506 1.0
C      1  0.6535996236782  0.3805275884472  0.3989431131800 1.0
C      1  0.7035851932139  0.5489575519722  0.4159779320079 1.0
C      1  0.5961330904530  0.6882241944958  0.4158882508536 1.0
C      1  0.4196420609238  0.6841472016292  0.3935891176073 1.0
C      1  0.7971546443335  0.3243360006135  0.3529936959595 1.0
C      1  0.8411617849933  0.6292891112936  0.3761300128718 1.0
C      1  0.6204200111511  0.8415209716595  0.3766949671005 1.0
C      1  0.3155943124889  0.8049752905447  0.3541509814706 1.0
C      1  0.1597851758833  0.5336267455330  0.3577534584682 1.0
C      1  0.2461388303180  0.2556055421088  0.3702606773225 1.0
C      1  0.5361528208575  0.1538265525040  0.3549782141030 1.0
C      1  0.2423043180835  0.7602289757169  0.3281409841900 1.0
C      1  0.1512710083832  0.4571732881998  0.3154237826123 1.0
C      1  0.3071260877953  0.2051119833943  0.3287415705564 1.0
C      1  0.6150336304057  0.1682138346617  0.3158398797418 1.0
C      1  0.8423981688482  0.3939382133969  0.3207714503561 1.0
C      1  0.8263049233958  0.7161161272961  0.3649508315989 1.0
C      1  0.5478920591896  0.8599117669452  0.3289847722790 1.0
C      1  0.7846887182746  0.7377082080549  0.7307454429014 1.0
C      1  0.4887558383145  0.8890609135017  0.7088706270648 1.0
C      1  0.1807108305320  0.7205816513258  0.7032124378766 1.0
C      1  0.1102584353264  0.4449527843898  0.7118927922404 1.0
C      1  0.3431244491466  0.1273786570007  0.6980603715103 1.0
C      1  0.6745385070341  0.1469806050824  0.6924925890411 1.0
C      1  0.8914807154906  0.3752634638818  0.6914434139742 1.0
C      1  0.5415834807988  0.1957298860308  0.7655519178933 1.0
C      1  0.7591672741663  0.2984892728117  0.7626827570729 1.0
C      1  0.7928956872330  0.5822751173798  0.7670713377172 1.0
C      1  0.5926394718098  0.7827279171429  0.7876036249634 1.0
C      1  0.3314061907080  0.7615426306784  0.7465898515085 1.0
C      1  0.2204816798100  0.5375148744313  0.7970544747453 1.0
C      1  0.2664597785392  0.2696282294211  0.7421181746908 1.0
C      1  0.6849183632840  0.2172492802527  0.2857969142756 1.0
C      1  0.8497025035088  0.4828643018183  0.2990854257683 1.0
C      1  0.7930517323434  0.7963367963478  0.3762150030939 1.0
C      1  0.4657524643332  0.8471853051014  0.2916894517044 1.0
C      1  0.1965659384972  0.6815596021450  0.3089115567183 1.0
C      1  0.1791164201999  0.3775565822608  0.2871300944297 1.0
C      1  0.3895836107570  0.1781554060027  0.2972771642970 1.0
C      1  0.5020798454505  0.3936962431010  0.4560524046962 1.0
C      1  0.5868614630182  0.4360530196201  0.4494035767552 1.0
C      1  0.6135882125147  0.5286685586628  0.4588336216733 1.0
C      1  0.5553806309888  0.6051474249183  0.4557259462130 1.0
C      1  0.4602154268969  0.6049160568791  0.4447421878474 1.0
C      1  0.3992800337029  0.5304976490611  0.4487067508519 1.0
C      1  0.4142372272496  0.4363627877543  0.4583808250500 1.0
C      1  0.3889327275739  0.9061904297531  0.4931136339482 1.0
C      1  0.0993075418352  0.6119851849475  0.5122233113649 1.0
C      1  0.1084692513564  0.3553187012983  0.4868316022552 1.0
C      1  0.4418335332637  0.0802847487543  0.4932384993652 1.0
C      1  0.7839755556029  0.1928383746460  0.4882761713481 1.0
C      1  0.9343649307854  0.5115931178098  0.4970077858684 1.0
C      1  0.7413106890193  0.8454000499291  0.5326843456958 1.0
C      1  0.7898039601175  0.5758357246826  0.4464382210740 1.0
C      1  0.6159645763209  0.7707385716732  0.4520057177309 1.0
C      1  0.3727963331346  0.7589350757460  0.4260086680061 1.0
C      1  0.2247289316236  0.5457084625791  0.4372520051146 1.0
C      1  0.2707689470345  0.3228316510328  0.4445131516766 1.0
C      1  0.5120698781793  0.2130676118935  0.4349787954773 1.0
C      1  0.7307869616258  0.3382775511299  0.4310085348427 1.0
C      1  0.3030327593830  0.5753581643431  0.6600165451597 1.0
C      1  0.3017476789363  0.3974246978107  0.6516832558603 1.0
C      1  0.4653729775567  0.2782758643876  0.6516285749211 1.0
C      1  0.6456788717080  0.3363856360740  0.6507064150673 1.0
C      1  0.7253081242063  0.4965212328243  0.6501240266772 1.0
C      1  0.6108328056642  0.6723595182054  0.6680286419064 1.0
C      1  0.4396341074952  0.7051601399399  0.6415226675201 1.0
END
