TITL C-524-1366-9 -6.081 3375.00 -1032.62052172 0 0 126 (C2) n - 1
REM
REM Run started: at 2020.12.22 03:39:05 in /gpfs/home/chem/mssmkc/CARBON/AIRSS/Generating-Clusters/Str-Search/Higher-Symm/C100-200
REM VASP from code version vasp.5.4.4.18Apr17-6-g9f103f2a35 (build Oct 11 2019 16:45:47) gamma-only
REM
REM
REM
REM
REM ./C.cell (533062f00bc710175b3da973d35f2034)
REM AIRSS Version 0.9.1 bugfix July 2018 build 013d7b7c2542+ Fri, 06 Jul 2018 19:26:36 +0100
REM compiler GCC version 6.3.0
REM options -cpp -iprefix /gpfs/warwick/csc/orac/software/Core/GCCcore/6.3.0/bin/../lib/gcc/x86_64-pc-linux-gnu/6.3.0/ -mtune=generic -march=x86-64 -g -O0
REM seed -601495556 1318948413 -388926719 -796131665 -960820775 516504091 -1306991491 -1647318982 -838869728 89605225 -675673696 -973917204
REM
REM C.POTCAR (d86ddea03c3ceb6dc662c8ad6801f873)
REM 
CELL 1.54180   15.00000   15.00000   15.00000   90.00000   90.00000   90.00000
LATT -1
SFAC C  
C      1  0.6232956683895  0.4777158157275  0.4091908787500 1.0
C      1  0.6174018786193  0.4146837039519  0.4754804307823 1.0
C      1  0.6656826210167  0.4410878705202  0.5612871758963 1.0
C      1  0.6232955225083  0.5222890838862  0.5908091366053 1.0
C      1  0.6174034598493  0.5853232761827  0.5245207321174 1.0
C      1  0.6656832284685  0.5589169072802  0.4387146157540 1.0
C      1  0.5086557243124  0.7468099303413  0.3108690682243 1.0
C      1  0.5359837939957  0.4476732617339  0.1752562228712 1.0
C      1  0.5458062352626  0.2024389292599  0.3868464516265 1.0
C      1  0.5086458644022  0.2531928197370  0.6891328465708 1.0
C      1  0.5359764889264  0.5523241345889  0.8247393891461 1.0
C      1  0.5458076556424  0.7975576283241  0.6131571260423 1.0
C      1  0.3852244141062  0.5501349913803  0.8644142867303 1.0
C      1  0.3916976072800  0.7973157121833  0.6374225679880 1.0
C      1  0.3529419743490  0.7487928741966  0.2966939290221 1.0
C      1  0.3852357544029  0.4498664234228  0.1355777477053 1.0
C      1  0.3916949343295  0.2026856869748  0.3625758096705 1.0
C      1  0.3529324893180  0.2512048211888  0.7033097269909 1.0
C      1  0.3415680635761  0.3956882994604  0.7798254863858 1.0
C      1  0.3517070292263  0.6796635270598  0.7742387394924 1.0
C      1  0.3330538782456  0.7801634885181  0.4824695758688 1.0
C      1  0.3415779666290  0.6043123695937  0.2201707060621 1.0
C      1  0.3517092319316  0.3203368072615  0.2257557939106 1.0
C      1  0.3330499660355  0.2198348310317  0.5175313198413 1.0
C      1  0.7147730628638  0.6652513111816  0.6910605499981 1.0
C      1  0.7134877510876  0.7417838052518  0.4631869120547 1.0
C      1  0.7016071030008  0.5816045008909  0.2728666538727 1.0
C      1  0.7147744166107  0.3347479815004  0.3089409079086 1.0
C      1  0.7134843720841  0.2582204263085  0.5368193910310 1.0
C      1  0.7015983275610  0.4183973414893  0.7271369615489 1.0
C      1  0.5743015407908  0.2702964682890  0.6153628733538 1.0
C      1  0.5990079104248  0.5302999880167  0.7519407734025 1.0
C      1  0.6421810044510  0.7867643874369  0.5964334657755 1.0
C      1  0.5743103006615  0.7297097982445  0.3846393217544 1.0
C      1  0.5990141930993  0.4697022019041  0.2480572998946 1.0
C      1  0.6421797367261  0.2132355286728  0.4035708757915 1.0
C      1  0.3852717186795  0.5127176267200  0.2149987034110 1.0
C      1  0.4015964550559  0.2862138943790  0.3078364228322 1.0
C      1  0.3545497069701  0.2713356531921  0.6011167972407 1.0
C      1  0.3852634104637  0.4872843967452  0.7849937162841 1.0
C      1  0.4015933153616  0.7137871244206  0.6921582489630 1.0
C      1  0.3545573158930  0.7286623000861  0.3988842050590 1.0
C      1  0.7912175068632  0.3984562139502  0.4766710210598 1.0
C      1  0.7674734830816  0.4420002452308  0.5665856904179 1.0
C      1  0.7870079762755  0.5406679437518  0.5964315019230 1.0
C      1  0.7912189223253  0.6015453087605  0.5233319702360 1.0
C      1  0.7674733776308  0.5580016131694  0.4334174326459 1.0
C      1  0.7870097181621  0.4593334033403  0.4035724665991 1.0
C      1  0.4080137515525  0.6429829461161  0.8403564828348 1.0
C      1  0.4036535731155  0.8059599355877  0.5394954653886 1.0
C      1  0.3895347282731  0.6842864000680  0.2296906208156 1.0
C      1  0.4080188488658  0.3570174246389  0.1596406835151 1.0
C      1  0.4036506986918  0.1940417930622  0.4605036326471 1.0
C      1  0.3895261136283  0.3157143235426  0.7703114638976 1.0
C      1  0.6498629592078  0.8008308856140  0.5030049785426 1.0
C      1  0.6430318583848  0.6315223287841  0.2197577510958 1.0
C      1  0.6515194684615  0.3144627889800  0.2418689258137 1.0
C      1  0.6498612756445  0.1991719844193  0.4969990008907 1.0
C      1  0.6430312588633  0.3684860864997  0.7802411985675 1.0
C      1  0.6515091905478  0.6855401446736  0.7581416926328 1.0
C      1  0.4895954615705  0.3034595960398  0.7668128447776 1.0
C      1  0.5090612403279  0.6433408460960  0.8308393768630 1.0
C      1  0.5001731603869  0.8113002862628  0.5275674434995 1.0
C      1  0.4896033208319  0.6965423653877  0.2331892471355 1.0
C      1  0.5090663059207  0.3566584835925  0.1691622866175 1.0
C      1  0.5001703017086  0.1887001492677  0.4724338064362 1.0
C      1  0.5155245910051  0.3454243820644  0.5678916681362 1.0
C      1  0.5644222679471  0.5149007314800  0.6680592723012 1.0
C      1  0.5317887229016  0.6256590717042  0.5197234121026 1.0
C      1  0.5155287053348  0.6545770245711  0.4321058069876 1.0
C      1  0.5644272650815  0.4851016519901  0.3319364216666 1.0
C      1  0.5317900367671  0.3743405724070  0.4802737857045 1.0
C      1  0.4709751392620  0.5021773996119  0.3669676110224 1.0
C      1  0.4677518312872  0.4089906283857  0.4167869709577 1.0
C      1  0.4438602913996  0.4061063116222  0.6014575349647 1.0
C      1  0.4709682258340  0.4978199708549  0.6330259145270 1.0
C      1  0.4677490411792  0.5910078914264  0.5832073278075 1.0
C      1  0.4438669411992  0.5938925951728  0.3985356795580 1.0
C      1  0.5667153898338  0.3434671803796  0.8017518724746 1.0
C      1  0.5805734552260  0.6982861258487  0.8002348897947 1.0
C      1  0.5672183743117  0.8020286060561  0.4583586926930 1.0
C      1  0.5667340384030  0.6565324552969  0.1982497741947 1.0
C      1  0.5805684502873  0.3017096420470  0.1997665947237 1.0
C      1  0.5672151007606  0.1979728114898  0.5416445619555 1.0
C      1  0.6781864319538  0.2946051556811  0.6130288757851 1.0
C      1  0.6989922021278  0.5120656430216  0.7383824812063 1.0
C      1  0.7147593901048  0.7225408621303  0.6161560673770 1.0
C      1  0.6781907781619  0.7053981976935  0.3869765118017 1.0
C      1  0.6989997430188  0.4879356256107  0.2616193597379 1.0
C      1  0.7147572118587  0.2774615092857  0.3838477239568 1.0
C      1  0.3585860787310  0.3764206059216  0.5870995219955 1.0
C      1  0.4074964261859  0.5359669499671  0.6977526209937 1.0
C      1  0.4185301841294  0.6232438683664  0.6549426945803 1.0
C      1  0.3585967746390  0.6235744325405  0.4129049801945 1.0
C      1  0.4075039759442  0.4640338858535  0.3022398845083 1.0
C      1  0.4185324000170  0.3767564013519  0.3450508593398 1.0
C      1  0.2727237065855  0.3640418135048  0.2611692544769 1.0
C      1  0.2512236491404  0.2484227190305  0.4831709116233 1.0
C      1  0.2563384414094  0.3977478057897  0.7388527316573 1.0
C      1  0.2727229552893  0.6359576638036  0.7388283398037 1.0
C      1  0.2512238903004  0.7515735460294  0.5168269750435 1.0
C      1  0.2563497327766  0.6022504978252  0.2611367379529 1.0
C      1  0.2626692326873  0.5644782678366  0.4207404556347 1.0
C      1  0.2486702957883  0.4612403575608  0.4091079844034 1.0
C      1  0.2299641622238  0.4098124538449  0.4850722433300 1.0
C      1  0.2626607536883  0.4355125027726  0.5792598980315 1.0
C      1  0.2486669955051  0.5387502760646  0.5908944255903 1.0
C      1  0.2299680625010  0.5901787018587  0.5149284992006 1.0
C      1  0.4253075033106  0.2239707503465  0.6557975422600 1.0
C      1  0.4614987299649  0.4993718419611  0.8495257049307 1.0
C      1  0.4733681351946  0.7857616285908  0.6774056342448 1.0
C      1  0.4253174725902  0.7760284401630  0.3442056188869 1.0
C      1  0.4615079375183  0.5006277213678  0.1504672940961 1.0
C      1  0.4733687460465  0.2142379886048  0.3225963773145 1.0
C      1  0.7590489510717  0.3079909115900  0.4655250434941 1.0
C      1  0.7128929835927  0.3844358864928  0.6346093719515 1.0
C      1  0.7457891746640  0.5728941933615  0.6797576059075 1.0
C      1  0.7590496753120  0.6920119478876  0.5344813294302 1.0
C      1  0.7128978848633  0.6155678234211  0.3653932118387 1.0
C      1  0.7457953126380  0.4271072035471  0.3202414531098 1.0
C      1  0.2523038600246  0.4145024764779  0.3253916974398 1.0
C      1  0.2090058227681  0.3191899458398  0.4771892754022 1.0
C      1  0.2238272055444  0.3992062744438  0.6629458835500 1.0
C      1  0.2523022085454  0.5854883677559  0.6746093107030 1.0
C      1  0.2090185516632  0.6808054515201  0.5228084052324 1.0
C      1  0.2238409089693  0.6007849255034  0.3370605813267 1.0
END
