TITL C-524-1366-25 -9.337 3375.00 -1530.78603036 0 0 184 (C1) n - 1
REM
REM Run started: at 2020.12.22 17:07:02 in /gpfs/home/chem/mssmkc/CARBON/AIRSS/Generating-Clusters/Str-Search/Higher-Symm/C100-200
REM VASP from code version vasp.5.4.4.18Apr17-6-g9f103f2a35 (build Oct 11 2019 16:45:47) gamma-only
REM
REM
REM
REM
REM ./C.cell (533062f00bc710175b3da973d35f2034)
REM AIRSS Version 0.9.1 bugfix July 2018 build 013d7b7c2542+ Fri, 06 Jul 2018 19:26:36 +0100
REM compiler GCC version 6.3.0
REM options -cpp -iprefix /gpfs/warwick/csc/orac/software/Core/GCCcore/6.3.0/bin/../lib/gcc/x86_64-pc-linux-gnu/6.3.0/ -mtune=generic -march=x86-64 -g -O0
REM seed 981610679 871554469 -982480922 -253484708 -1686933893 242222705 -1757962315 -1076306246 1651509249 169516100 589401164 -1648753363
REM
REM C.POTCAR (d86ddea03c3ceb6dc662c8ad6801f873)
REM 
CELL 1.54180   15.00000   15.00000   15.00000   90.00000   90.00000   90.00000
LATT -1
SFAC C  
C      1  0.5900929320880  0.3447354232812  0.9085618582845 1.0
C      1  0.3839993549959  0.5508188258125  0.9762881437018 1.0
C      1  0.4905121208407  0.7316008386733  0.8112964776146 1.0
C      1  0.4759460653148  0.8881816169389  0.6129487192686 1.0
C      1  0.3649643865748  0.9379367512724  0.3955327526909 1.0
C      1  0.4323433717360  0.7803682665464  0.2045146171066 1.0
C      1  0.3928365017284  0.5763074038615  0.0651327075390 1.0
C      1  0.3718952326370  0.3424312187750  0.1107402322280 1.0
C      1  0.4452383058590  0.1850911627606  0.2797627306961 1.0
C      1  0.3956629991499  0.0494621023759  0.4832458082479 1.0
C      1  0.4854310023466  0.1759697268687  0.6979173037539 1.0
C      1  0.3207255506285  0.8153528607935  0.5613390404532 1.0
C      1  0.2861673199497  0.7795629387674  0.3865009462793 1.0
C      1  0.2814836795980  0.6867282178553  0.2332580709704 1.0
C      1  0.3067363775515  0.5074871971218  0.2019447704927 1.0
C      1  0.2775809536390  0.3345391988038  0.2584300988104 1.0
C      1  0.3002660407394  0.2094653740826  0.3834110194920 1.0
C      1  0.3204021417928  0.1720034658757  0.5590461566879 1.0
C      1  0.3295168072730  0.2640681385021  0.7084134946820 1.0
C      1  0.3025551995092  0.4199054103678  0.8023569761668 1.0
C      1  0.3411590433595  0.5905976985829  0.8138780100104 1.0
C      1  0.3470176112915  0.7519321478979  0.7295531845868 1.0
C      1  0.6915802511636  0.6862025981185  0.2494920144668 1.0
C      1  0.7216883997007  0.5297530382300  0.1986976953342 1.0
C      1  0.7038325557976  0.3082517663682  0.2573024547977 1.0
C      1  0.7133216013591  0.2466176892236  0.3317074407138 1.0
C      1  0.7408902205126  0.2093956401987  0.5641639226786 1.0
C      1  0.7551518885464  0.2521762462434  0.6512679551033 1.0
C      1  0.7738747941715  0.4598057952269  0.7694051146881 1.0
C      1  0.7674399703810  0.5558285234048  0.7687134165454 1.0
C      1  0.7626997077521  0.7467905518488  0.6342128669531 1.0
C      1  0.7453954337020  0.7930972686605  0.5472615721253 1.0
C      1  0.7067884805723  0.7511664757999  0.3191565420102 1.0
C      1  0.4211590845401  0.2429304027704  0.7221174647194 1.0
C      1  0.3553336876852  0.4032351904394  0.8830598727301 1.0
C      1  0.4178494849696  0.5861795997032  0.8857591354275 1.0
C      1  0.4248433082767  0.7910375579314  0.7594503802147 1.0
C      1  0.3959637952352  0.8812900472204  0.5472974714443 1.0
C      1  0.3716254071255  0.8423332515569  0.3581716345142 1.0
C      1  0.3605745770850  0.7156545676501  0.1842177425151 1.0
C      1  0.3713149657247  0.4947199453005  0.1205109119067 1.0
C      1  0.3475622518035  0.3018114598661  0.1923645944354 1.0
C      1  0.3841869420575  0.1600450887293  0.3571423687559 1.0
C      1  0.4053019998058  0.1206850376909  0.5524842375743 1.0
C      1  0.5149760846044  0.5590198012756  0.3332849303443 1.0
C      1  0.5191865974412  0.4486225651384  0.3282564199161 1.0
C      1  0.5274862498463  0.3637481351615  0.3971721660067 1.0
C      1  0.5921641905386  0.3400852341036  0.4776324056693 1.0
C      1  0.5808510243042  0.3540118420677  0.5773560514936 1.0
C      1  0.6268714885783  0.4153996389883  0.6411889923653 1.0
C      1  0.6199652485024  0.5069367918675  0.6684466625259 1.0
C      1  0.6131971133903  0.5934982822536  0.6448006556687 1.0
C      1  0.5841789397911  0.6559136439888  0.5728768338865 1.0
C      1  0.5950290098787  0.6683652276985  0.4729836178444 1.0
C      1  0.5303883224731  0.6435830015626  0.3963608926607 1.0
C      1  0.5641574093651  0.2951565266715  0.3309140313575 1.0
C      1  0.6237676109648  0.2549772225278  0.4650453320016 1.0
C      1  0.6069382782294  0.2659815276376  0.6158178952605 1.0
C      1  0.6609941653973  0.3667249117076  0.7114542457246 1.0
C      1  0.6211276359797  0.4968007849566  0.7682232327507 1.0
C      1  0.6321597509214  0.6540802569868  0.7293887992757 1.0
C      1  0.6140143522344  0.7482117683796  0.6125828432788 1.0
C      1  0.6220946091059  0.7540684960467  0.4565948961698 1.0
C      1  0.5573403258488  0.7111193083161  0.3239580316750 1.0
C      1  0.5662524594077  0.5744514768577  0.2443779581141 1.0
C      1  0.5926039483872  0.4277136395271  0.2601563216267 1.0
C      1  0.4382734044177  0.4415352532989  0.2666207847993 1.0
C      1  0.4515330689323  0.3095260329467  0.4422928409104 1.0
C      1  0.4468315319582  0.2888677591378  0.5327306285357 1.0
C      1  0.4790996163926  0.3539599589305  0.6055405360127 1.0
C      1  0.4838362219886  0.3870426274499  0.7847706322154 1.0
C      1  0.5275548600131  0.4688609072959  0.7969716362871 1.0
C      1  0.4875891189524  0.6884741977883  0.6023266986595 1.0
C      1  0.4477303247179  0.7215875709591  0.5269908731496 1.0
C      1  0.4495641843318  0.6952885086199  0.4362323380126 1.0
C      1  0.4243383575527  0.5834404931059  0.2944335128138 1.0
C      1  0.3732953742057  0.5090945963459  0.2770967562042 1.0
C      1  0.1401415198237  0.4170094195417  0.6564177724629 1.0
C      1  0.1435485159989  0.5065358072433  0.6831937563005 1.0
C      1  0.0883389076408  0.5656809958997  0.6349951110998 1.0
C      1  0.0877902736858  0.6171712119107  0.5712016042064 1.0
C      1  0.1340934783410  0.6600510793253  0.5017579249100 1.0
C      1  0.1254354522559  0.6230868840496  0.4137971037228 1.0
C      1  0.0755084781882  0.5382259697108  0.4042419793020 1.0
C      1  0.1220735448847  0.4609023739240  0.3653777768800 1.0
C      1  0.1252650075067  0.3837275495831  0.4188786259115 1.0
C      1  0.0793601494170  0.3847878148840  0.5017500293482 1.0
C      1  0.0847519579251  0.3984009594335  0.5823640307125 1.0
C      1  0.8368527414547  0.3933935343186  0.3258342802895 1.0
C      1  0.8423762647436  0.3329609013992  0.3971761938617 1.0
C      1  0.8515316016996  0.3199404070939  0.4979435523139 1.0
C      1  0.8615153272667  0.3624629306798  0.5805589403419 1.0
C      1  0.8683490835989  0.4522266511154  0.6305265673143 1.0
C      1  0.8649242300062  0.5454115610322  0.6274242011785 1.0
C      1  0.8622087691314  0.6316948109507  0.5681923769270 1.0
C      1  0.8461028030810  0.6703927669968  0.4820960195439 1.0
C      1  0.8306940030726  0.6543113089110  0.3819254790023 1.0
C      1  0.8202480360288  0.5878792693906  0.3115719670708 1.0
C      1  0.8392944946770  0.4921557920654  0.2938351754234 1.0
C      1  0.5266611808120  0.2044469757044  0.3396821843231 1.0
C      1  0.5498022945784  0.1414369560023  0.5508237703810 1.0
C      1  0.5605923064406  0.2438370743677  0.6992103382862 1.0
C      1  0.6627440638567  0.3741604221390  0.8783332315052 1.0
C      1  0.5694954226889  0.6002182610049  0.8752100371574 1.0
C      1  0.5544867418993  0.7126795915742  0.7487219096817 1.0
C      1  0.5443821357750  0.8673701337535  0.5430679115797 1.0
C      1  0.5188428761794  0.8026667461194  0.3334105744366 1.0
C      1  0.4992952913080  0.7055803417732  0.1792644714867 1.0
C      1  0.5402653227120  0.5144299566844  0.1685115263294 1.0
C      1  0.5127037685365  0.3000345089209  0.1812129269683 1.0
C      1  0.1822564307619  0.6436083418275  0.3431160375798 1.0
C      1  0.1909079815795  0.5735875422426  0.2782220115955 1.0
C      1  0.1823641143084  0.4792188727402  0.2945197440408 1.0
C      1  0.1950628778762  0.3189139776720  0.4169961365630 1.0
C      1  0.2157811431119  0.2730707587514  0.4993652680847 1.0
C      1  0.2222589349101  0.2871340104425  0.5959181869536 1.0
C      1  0.2121989751928  0.3550190832467  0.6639067667521 1.0
C      1  0.2190013866103  0.5498511354372  0.7221709516880 1.0
C      1  0.2418275819687  0.6397451888936  0.6999202491985 1.0
C      1  0.2360665507471  0.7035163332709  0.6267809000108 1.0
C      1  0.2077043649583  0.7115950404259  0.5323868070206 1.0
C      1  0.3866893930201  0.0646267215906  0.3943673141632 1.0
C      1  0.4844456337823  0.1218200041528  0.6196841433542 1.0
C      1  0.5036609627658  0.3337083547325  0.9344635847734 1.0
C      1  0.3504208488861  0.4542885881741  0.9708384120417 1.0
C      1  0.4919358709503  0.6595049059169  0.8737542379982 1.0
C      1  0.4789883026623  0.8361463726005  0.6897127908903 1.0
C      1  0.3773156963798  0.9535184858098  0.4836756601891 1.0
C      1  0.4391744051969  0.8333189043602  0.2768912839920 1.0
C      1  0.4180431712305  0.6528169149659  0.1232864910359 1.0
C      1  0.3437269670794  0.4221972058763  0.0574229455219 1.0
C      1  0.4337597528938  0.2504416866556  0.2174456345139 1.0
C      1  0.4867003863521  0.3195317000239  0.7107215749130 1.0
C      1  0.4396861928698  0.3594866948148  0.8715874204754 1.0
C      1  0.5047805359265  0.5323933829202  0.8617751087386 1.0
C      1  0.5315585338526  0.7577079394560  0.6673789387024 1.0
C      1  0.4665726646465  0.8243913156461  0.4998195086859 1.0
C      1  0.4522217050396  0.7933901580128  0.4071490491013 1.0
C      1  0.4281221622307  0.6472752626439  0.2211157924199 1.0
C      1  0.4617820199482  0.4544419214733  0.1614980370208 1.0
C      1  0.4698151514554  0.3603028221842  0.1250799331110 1.0
C      1  0.4589555388524  0.2116239013457  0.4129909622987 1.0
C      1  0.4697159152561  0.1880804711228  0.5086416753592 1.0
C      1  0.7778578110113  0.7360205283933  0.3787809131652 1.0
C      1  0.7488270620538  0.6116486222845  0.2442734114831 1.0
C      1  0.7811424840727  0.4641773271485  0.2220637785520 1.0
C      1  0.7720586545907  0.3727763574792  0.2532100293259 1.0
C      1  0.7834824711213  0.2554271126998  0.3938246776167 1.0
C      1  0.7934030190131  0.2409299772758  0.4926318394191 1.0
C      1  0.8173311004667  0.3232030994055  0.6582983870872 1.0
C      1  0.8250754684396  0.4114348263096  0.7069180398848 1.0
C      1  0.8201528753283  0.5959275258124  0.7002477944416 1.0
C      1  0.8249649015237  0.6764311494134  0.6436687353202 1.0
C      1  0.7916853593431  0.7533303858083  0.4759393055286 1.0
C      1  0.6366307585443  0.2002140548820  0.5475583926370 1.0
C      1  0.6651626236854  0.2714723532860  0.6956726029341 1.0
C      1  0.6854327022572  0.4185216181854  0.7932702530169 1.0
C      1  0.6552463956101  0.5867052495058  0.8020636790189 1.0
C      1  0.6838623574509  0.7279866248123  0.6776162169645 1.0
C      1  0.6377811128085  0.8096037309902  0.5377934435496 1.0
C      1  0.6193943911432  0.7803740320372  0.3616408111015 1.0
C      1  0.5865701654685  0.6734271988845  0.2344546674285 1.0
C      1  0.6291322319154  0.5034209716957  0.2130645750028 1.0
C      1  0.5971467514396  0.3293213692510  0.2428648548986 1.0
C      1  0.6244981468940  0.2260067607067  0.3714118003674 1.0
C      1  0.2839396483476  0.3491462543621  0.7314097519442 1.0
C      1  0.2834775482500  0.5146869413309  0.7851712336768 1.0
C      1  0.3140328189671  0.6652517016261  0.7599577506797 1.0
C      1  0.3012657188118  0.7712396820236  0.6427930213051 1.0
C      1  0.2682644655889  0.7745501977059  0.4844158054648 1.0
C      1  0.2483481298275  0.7148848390268  0.3224317646256 1.0
C      1  0.2549094271214  0.5952350577862  0.2159960964951 1.0
C      1  0.2469852243226  0.4287914844531  0.2453080691472 1.0
C      1  0.2559494082332  0.2875883526626  0.3435470031826 1.0
C      1  0.2773213049391  0.2034993846017  0.4767287052101 1.0
C      1  0.2884820989584  0.2259454447441  0.6292339992496 1.0
C      1  0.8255548446826  0.4976752273002  0.4646874361068 1.0
C      1  0.7416101886234  0.4975730428498  0.4688832547815 1.0
C      1  0.4481491533789  0.4452200297846  0.5806743886382 1.0
C      1  0.5732617840560  0.5085441924868  0.4926993596055 1.0
C      1  0.9925838424737  0.5229144907896  0.4390209536901 1.0
C      1  0.4940975891480  0.4927598365219  0.5285379152442 1.0
C      1  0.9127184526320  0.5036333854111  0.4541660863930 1.0
C      1  0.6551006237156  0.5030540937343  0.4735809041345 1.0
END
