TITL C-524-1366-48 -8.956 3375.00 -1583.90593003 0 0 193 (C1) n - 1
REM
REM Run started: at 2020.12.23 13:29:32 in /gpfs/home/chem/mssmkc/CARBON/AIRSS/Generating-Clusters/Str-Search/Higher-Symm/C100-200
REM VASP from code version vasp.5.4.4.18Apr17-6-g9f103f2a35 (build Oct 11 2019 16:45:47) gamma-only
REM
REM
REM
REM
REM ./C.cell (533062f00bc710175b3da973d35f2034)
REM AIRSS Version 0.9.1 bugfix July 2018 build 013d7b7c2542+ Fri, 06 Jul 2018 19:26:36 +0100
REM compiler GCC version 6.3.0
REM options -cpp -iprefix /gpfs/warwick/csc/orac/software/Core/GCCcore/6.3.0/bin/../lib/gcc/x86_64-pc-linux-gnu/6.3.0/ -mtune=generic -march=x86-64 -g -O0
REM seed -170429608 126417995 -1121162663 336666249 -1078341224 643755249 1794544485 -1385486017 1799759218 -1626212247 464124071 97331767
REM
REM C.POTCAR (d86ddea03c3ceb6dc662c8ad6801f873)
REM 
CELL 1.54180   15.00000   15.00000   15.00000   90.00000   90.00000   90.00000
LATT -1
SFAC C  
C      1  0.1917966779671  0.1916350859221  0.5327537820665 1.0
C      1  0.8213603519896  0.3733601573324  0.7398198251848 1.0
C      1  0.4255382871332  0.7402335759103  0.3921859495017 1.0
C      1  0.2925509020368  0.3617337921917  0.2180605953843 1.0
C      1  0.2227415045371  0.4576547092244  0.7217262262088 1.0
C      1  0.4580749161110  0.1524361643155  0.6231153497462 1.0
C      1  0.3842278442206  0.4701189188186  0.8437146397022 1.0
C      1  0.2317459570069  0.5439892088764  0.8967466702226 1.0
C      1  0.6072176869059  0.5822375325686  0.7849048229873 1.0
C      1  0.8444709692846  0.6408143134029  0.5530545214433 1.0
C      1  0.8226349484966  0.6598427228978  0.4604913710153 1.0
C      1  0.5229876786721  0.2847708395499  0.7152382328437 1.0
C      1  0.8071121799179  0.6714038440869  0.6362187912645 1.0
C      1  0.3870590795293  0.6806718456538  0.5462372269918 1.0
C      1  0.4493718562994  0.8328562740038  0.2634681119300 1.0
C      1  0.1360373451801  0.6003877543550  0.4566286510392 1.0
C      1  0.3761637020068  0.3686192722908  0.6153719043172 1.0
C      1  0.6869489487078  0.1991692198693  0.4134656977943 1.0
C      1  0.5026989257860  0.1841008317508  0.2006439830949 1.0
C      1  0.3776176700499  0.7864177712166  0.2228952257347 1.0
C      1  0.4729913643238  0.7454234616875  0.8102653590420 1.0
C      1  0.3569238024761  0.4551604123134  0.0971107430429 1.0
C      1  0.7685064656981  0.5987118722353  0.1232074690570 1.0
C      1  0.8130577336716  0.6010652986110  0.7028932476232 1.0
C      1  0.2714983573647  0.1669432523813  0.4938881845897 1.0
C      1  0.3813933728482  0.7110813445370  0.1653127398378 1.0
C      1  0.7234037762409  0.7194307635064  0.6247710716087 1.0
C      1  0.1559699448247  0.5442418151964  0.3037131204863 1.0
C      1  0.8457842242152  0.5232247980807  0.6547270560974 1.0
C      1  0.3778214346242  0.7076853596288  0.7974176542088 1.0
C      1  0.3162042681411  0.6874745916114  0.6221203416147 1.0
C      1  0.4555942588654  0.6499460347313  0.1685715142957 1.0
C      1  0.6805176733489  0.3919200477936  0.4353565454705 1.0
C      1  0.4457160431156  0.3176027706609  0.1444485453066 1.0
C      1  0.4960096255248  0.7983555997508  0.7235170881899 1.0
C      1  0.4496724380624  0.5162687860221  0.7716982774458 1.0
C      1  0.4055826681400  0.3116268596715  0.8233108508104 1.0
C      1  0.4839986113894  0.6802283791347  0.5958420810906 1.0
C      1  0.2659366506113  0.3785215730049  0.7569075977498 1.0
C      1  0.4658219565791  0.3718096568768  0.3816089111405 1.0
C      1  0.7590952415994  0.2801891697025  0.5448525651737 1.0
C      1  0.2293311885733  0.6765474398526  0.2498023653685 1.0
C      1  0.6091236137570  0.4120278833535  0.8769552411111 1.0
C      1  0.5370355763102  0.4775592391478  0.8927370207907 1.0
C      1  0.5052685704081  0.6740939925684  0.2572291025571 1.0
C      1  0.5439413867535  0.8528445303557  0.4316282277537 1.0
C      1  0.6088156932792  0.1317705309667  0.5598635055430 1.0
C      1  0.4889431813753  0.5164334605209  0.3034923987063 1.0
C      1  0.5346032812380  0.1995006216082  0.5622661902316 1.0
C      1  0.5260006659068  0.2915140645698  0.4219074486831 1.0
C      1  0.4069926747874  0.1074383072228  0.5476105437718 1.0
C      1  0.8888438379387  0.4773153959654  0.2782923184639 1.0
C      1  0.7580972742945  0.6037955453760  0.7818544644413 1.0
C      1  0.3413105209597  0.3820872613092  0.8107168496326 1.0
C      1  0.8386757920646  0.5791661908812  0.1628356905943 1.0
C      1  0.7225245791661  0.6815607884032  0.8248137337028 1.0
C      1  0.3311605581992  0.6372429591233  0.8330351732793 1.0
C      1  0.6946182490441  0.5334524543152  0.8099826660169 1.0
C      1  0.4668574988754  0.4498772614604  0.2397589549812 1.0
C      1  0.2074778469434  0.8197917788481  0.4235590793679 1.0
C      1  0.6148877126320  0.1041022910427  0.6504034049461 1.0
C      1  0.2634239859473  0.8755090254321  0.4763883283090 1.0
C      1  0.3952364681195  0.2129923793263  0.6719645519505 1.0
C      1  0.7695876841548  0.5801896373487  0.3241987718983 1.0
C      1  0.6551132499278  0.4963658985334  0.5520623891052 1.0
C      1  0.2070512155770  0.5857939427467  0.2304347446855 1.0
C      1  0.6817371034564  0.2582214157345  0.4937690206696 1.0
C      1  0.1579620128419  0.5101618030761  0.5874256189622 1.0
C      1  0.1398833721037  0.7942339895165  0.3658291428064 1.0
C      1  0.5743753835295  0.8421685981144  0.6795582630606 1.0
C      1  0.1933973795376  0.4563977220363  0.2838905611979 1.0
C      1  0.2812430394231  0.5835738348872  0.4684286322971 1.0
C      1  0.6915745846918  0.4199236164393  0.2771688220006 1.0
C      1  0.8591223045980  0.3462308344347  0.6588806226859 1.0
C      1  0.7018680592731  0.7999789715736  0.5653846457156 1.0
C      1  0.3639131408885  0.7133430599548  0.6993732400654 1.0
C      1  0.6270465564093  0.6737513431347  0.8293374560037 1.0
C      1  0.7694924466054  0.2533657101088  0.2623161480126 1.0
C      1  0.5307141665127  0.2680747282247  0.1681828428678 1.0
C      1  0.8612579467433  0.4378114186475  0.6846879599045 1.0
C      1  0.6838854841115  0.2439338564588  0.2316466130965 1.0
C      1  0.8487121041973  0.5462554543604  0.5612567741514 1.0
C      1  0.5388813591655  0.8698055048438  0.5244053781598 1.0
C      1  0.5850892386682  0.5905273295181  0.3817661131079 1.0
C      1  0.1889182558034  0.2906130235724  0.5403488766404 1.0
C      1  0.3776633477977  0.3091990329869  0.2208337576646 1.0
C      1  0.2486196645080  0.3081993128295  0.6904555748017 1.0
C      1  0.5607028197558  0.5870319465629  0.2835909962307 1.0
C      1  0.4738205192712  0.8188312172575  0.3594133759486 1.0
C      1  0.6543342946095  0.3152879216714  0.6642513991052 1.0
C      1  0.3832355762322  0.9088248455827  0.5497951558602 1.0
C      1  0.4932699108691  0.2190398890328  0.4704961889918 1.0
C      1  0.1856817042532  0.3375801511654  0.6258800359148 1.0
C      1  0.5443823724263  0.3611645924750  0.5577247352072 1.0
C      1  0.4985089968031  0.4755051193610  0.1457771855047 1.0
C      1  0.2389818706625  0.3698032854858  0.2985084937029 1.0
C      1  0.8284877879399  0.2967969556398  0.5870819066152 1.0
C      1  0.4373680964021  0.2462313611056  0.7535011421615 1.0
C      1  0.6045055603165  0.8189335654032  0.5862675066072 1.0
C      1  0.4686619554493  0.9029155674145  0.5838596198381 1.0
C      1  0.7178086705148  0.4584150830266  0.4867066676321 1.0
C      1  0.4022365351461  0.3933518768414  0.4603992048470 1.0
C      1  0.3655551622080  0.2223675700649  0.2706275015447 1.0
C      1  0.2295778208421  0.4962456367247  0.2000095288497 1.0
C      1  0.6437951269036  0.6706925540440  0.6355457181741 1.0
C      1  0.5258013871998  0.5376968549993  0.4477047948266 1.0
C      1  0.6061270626795  0.3294061642198  0.4741339884073 1.0
C      1  0.6792310548762  0.7026717953354  0.1898789840364 1.0
C      1  0.5246870267119  0.1917343454411  0.7645512943832 1.0
C      1  0.5760388852682  0.4484541292160  0.5835443484520 1.0
C      1  0.4355742305307  0.6653242788831  0.3317442938828 1.0
C      1  0.5661566021098  0.3276393336408  0.8696219079576 1.0
C      1  0.8096002027088  0.5733661437771  0.4151972668180 1.0
C      1  0.5136689316050  0.5828862972363  0.6266943846508 1.0
C      1  0.8048900500084  0.5083500416850  0.4817485907876 1.0
C      1  0.6921493258750  0.1216785394135  0.7030314470478 1.0
C      1  0.4304818824414  0.5621373744309  0.4389911270378 1.0
C      1  0.4507876064371  0.7340670704755  0.6694714562288 1.0
C      1  0.6302364428279  0.8232102541486  0.3996302674509 1.0
C      1  0.2542711333501  0.3271635843007  0.4689375984856 1.0
C      1  0.6340384842621  0.5500552709574  0.2169621928017 1.0
C      1  0.7022840924962  0.5129669552516  0.2830424076610 1.0
C      1  0.4396019418846  0.4029010782419  0.1049645789802 1.0
C      1  0.2470086012413  0.4975300659544  0.4575128305132 1.0
C      1  0.4553862691570  0.4338072432245  0.9061619091121 1.0
C      1  0.8756849302446  0.3947495237628  0.2913961358059 1.0
C      1  0.2287085047953  0.6567552908489  0.5956831974296 1.0
C      1  0.3054720011960  0.4338754155688  0.5831366223929 1.0
C      1  0.3018347205184  0.7255927175088  0.2128103014291 1.0
C      1  0.6467302387320  0.6484664773628  0.4086118077352 1.0
C      1  0.6895541697377  0.4415607535161  0.8358399299982 1.0
C      1  0.6241047011507  0.7983576475694  0.3088347871206 1.0
C      1  0.5303627758054  0.1261128807326  0.6917568807610 1.0
C      1  0.4417022645705  0.5259441550540  0.6785897011588 1.0
C      1  0.4181897602471  0.1566460510733  0.4676668110202 1.0
C      1  0.3693969989891  0.6001316159682  0.4932247303880 1.0
C      1  0.7285405549449  0.3717546016525  0.7727627028204 1.0
C      1  0.6822576785302  0.6207881407500  0.1574750632613 1.0
C      1  0.3013744481441  0.4176504252075  0.4819899888472 1.0
C      1  0.2840905952933  0.4347790360674  0.1556674698323 1.0
C      1  0.5794645582452  0.7152262449080  0.5688794321386 1.0
C      1  0.1547918820255  0.5128713087643  0.4940250422969 1.0
C      1  0.2859088645063  0.2542935682845  0.5415248990552 1.0
C      1  0.6824744103981  0.2755148048836  0.7544123495312 1.0
C      1  0.6182226160753  0.3002212937526  0.1849764708964 1.0
C      1  0.5174353960173  0.4596790746704  0.3825060691963 1.0
C      1  0.2852087687443  0.9046774996949  0.5647858304101 1.0
C      1  0.8103607469695  0.3347158966861  0.3008633028275 1.0
C      1  0.4976372292165  0.8912336558113  0.6773734073608 1.0
C      1  0.6380204104307  0.3937700010216  0.1988098749007 1.0
C      1  0.2035064799193  0.4341915206929  0.6277930140519 1.0
C      1  0.7220018316928  0.1845731482470  0.7477481997846 1.0
C      1  0.1799886196196  0.6980443773503  0.3379361490696 1.0
C      1  0.5308982955928  0.7775820476782  0.2759844970567 1.0
C      1  0.5283747507715  0.5381876847434  0.8207744255234 1.0
C      1  0.7242636834995  0.6762917027815  0.3439297514144 1.0
C      1  0.4329833970436  0.1648595781864  0.2436435819433 1.0
C      1  0.3261832129994  0.5490141883519  0.8743817383176 1.0
C      1  0.4370808023140  0.3737127005569  0.2812134574385 1.0
C      1  0.4717794477260  0.3428989069679  0.8829718983817 1.0
C      1  0.7712954591950  0.7243675464754  0.4197032084898 1.0
C      1  0.3130283764507  0.2264414540001  0.3490035900600 1.0
C      1  0.3840994594981  0.7522416042866  0.4741063008010 1.0
C      1  0.5558615455089  0.5327354278446  0.5420935419522 1.0
C      1  0.7001522404819  0.7812280859522  0.4653614391372 1.0
C      1  0.5954614561462  0.4707080431805  0.1681791871442 1.0
C      1  0.3714718416150  0.5462720304383  0.0785986931733 1.0
C      1  0.6941995333488  0.2504636889800  0.3316283971536 1.0
C      1  0.3333545238671  0.1653383740478  0.4214130431542 1.0
C      1  0.7158810151274  0.3529600383957  0.3493372067257 1.0
C      1  0.8508606226569  0.5557783860710  0.2538235437804 1.0
C      1  0.2248998868461  0.7257017576774  0.4232758758991 1.0
C      1  0.1851110306701  0.5857995567827  0.6430445028096 1.0
C      1  0.3817409576080  0.4644068113552  0.6353060375040 1.0
C      1  0.6773845242016  0.4010438608914  0.6885486282877 1.0
C      1  0.2583515637436  0.3037194301155  0.3699587244616 1.0
C      1  0.1321105625462  0.6124866126226  0.3653928507458 1.0
C      1  0.2141402411022  0.5493136645993  0.7304760954559 1.0
C      1  0.2107901930206  0.6563406508076  0.4945734823008 1.0
C      1  0.6326740500691  0.7048594332871  0.4807041329255 1.0
C      1  0.6653556131547  0.1542083406347  0.4868999488733 1.0
C      1  0.5880013625575  0.2670453678444  0.7946293339732 1.0
C      1  0.4523856744118  0.5665831885386  0.1235964378558 1.0
C      1  0.3273264540533  0.2725466897391  0.6354279900177 1.0
C      1  0.4184074900503  0.5758962973024  0.3447539826334 1.0
C      1  0.4427919257713  0.3709226685983  0.5410480771725 1.0
C      1  0.5640655961055  0.2874573689023  0.6238515790798 1.0
C      1  0.6422580718068  0.4860689370925  0.6496892359790 1.0
C      1  0.2464300088311  0.5917831219336  0.8124410963574 1.0
C      1  0.6054468786862  0.5852972263478  0.6804397471400 1.0
C      1  0.5495317606965  0.7166466264108  0.8469793450426 1.0
C      1  0.6856987777055  0.7361186491273  0.2719777919182 1.0
C      1  0.3557690608806  0.8463198412416  0.4837734260229 1.0
END
