TITL C-524-1366-34 -5.449 3375.00 -1009.98418209 0 0 120 (Th) n - 1
REM
REM Run started: at 2020.12.23 02:12:59 in /gpfs/home/chem/mssmkc/CARBON/AIRSS/Generating-Clusters/Str-Search/Higher-Symm/C100-200
REM VASP from code version vasp.5.4.4.18Apr17-6-g9f103f2a35 (build Oct 11 2019 16:45:47) gamma-only
REM
REM
REM
REM
REM ./C.cell (533062f00bc710175b3da973d35f2034)
REM AIRSS Version 0.9.1 bugfix July 2018 build 013d7b7c2542+ Fri, 06 Jul 2018 19:26:36 +0100
REM compiler GCC version 6.3.0
REM options -cpp -iprefix /gpfs/warwick/csc/orac/software/Core/GCCcore/6.3.0/bin/../lib/gcc/x86_64-pc-linux-gnu/6.3.0/ -mtune=generic -march=x86-64 -g -O0
REM seed 718127789 1086994743 503298774 1441598411 -717365089 1763152131 -249247427 -1710249027 337583327 1839700902 -1058937196 -1486853471
REM
REM C.POTCAR (d86ddea03c3ceb6dc662c8ad6801f873)
REM 
CELL 1.54180   15.00000   15.00000   15.00000   90.00000   90.00000   90.00000
LATT -1
SFAC C  
C      1  0.5501272477719  0.1600905105274  0.5484616566709 1.0
C      1  0.5484676779833  0.5501107648434  0.1600831081605 1.0
C      1  0.1600809754993  0.5484392148009  0.5501228587349 1.0
C      1  0.5501266691055  0.8399081779672  0.4515212895246 1.0
C      1  0.4498729292062  0.8399282060564  0.5484281045734 1.0
C      1  0.4498638329760  0.1600716777129  0.4515879925025 1.0
C      1  0.5484248916235  0.4498832391542  0.8399309737345 1.0
C      1  0.4515779060875  0.4498546461839  0.1600500852728 1.0
C      1  0.4515360186405  0.5501410028532  0.8399332980201 1.0
C      1  0.1600647288285  0.4515685705905  0.4498568828716 1.0
C      1  0.8399359906207  0.4515434714843  0.5501365502815 1.0
C      1  0.8399201804712  0.5484545167539  0.4498832938868 1.0
C      1  0.4498737976375  0.1600905088149  0.5484784197364 1.0
C      1  0.4515746459290  0.5501158088542  0.1600678499456 1.0
C      1  0.8399351139441  0.5484312869840  0.5501430341605 1.0
C      1  0.4498730646948  0.8399084608579  0.4515381402920 1.0
C      1  0.5501366930596  0.8399272479968  0.5484114955283 1.0
C      1  0.5501271774148  0.1600711196578  0.4515713647396 1.0
C      1  0.4515320598971  0.4498882963333  0.8399156419982 1.0
C      1  0.5484635963014  0.4498584606379  0.1600655865430 1.0
C      1  0.5484214298499  0.5501450248590  0.8399487587954 1.0
C      1  0.8399188433607  0.4515605820108  0.4498770845553 1.0
C      1  0.1600799131382  0.4515453388680  0.5501163945398 1.0
C      1  0.1600636020590  0.5484564708973  0.4498632217603 1.0
C      1  0.5533605457350  0.7184884554868  0.6573862754650 1.0
C      1  0.6573912869647  0.5533265529346  0.7184971531217 1.0
C      1  0.7184867801795  0.6573822251970  0.5533565576704 1.0
C      1  0.5533409978138  0.2815248844680  0.3426055719568 1.0
C      1  0.4466275532308  0.2815688644003  0.6573991150923 1.0
C      1  0.4466144322811  0.7184461190781  0.3426092005759 1.0
C      1  0.6573906616402  0.4466456094001  0.2815387736919 1.0
C      1  0.3426214634865  0.4465996828053  0.7184272347861 1.0
C      1  0.3426219732697  0.5533761966746  0.2815355218618 1.0
C      1  0.7184560099100  0.3426250327393  0.4466025004676 1.0
C      1  0.2815609811690  0.3426178346824  0.5533786240869 1.0
C      1  0.2815331698678  0.6573964711137  0.4466636540577 1.0
C      1  0.4466588772680  0.7184759305332  0.6573951946875 1.0
C      1  0.3426080970808  0.5533544047961  0.7184620366775 1.0
C      1  0.2815429110985  0.6573752602982  0.5533972122306 1.0
C      1  0.4466391035473  0.2815123026640  0.3426143367715 1.0
C      1  0.5533855500897  0.2815534751021  0.6573896597888 1.0
C      1  0.5533728987365  0.7184309272473  0.3425996830501 1.0
C      1  0.3426097726830  0.4466738030189  0.2815038659998 1.0
C      1  0.6573792290720  0.4466237203902  0.7184650323847 1.0
C      1  0.6573772947806  0.5533998041497  0.2815729278130 1.0
C      1  0.2815143147954  0.3426178898105  0.4466429623850 1.0
C      1  0.7184668838667  0.3426037006812  0.5533362277798 1.0
C      1  0.7184392416955  0.6573818750261  0.4466212705963 1.0
C      1  0.6027559710267  0.5496623361487  0.3711308112120 1.0
C      1  0.3711151251072  0.6027874622882  0.5496907882383 1.0
C      1  0.5496855186290  0.3711203267685  0.6027630185547 1.0
C      1  0.6028058401419  0.4503263778252  0.6288951361195 1.0
C      1  0.3971856545745  0.4503195322513  0.3710881611110 1.0
C      1  0.3972359043487  0.5496755838679  0.6288871466696 1.0
C      1  0.3710988577021  0.3972111762849  0.4503026318897 1.0
C      1  0.6288895070639  0.3972127018029  0.5496551323734 1.0
C      1  0.6288744429356  0.6027794530537  0.4503525985364 1.0
C      1  0.5496486805937  0.6288705556802  0.3972420450391 1.0
C      1  0.4503404139086  0.6289026109113  0.6028157795934 1.0
C      1  0.4503018334699  0.3710933538614  0.3971814151099 1.0
C      1  0.3971947642489  0.5496741194697  0.3711052738366 1.0
C      1  0.6289016298245  0.6027901138464  0.5496983402073 1.0
C      1  0.4503513271308  0.3711298486109  0.6027583177550 1.0
C      1  0.3972433195499  0.4503381776860  0.6288691721600 1.0
C      1  0.6027628749356  0.4503250150134  0.3711135589180 1.0
C      1  0.6028150571103  0.5496812592083  0.6289125199068 1.0
C      1  0.6288842758426  0.3972148457526  0.4503102864660 1.0
C      1  0.3711254797771  0.3972213022757  0.5496479500091 1.0
C      1  0.3711108542819  0.6027882631976  0.4503459053831 1.0
C      1  0.4503148077340  0.6288797876068  0.3972375771713 1.0
C      1  0.5496982827045  0.6289072257563  0.6028197810021 1.0
C      1  0.5496588727857  0.3710985216179  0.3971870843094 1.0
C      1  0.2167095105132  0.5976398038298  0.6051197819147 1.0
C      1  0.6051460064892  0.2167156851853  0.5976477612410 1.0
C      1  0.5976455864285  0.6051178413401  0.2167151356930 1.0
C      1  0.2167056441666  0.4023659567415  0.3948610548605 1.0
C      1  0.7832734696532  0.4023519159475  0.6051211816425 1.0
C      1  0.7832713168334  0.5976446441232  0.3948955743865 1.0
C      1  0.6051363454246  0.7832650837466  0.4023445488930 1.0
C      1  0.3948972323461  0.7832781440256  0.5976458086709 1.0
C      1  0.3948830076006  0.2167082551857  0.4023622903917 1.0
C      1  0.5976375569533  0.3949038962471  0.7832922067943 1.0
C      1  0.4023632982288  0.3948817994956  0.2167084298256 1.0
C      1  0.4023556614006  0.6051461593598  0.7832846873121 1.0
C      1  0.7832946205661  0.5976342597832  0.6051386187089 1.0
C      1  0.3948651101673  0.2167347243915  0.5976546951816 1.0
C      1  0.4023626513580  0.6050950143392  0.2167069542374 1.0
C      1  0.7832898371001  0.4023605622054  0.3948800258865 1.0
C      1  0.2167282477230  0.4023547217628  0.6051040834939 1.0
C      1  0.2167267600927  0.5976479254288  0.3948787338740 1.0
C      1  0.3948533109074  0.7832842943999  0.4023515753346 1.0
C      1  0.6051177201641  0.7832912033715  0.5976378391277 1.0
C      1  0.6051025255849  0.2167216658700  0.4023544028957 1.0
C      1  0.4023541363918  0.3948803709422  0.7832838372435 1.0
C      1  0.5976436111288  0.3948542453768  0.2167152938195 1.0
C      1  0.5976367946764  0.6051184929652  0.7832917078003 1.0
C      1  0.4520456334671  0.6812592839240  0.7516424831647 1.0
C      1  0.7516264802706  0.4520192441714  0.6812557536021 1.0
C      1  0.6812482721660  0.7516282120602  0.4520282545932 1.0
C      1  0.4520285725342  0.3187327468024  0.2483703258172 1.0
C      1  0.5479681674776  0.3187405836678  0.7516281850485 1.0
C      1  0.5479568256602  0.6812460165289  0.2483593418217 1.0
C      1  0.7516187850883  0.5479764614752  0.3187517261010 1.0
C      1  0.2483682216119  0.5479458112521  0.6812630459767 1.0
C      1  0.2483635304527  0.4520573524968  0.3187281204568 1.0
C      1  0.6812606626446  0.2483605900122  0.5479422745752 1.0
C      1  0.3187258309532  0.2483777280155  0.4520395072247 1.0
C      1  0.3187415027209  0.7516173194242  0.5479890686825 1.0
C      1  0.5479712982593  0.6812674003829  0.7516302578655 1.0
C      1  0.2483800535443  0.4520231803541  0.6812481408016 1.0
C      1  0.3187394723407  0.7516401012933  0.4520574454852 1.0
C      1  0.5479542146554  0.3187409524674  0.2483581965890 1.0
C      1  0.4520434182028  0.3187531320525  0.7516397101255 1.0
C      1  0.4520322574616  0.6812586482170  0.2483709495050 1.0
C      1  0.2483743955418  0.5479808172446  0.3187442285043 1.0
C      1  0.7516371803536  0.5479427842356  0.6812720894240 1.0
C      1  0.7516308554259  0.4520541155715  0.3187370979601 1.0
C      1  0.3187525301016  0.2483722217381  0.5479713600887 1.0
C      1  0.6812578217507  0.2483827449422  0.4520111310087 1.0
C      1  0.6812757436265  0.7516223064219  0.5479609649496 1.0
END
