TITL C-52107-8020-4 -7.872 3375.00 -1080.65219704 0 0 135 (C1) n - 1
REM
REM Run started: at 2020.12.23 10:09:43 in /rds/project/t2_vol4/rds-t2-cs072/BORA/CARBON/AIRSS/Generating-Clusters/Str-Search/Higher-Symm/C100-200
REM VASP from code version vasp.5.4.4.18Apr17-6-g9f103f2a35 (build Oct 11 2019 16:45:47) gamma-only
REM
REM
REM
REM
REM ./C.cell (533062f00bc710175b3da973d35f2034)
REM AIRSS Version 0.9.1 bugfix July 2018 build 013d7b7c2542+ Fri, 06 Jul 2018 19:26:36 +0100
REM compiler GCC version 4.8.5 20150623 (Red Hat 4.8.5-39)
REM options -cpp -mtune=generic -march=x86-64 -g -O0
REM seed -1753136464 756094420 -2056049691 6473755 312095247 -676319956 -709890389 -81959623 -747736632 1870765562 538787598 -1230123395
REM
REM C.POTCAR (d86ddea03c3ceb6dc662c8ad6801f873)
REM 
CELL 1.54180   15.00000   15.00000   15.00000   90.00000   90.00000   90.00000
LATT -1
SFAC C  
C      1  0.1077845648273  0.6005145948957  0.4858049578456 1.0
C      1  0.8927626924998  0.3979035343634  0.4842764714303 1.0
C      1  0.0919335388995  0.6197824620288  0.5707181535899 1.0
C      1  0.9077708414726  0.3778455877088  0.5687072166414 1.0
C      1  0.5484577135971  0.8105616422382  0.3949303487186 1.0
C      1  0.4527002229496  0.1952681074104  0.3948640603768 1.0
C      1  0.5484039390438  0.8044918518014  0.5995466859374 1.0
C      1  0.4513671555882  0.1896490657743  0.6001134555805 1.0
C      1  0.3967033120764  0.2752698510733  0.5517946320219 1.0
C      1  0.6015954928260  0.7205572856320  0.5483411027138 1.0
C      1  0.3987304043444  0.2795943352720  0.4463766424500 1.0
C      1  0.6041627657092  0.7251665448184  0.4430754693311 1.0
C      1  0.6420426495655  0.2107318347113  0.3728328532199 1.0
C      1  0.3592184553804  0.7936475475035  0.3738024329981 1.0
C      1  0.6408246479518  0.2072710247241  0.6222821883273 1.0
C      1  0.3594643842272  0.7882879447632  0.6235304261368 1.0
C      1  0.2982197369066  0.5819958663232  0.1609659276302 1.0
C      1  0.7022750974567  0.4221710014354  0.1607062023510 1.0
C      1  0.2988411845766  0.5777978678614  0.8354509379111 1.0
C      1  0.7002726224977  0.4177694460601  0.8334909798285 1.0
C      1  0.8409000006060  0.4681551613076  0.4480856012964 1.0
C      1  0.1619905570562  0.5329193497531  0.4496908548462 1.0
C      1  0.8406564046624  0.4636246478492  0.5473223303888 1.0
C      1  0.1588250752407  0.5362432752117  0.5504729519627 1.0
C      1  0.5976347338768  0.8394122965340  0.6718009070666 1.0
C      1  0.4032850714798  0.1581409415403  0.6741478992327 1.0
C      1  0.5955589425828  0.8426457548582  0.3200233563345 1.0
C      1  0.4043627960714  0.1628490232198  0.3215249879751 1.0
C      1  0.7205482618668  0.5681467425818  0.5516348230245 1.0
C      1  0.2772582399220  0.4306389746751  0.5529012686121 1.0
C      1  0.7239003701822  0.5705491404343  0.4428746563377 1.0
C      1  0.2812550708376  0.4313497381053  0.4435818304210 1.0
C      1  0.2121871542713  0.4891902352367  0.6086802445947 1.0
C      1  0.7853945842229  0.5075607662761  0.6062718566637 1.0
C      1  0.2156626974070  0.4917853406390  0.3889634716037 1.0
C      1  0.7888146930318  0.5114440656897  0.3871923103013 1.0
C      1  0.3142227325439  0.7547961421371  0.3017718973918 1.0
C      1  0.6871288096212  0.2498155259929  0.3012884401412 1.0
C      1  0.3142803859326  0.7501010477447  0.6956374525542 1.0
C      1  0.6860061099636  0.2438466513722  0.6948668875718 1.0
C      1  0.5379042997822  0.6509774228564  0.5900912822318 1.0
C      1  0.4580628462753  0.3410565270373  0.5999836434521 1.0
C      1  0.5430023518618  0.6587199693225  0.3960323662261 1.0
C      1  0.4619182106383  0.3491720380917  0.4030726999305 1.0
C      1  0.6356438187747  0.3494405582887  0.4459219708760 1.0
C      1  0.3648909900670  0.6522244821262  0.4432204144185 1.0
C      1  0.6352491240174  0.3477175179218  0.5525651072449 1.0
C      1  0.3645450257076  0.6509172629364  0.5500973162766 1.0
C      1  0.4338276801920  0.5622099113588  0.3088571657003 1.0
C      1  0.5686462683345  0.4377731462804  0.3088531434670 1.0
C      1  0.4323198164610  0.5627355688632  0.6873273015789 1.0
C      1  0.5665191603127  0.4371395049002  0.6875072133457 1.0
C      1  0.4594206700784  0.4497557361792  0.4242319979746 1.0
C      1  0.5632336074198  0.5649762474224  0.3989665091967 1.0
C      1  0.4471495253554  0.4388081425146  0.5850141665533 1.0
C      1  0.5430286316825  0.5500254217841  0.5707771123734 1.0
C      1  0.2510097534597  0.5972864141320  0.7525213500965 1.0
C      1  0.7479607634965  0.3972385523708  0.7506791165482 1.0
C      1  0.2521323585523  0.6016836308025  0.2450980091098 1.0
C      1  0.7495762576632  0.4025807294923  0.2438319045988 1.0
C      1  0.5436736118823  0.5790412108193  0.0450508210065 1.0
C      1  0.4563620706347  0.4210492095058  0.0478195623555 1.0
C      1  0.5439863463989  0.5788500576976  0.9474028784130 1.0
C      1  0.4570232324755  0.4211274560033  0.9503471682010 1.0
C      1  0.6397633440070  0.6983563830086  0.7306934416922 1.0
C      1  0.3616398347405  0.2958235279575  0.7390975489252 1.0
C      1  0.6373216494670  0.7034251100937  0.2560893803891 1.0
C      1  0.3615343952020  0.3013422535910  0.2623593580545 1.0
C      1  0.6943213754401  0.6708205607227  0.5434526010006 1.0
C      1  0.3036389801869  0.3274128581490  0.5438269132240 1.0
C      1  0.6976116405574  0.6731979061148  0.4519582936542 1.0
C      1  0.3062113450319  0.3290334508605  0.4523579278025 1.0
C      1  0.7338794159860  0.3155990603049  0.2746240686193 1.0
C      1  0.2678885219576  0.6889734617049  0.2750497260168 1.0
C      1  0.7325638962809  0.3101118974861  0.7207262094468 1.0
C      1  0.2672894035482  0.6841719678996  0.7214820033518 1.0
C      1  0.6350747082779  0.5143179204521  0.4371423707135 1.0
C      1  0.3695795939364  0.4905222699598  0.4445671885082 1.0
C      1  0.6310406760523  0.5105447725541  0.5504279097899 1.0
C      1  0.3652113338892  0.4883281198534  0.5564155269757 1.0
C      1  0.5411270463821  0.3028628189516  0.5517576799017 1.0
C      1  0.4577311735517  0.6948807235508  0.5481126465093 1.0
C      1  0.5424185384998  0.3053249285059  0.4467268396878 1.0
C      1  0.4589312014389  0.6964257169077  0.4440588512850 1.0
C      1  0.6802130185345  0.2578715073301  0.5441316499713 1.0
C      1  0.3195753376783  0.7410552524409  0.5438170008858 1.0
C      1  0.6806926130412  0.2590838113727  0.4524029122295 1.0
C      1  0.3206387461535  0.7427205303366  0.4520124869150 1.0
C      1  0.4492859329052  0.3336046896861  0.7038616870092 1.0
C      1  0.5520335186023  0.6594046691296  0.6953919354799 1.0
C      1  0.4482535837124  0.3412335255934  0.2988853568248 1.0
C      1  0.5495759061661  0.6655667706990  0.2908624986917 1.0
C      1  0.2995061538231  0.3590023937109  0.7450023151991 1.0
C      1  0.7011155813922  0.6352276161721  0.7398604575386 1.0
C      1  0.2993392793775  0.3637328779014  0.2533216197524 1.0
C      1  0.7006247447681  0.6413429075930  0.2509415150672 1.0
C      1  0.4573183874935  0.7835364514582  0.5971695433465 1.0
C      1  0.5425803598592  0.2121179675842  0.5968121774281 1.0
C      1  0.4576209717581  0.7874156525411  0.3981450613312 1.0
C      1  0.5436663634907  0.2166828361710  0.3979938790766 1.0
C      1  0.6451793050534  0.7937972908880  0.7228014735425 1.0
C      1  0.3565929637683  0.2003529747797  0.7288418499650 1.0
C      1  0.6412870683378  0.7990679632308  0.2657390563468 1.0
C      1  0.3567452244185  0.2053589069078  0.2678823198108 1.0
C      1  0.2796690663627  0.4497762667037  0.2401040468019 1.0
C      1  0.7215455286547  0.5549771165474  0.2389391195083 1.0
C      1  0.2779754070112  0.4449176184816  0.7576103632200 1.0
C      1  0.7209372722507  0.5495462616409  0.7545179107738 1.0
C      1  0.4919383018975  0.6179663427112  0.7506541718572 1.0
C      1  0.5096008817439  0.3805137467087  0.7542901574664 1.0
C      1  0.4885431991221  0.6187596779314  0.2402864436411 1.0
C      1  0.5086017179653  0.3840285747367  0.2449141896100 1.0
C      1  0.4754296675849  0.4074318653486  0.1474770198991 1.0
C      1  0.5231486297164  0.5928408914955  0.1444617181441 1.0
C      1  0.4763216394890  0.4061809177099  0.8510306595589 1.0
C      1  0.5251238096371  0.5935873248552  0.8477702492395 1.0
C      1  0.6785232337724  0.5107724046564  0.1592657882908 1.0
C      1  0.3222522072267  0.4933394059585  0.1602327579670 1.0
C      1  0.6773113715448  0.5065247114911  0.8342888738133 1.0
C      1  0.3214273744180  0.4890619339814  0.8374291250795 1.0
C      1  0.6279342982082  0.4266547741239  0.3829681299809 1.0
C      1  0.3746794063333  0.5736458853536  0.3832636321496 1.0
C      1  0.6256032404877  0.4264403577071  0.6123589976693 1.0
C      1  0.3732401798438  0.5739368266428  0.6129189249952 1.0
C      1  0.2353783482952  0.5162849001439  0.2950759647922 1.0
C      1  0.7671663648732  0.4886899813107  0.2933043572831 1.0
C      1  0.2328605330867  0.5116097550287  0.7031124136735 1.0
C      1  0.7652924658611  0.4826857597810  0.6999058699087 1.0
C      1  0.6023644682217  0.5540294774400  0.1167713346186 1.0
C      1  0.3978647995882  0.4487106413824  0.1187006387764 1.0
C      1  0.6022768946118  0.5514278687305  0.8761206593369 1.0
C      1  0.3978738407590  0.4461231741228  0.8789159749884 1.0
C      1  0.5034579358150  0.5040674407932  0.3503982720979 1.0
C      1  0.4977801292403  0.4979980486375  0.6498942893501 1.0
C      1  0.4958587163107  0.4793297074234  0.5125879690119 1.0
END
