TITL C-53939-502-33 -3.929 3375.00 -688.14709914 0 0 85 (C1) n - 1
REM
REM Run started: at 2020.12.04 11:45:31 in /rds/project/t2_vol4/rds-t2-cs072/BORA/CARBON/AIRSS/Generating-Clusters/Str-Search/Higher-Symm/C10-100
REM VASP from code version vasp.5.4.4.18Apr17-6-g9f103f2a35 (build Oct 11 2019 16:45:47) gamma-only
REM
REM
REM
REM
REM ./C.cell (f39ce9773e2efe3fa5bbdf770a4156b8)
REM AIRSS Version 0.9.1 bugfix July 2018 build 013d7b7c2542+ Fri, 06 Jul 2018 19:26:36 +0100
REM compiler GCC version 4.8.5 20150623 (Red Hat 4.8.5-39)
REM options -cpp -mtune=generic -march=x86-64 -g -O0
REM seed -1734961621 468141541 1475947081 981468276 -883846552 -185592204 -1622345422 1760736833 1562522049 460978195 675967426 467097508
REM
REM C.POTCAR (d86ddea03c3ceb6dc662c8ad6801f873)
REM 
CELL 1.54180   15.00000   15.00000   15.00000   90.00000   90.00000   90.00000
LATT -1
SFAC C  
C      1  0.3135247751614  0.5494111058653  0.3060997705322 1.0
C      1  0.4214420814509  0.6637965367667  0.3042358342201 1.0
C      1  0.6344541319469  0.6264047814569  0.2852862053151 1.0
C      1  0.6809192883321  0.4817232939506  0.3252743309791 1.0
C      1  0.5478791512919  0.3151632263287  0.3304422078256 1.0
C      1  0.3913535945490  0.3387861850736  0.3214614858808 1.0
C      1  0.3283144319540  0.4818080884749  0.6808704062115 1.0
C      1  0.4627780241964  0.3100658987808  0.6601505880861 1.0
C      1  0.6216325937311  0.3250416191941  0.6806107994567 1.0
C      1  0.7039032573802  0.4888853822110  0.7416218570393 1.0
C      1  0.6021139810417  0.6441450737452  0.7050511707941 1.0
C      1  0.3921399746767  0.6275312443443  0.7008987351559 1.0
C      1  0.4346682709334  0.5885172565057  0.5417564355137 1.0
C      1  0.5406864040081  0.6061162888838  0.5579597249920 1.0
C      1  0.6122509280139  0.5302652006966  0.5642164217419 1.0
C      1  0.5767137265021  0.4497761407524  0.6114254621603 1.0
C      1  0.4268488514961  0.4010818484389  0.5352472124778 1.0
C      1  0.3800836296521  0.4936784416785  0.5368325167460 1.0
C      1  0.4518560952159  0.4319860733512  0.4387397955042 1.0
C      1  0.5495722555294  0.4272388933630  0.4555782967320 1.0
C      1  0.6086925948531  0.5105261470914  0.4637136502052 1.0
C      1  0.5584270895942  0.6088879999189  0.4552366788359 1.0
C      1  0.4557688736723  0.6003802695861  0.4420773491308 1.0
C      1  0.4071352788699  0.5125279964247  0.4384017729133 1.0
C      1  0.6478506348288  0.2887580484276  0.3489111721555 1.0
C      1  0.4586729216158  0.2715428131202  0.3356544806257 1.0
C      1  0.2423313999589  0.5223176226727  0.3636104223515 1.0
C      1  0.3300645105951  0.6440466068246  0.3186822499825 1.0
C      1  0.6263464400040  0.7102028392420  0.3247959744516 1.0
C      1  0.7051163856337  0.5734057437852  0.3234357449434 1.0
C      1  0.6818342756279  0.6473152288335  0.6465183914655 1.0
C      1  0.3972967292058  0.7067325223987  0.6436226611454 1.0
C      1  0.3094874398469  0.5741011929344  0.6756648834183 1.0
C      1  0.2566626449974  0.2321138635848  0.6133430219229 1.0
C      1  0.5476832134644  0.2676489521894  0.6568298689419 1.0
C      1  0.7555610191440  0.4649918101824  0.6791001390163 1.0
C      1  0.4579436244652  0.5614502817832  0.7325411626468 1.0
C      1  0.5560211823003  0.5704558812134  0.7438716003293 1.0
C      1  0.6122604949269  0.4910154155211  0.7551170912821 1.0
C      1  0.5738908244593  0.4125670612814  0.7067746817085 1.0
C      1  0.4736970187852  0.3935018250519  0.7088305298352 1.0
C      1  0.4183865868903  0.4701160587426  0.7166580187765 1.0
C      1  0.4325120746982  0.4195524938840  0.2802704454579 1.0
C      1  0.5290843054118  0.4035485911072  0.2840686795860 1.0
C      1  0.5920379576412  0.4738521098679  0.2823777182669 1.0
C      1  0.5599780991326  0.5647651008235  0.2642131629782 1.0
C      1  0.4657681104225  0.5820956225865  0.2679061984323 1.0
C      1  0.3990170136470  0.5097581289961  0.2715715588014 1.0
C      1  0.6569598753359  0.7200023401928  0.5851147503402 1.0
C      1  0.7579245929850  0.4864878412364  0.5882489831809 1.0
C      1  0.5938142575038  0.2465710797289  0.5727498416432 1.0
C      1  0.3081483458190  0.2802197919901  0.5614919553999 1.0
C      1  0.2499846206851  0.5656211942496  0.5970274597835 1.0
C      1  0.4381800478083  0.7439951573759  0.5625978614929 1.0
C      1  0.6776638581746  0.3106893511062  0.4294000952085 1.0
C      1  0.7413698078802  0.5766313377005  0.4141787117781 1.0
C      1  0.5730939620663  0.7748477124981  0.3522668104062 1.0
C      1  0.3251207757554  0.6875398770003  0.4075394530102 1.0
C      1  0.2133819270093  0.4674241399420  0.4368444782033 1.0
C      1  0.4103176510752  0.2462464267547  0.4180543563821 1.0
C      1  0.7438847210001  0.4315631728407  0.5105605134715 1.0
C      1  0.5441408929088  0.2623810999936  0.4974380165350 1.0
C      1  0.2852375462360  0.3294500580273  0.4762324510236 1.0
C      1  0.2286958128951  0.6129252286590  0.5176535497698 1.0
C      1  0.4660118304428  0.7621601312383  0.4736765143093 1.0
C      1  0.6850593328948  0.7084433037773  0.4964285605609 1.0
C      1  0.7348220040505  0.6269919030369  0.4913499384374 1.0
C      1  0.5487195411874  0.7902989630936  0.4393546127145 1.0
C      1  0.2947352187970  0.6772302584386  0.4935219727776 1.0
C      1  0.2467467978743  0.4118883941190  0.5028366788717 1.0
C      1  0.4495676783936  0.2494190528996  0.5001749668848 1.0
C      1  0.7150986639860  0.3407850767056  0.5168757398696 1.0
C      1  0.3325969748943  0.3030654245908  0.3986933509684 1.0
C      1  0.2028119267970  0.5592785627497  0.4420505538722 1.0
C      1  0.4226377054489  0.6937361043001  0.4057798667707 1.0
C      1  0.6102180560634  0.7028221570980  0.4319907548392 1.0
C      1  0.7048899022102  0.4850823607465  0.4294324215758 1.0
C      1  0.5774908738812  0.3299417243435  0.4303614831270 1.0
C      1  0.3717854441387  0.6718604370708  0.5565623040800 1.0
C      1  0.2869626875521  0.4729154924138  0.5813390711611 1.0
C      1  0.4052868365303  0.3050913609252  0.5742890006649 1.0
C      1  0.6697537142940  0.3024804272047  0.5935677103051 1.0
C      1  0.7111744255231  0.5749201911273  0.5769391549109 1.0
C      1  0.5758000972730  0.6794705856092  0.6188299025929 1.0
C      1  0.5227036008731  0.4130926712776  0.5498845861058 1.0
END
