TITL C-53939-502-30 -4.663 3375.00 -828.60848143 0 0 99 (C1) n - 1
REM
REM Run started: at 2020.12.04 10:35:31 in /rds/project/t2_vol4/rds-t2-cs072/BORA/CARBON/AIRSS/Generating-Clusters/Str-Search/Higher-Symm/C10-100
REM VASP from code version vasp.5.4.4.18Apr17-6-g9f103f2a35 (build Oct 11 2019 16:45:47) gamma-only
REM
REM
REM
REM
REM ./C.cell (f39ce9773e2efe3fa5bbdf770a4156b8)
REM AIRSS Version 0.9.1 bugfix July 2018 build 013d7b7c2542+ Fri, 06 Jul 2018 19:26:36 +0100
REM compiler GCC version 4.8.5 20150623 (Red Hat 4.8.5-39)
REM options -cpp -mtune=generic -march=x86-64 -g -O0
REM seed 365617727 815358572 -831551195 289931213 605715031 1973678896 -664877117 1379028934 -1791708132 2044862127 -440179787 896521679
REM
REM C.POTCAR (d86ddea03c3ceb6dc662c8ad6801f873)
REM 
CELL 1.54180   15.00000   15.00000   15.00000   90.00000   90.00000   90.00000
LATT -1
SFAC C  
C      1  0.3850940469917  0.6060753401769  0.6891658771503 1.0
C      1  0.4772065925048  0.3446449315293  0.6920567971157 1.0
C      1  0.6627817741421  0.5507831687778  0.7321321461675 1.0
C      1  0.3791717055727  0.6034962068578  0.2957265673391 1.0
C      1  0.4641210066638  0.3344067267116  0.2825717370499 1.0
C      1  0.6693451405230  0.5516518748739  0.2744992210253 1.0
C      1  0.3840269514826  0.4008256042205  0.6849273452571 1.0
C      1  0.4631502247319  0.6709153633004  0.7163827715782 1.0
C      1  0.6526599561701  0.4480036993007  0.7210681304931 1.0
C      1  0.3826100890677  0.3978026934169  0.3016692934565 1.0
C      1  0.4626426863932  0.6674404203850  0.2783800060439 1.0
C      1  0.6693101914385  0.4502573673604  0.2746587532901 1.0
C      1  0.4180166838625  0.5453082275322  0.2214345968705 1.0
C      1  0.5016210569252  0.4035339224628  0.2269471510545 1.0
C      1  0.5822932334977  0.5487844740031  0.2270107715672 1.0
C      1  0.4186871040266  0.5465621984556  0.7643442531517 1.0
C      1  0.4983898814805  0.4042047658092  0.7742769742804 1.0
C      1  0.5818496245522  0.5510556425884  0.7834303533794 1.0
C      1  0.4186222909271  0.4542870826694  0.2238021833342 1.0
C      1  0.5009251298294  0.5970296330564  0.2244411725029 1.0
C      1  0.5826531115029  0.4524979541789  0.2277771103583 1.0
C      1  0.4164048417682  0.4543538896548  0.7650960207945 1.0
C      1  0.4986322686822  0.5999362368812  0.7735559431276 1.0
C      1  0.5766791024627  0.4513632302419  0.7851329466227 1.0
C      1  0.4604004220441  0.7892517756618  0.4020521443967 1.0
C      1  0.2609029128649  0.3198636644042  0.4025176674096 1.0
C      1  0.7742999003593  0.3874378933001  0.3990750302017 1.0
C      1  0.4593815193306  0.7915676249478  0.5910935163169 1.0
C      1  0.2609470759623  0.3197816857942  0.5911884901860 1.0
C      1  0.7684760571616  0.3887892631847  0.5858905379002 1.0
C      1  0.4606346631813  0.2099213921278  0.4027276677704 1.0
C      1  0.2594968464239  0.6797499768767  0.4004533287356 1.0
C      1  0.7740126166949  0.6123833110897  0.3997063583553 1.0
C      1  0.4619069657633  0.2017715533552  0.5917184215522 1.0
C      1  0.2610491765121  0.6798245199031  0.5897886378246 1.0
C      1  0.7673770187362  0.6069860197386  0.5878707303287 1.0
C      1  0.2958599952940  0.7520308387760  0.4452969725143 1.0
C      1  0.3805470980475  0.2007492134676  0.4471100470550 1.0
C      1  0.8225495595677  0.5474038829770  0.4452106493214 1.0
C      1  0.2958434615966  0.7527551987154  0.5446827361093 1.0
C      1  0.3803901155291  0.1996708970593  0.5469805394382 1.0
C      1  0.8205267136998  0.5473387300416  0.5444221989723 1.0
C      1  0.2970490463183  0.2474382432469  0.4472367182945 1.0
C      1  0.3801519156327  0.7984851101381  0.4458867479784 1.0
C      1  0.8238761165784  0.4510778322782  0.4445095699481 1.0
C      1  0.2974630400791  0.2468887906682  0.5468207019155 1.0
C      1  0.3793937876987  0.7995083117939  0.5455434118251 1.0
C      1  0.8203974570468  0.4504698193297  0.5438506377588 1.0
C      1  0.7337354337251  0.3125018173233  0.4449892783407 1.0
C      1  0.5456348927897  0.7939948130027  0.4494714090829 1.0
C      1  0.2094876263770  0.3902050013776  0.4509611600309 1.0
C      1  0.7324822333672  0.3113181999860  0.5397150452373 1.0
C      1  0.5448759408496  0.7964988438353  0.5428514076060 1.0
C      1  0.2097488072277  0.3900387404975  0.5423636928103 1.0
C      1  0.7325643968859  0.6860470773050  0.4470216000479 1.0
C      1  0.5467845086120  0.2015395780820  0.4484651457023 1.0
C      1  0.2094486987845  0.6092236666114  0.4498622317199 1.0
C      1  0.7283061187222  0.6828824720900  0.5420785705162 1.0
C      1  0.5472686136186  0.1948933466909  0.5407823999150 1.0
C      1  0.2108691165550  0.6090226841179  0.5412542252145 1.0
C      1  0.5050551706404  0.2545228515003  0.6591279540490 1.0
C      1  0.6830813966510  0.5986159022690  0.6457939581108 1.0
C      1  0.2919475500285  0.6172119147186  0.6546708351000 1.0
C      1  0.5005061450435  0.2659028198848  0.3339871423362 1.0
C      1  0.7077043099402  0.6179982434812  0.3278811751748 1.0
C      1  0.2865835954132  0.6162690732572  0.3335926405391 1.0
C      1  0.4993472415469  0.7390450521948  0.6629493225686 1.0
C      1  0.6903830537275  0.3865753498272  0.6499348244608 1.0
C      1  0.2909388964417  0.3833545720451  0.6550999421031 1.0
C      1  0.5001826754750  0.7345255750849  0.3315968808630 1.0
C      1  0.7060315324220  0.3840868683462  0.3290718572355 1.0
C      1  0.2893879435964  0.3836597505334  0.3372010113926 1.0
C      1  0.5923441371139  0.2431530641229  0.6129465792199 1.0
C      1  0.6606706934781  0.6929669438072  0.6105867982074 1.0
C      1  0.2376518583362  0.5459635099910  0.6128697535390 1.0
C      1  0.5896870358391  0.2532655870226  0.3747871801016 1.0
C      1  0.6694032005721  0.6999286597197  0.3732731985749 1.0
C      1  0.2328049059804  0.5458064017760  0.3773514001384 1.0
C      1  0.5872839297348  0.7471005243483  0.6164454857492 1.0
C      1  0.6682502040871  0.2941595652960  0.6098922607715 1.0
C      1  0.2364008626041  0.4540093589952  0.6133578312246 1.0
C      1  0.5896394758966  0.7463852453975  0.3740911236460 1.0
C      1  0.6685296125530  0.3009205699280  0.3732445326597 1.0
C      1  0.2334037683458  0.4535732151420  0.3783627540064 1.0
C      1  0.4776777732939  0.5921715331073  0.4347080076749 1.0
C      1  0.4197933333552  0.4567501163339  0.3798257568499 1.0
C      1  0.5710828776664  0.4641887598300  0.4349510590437 1.0
C      1  0.5269515836439  0.5820359804935  0.5900083881557 1.0
C      1  0.4258201213399  0.4551527935665  0.6064965192168 1.0
C      1  0.6085704852021  0.4455531144952  0.6280312739020 1.0
C      1  0.4841160455120  0.4219664565971  0.4463719879423 1.0
C      1  0.4163063564206  0.5477877807916  0.3751510274958 1.0
C      1  0.5660298659844  0.5567271712597  0.4221274249390 1.0
C      1  0.5196486326535  0.4038852539745  0.6153111588937 1.0
C      1  0.4318851959930  0.5548357759171  0.6064329693246 1.0
C      1  0.6148765674887  0.5365151568000  0.5866851770513 1.0
C      1  0.6254621932324  0.5225480119595  0.4877613177695 1.0
C      1  0.4663246962405  0.6035280339350  0.5261706037471 1.0
C      1  0.4672002116696  0.4028209980091  0.5345823348788 1.0
END
