TITL C-53910-975-3 -10.393 3375.00 -2082.82910406 0 0 246 (D2d) n - 1
REM
REM Run started: at 2020.11.24 06:53:30 in /rds/project/t2_vol4/rds-t2-cs072/BORA/CARBON/AIRSS/Generating-Clusters/Str-Search/Higher-Symm
REM VASP from code version vasp.5.4.4.18Apr17-6-g9f103f2a35 (build Oct 11 2019 16:45:47) gamma-only
REM
REM
REM
REM
REM ./C.cell (e5ae0387ce4d49c7c0135a1433873289)
REM AIRSS Version 0.9.1 bugfix July 2018 build 013d7b7c2542+ Fri, 06 Jul 2018 19:26:36 +0100
REM compiler GCC version 4.8.5 20150623 (Red Hat 4.8.5-39)
REM options -cpp -mtune=generic -march=x86-64 -g -O0
REM seed -1875618669 856844717 665594818 -1997290388 770763271 225289413 1209016482 -568145393 -299072120 324035060 788059309 1836768318
REM
REM C.POTCAR (d86ddea03c3ceb6dc662c8ad6801f873)
REM 
CELL 1.54180   15.00000   15.00000   15.00000   90.00000   90.00000   90.00000
LATT -1
SFAC C  
C      1  0.9020691777154  0.6186499570597  0.5370498462377 1.0
C      1  0.6201526745675  0.5361092766358  0.9021626182683 1.0
C      1  0.5345730578404  0.8961236789070  0.6181528335014 1.0
C      1  0.9020817117500  0.3819841315873  0.4627982714719 1.0
C      1  0.0982913008727  0.6186423628948  0.4628235070178 1.0
C      1  0.0982835246260  0.3819876354450  0.5371068750485 1.0
C      1  0.6201501475407  0.4646042009114  0.0977850932016 1.0
C      1  0.3802425398376  0.5360632085064  0.0977698209820 1.0
C      1  0.3802842136175  0.4646199779302  0.9021919189909 1.0
C      1  0.5345705239066  0.1044859101642  0.3816727537488 1.0
C      1  0.4658105783155  0.8961204694436  0.3817026332820 1.0
C      1  0.4658212053237  0.1044356969611  0.6182670707239 1.0
C      1  0.8960128248233  0.5347004345549  0.6181355862737 1.0
C      1  0.6185319902375  0.9022257389284  0.5370435453579 1.0
C      1  0.5359458432577  0.6203322955060  0.9021218449678 1.0
C      1  0.8959966889247  0.4659309126504  0.3817105639582 1.0
C      1  0.1043394428504  0.4659450868032  0.6182296163597 1.0
C      1  0.1043697146935  0.5347020810818  0.3817254119371 1.0
C      1  0.6185216991533  0.0983610042030  0.4628337565034 1.0
C      1  0.3818605798575  0.0983684966577  0.5370915202066 1.0
C      1  0.3818694535157  0.9022453236833  0.4628056226065 1.0
C      1  0.5358910903822  0.3803580556160  0.0978116482979 1.0
C      1  0.4644839723512  0.3803964271006  0.9021558561492 1.0
C      1  0.4644676705308  0.6203082067416  0.0978300477434 1.0
C      1  0.3324302910611  0.7360717466153  0.8049429552057 1.0
C      1  0.7361492308531  0.8055249496096  0.3333695681340 1.0
C      1  0.8049232975409  0.3322837844209  0.7351427332682 1.0
C      1  0.3324074077959  0.2645731318922  0.1949493215771 1.0
C      1  0.6679905416703  0.7360810587192  0.1949524571382 1.0
C      1  0.6679747733621  0.2645954744991  0.8049771172244 1.0
C      1  0.7361209530510  0.1951327412206  0.6665271824384 1.0
C      1  0.2642464665332  0.8055030960475  0.6665037811903 1.0
C      1  0.2642402739142  0.1951189168567  0.3334014567793 1.0
C      1  0.8049635920476  0.6683862915109  0.2647319914532 1.0
C      1  0.1954503580767  0.3322550486703  0.2647671841179 1.0
C      1  0.1954563461181  0.6683775448407  0.7351714573929 1.0
C      1  0.3321424908172  0.8050780862460  0.7351228357791 1.0
C      1  0.7359519700145  0.3325776764726  0.8049741725384 1.0
C      1  0.8053479927329  0.7362404398449  0.3333744297526 1.0
C      1  0.3321196551755  0.1955664591685  0.2647713417684 1.0
C      1  0.6682492659108  0.1955841518914  0.7351668992330 1.0
C      1  0.6682660082469  0.8050942215222  0.2647526363697 1.0
C      1  0.7359767764057  0.6681147334948  0.1949232583059 1.0
C      1  0.2644351663686  0.6681119990251  0.8050040451133 1.0
C      1  0.2644233198262  0.3325536685744  0.1949259096663 1.0
C      1  0.8053163837010  0.2644161993185  0.6664956795680 1.0
C      1  0.1950391798059  0.2643867895953  0.3334084964677 1.0
C      1  0.1950524457601  0.7362219234992  0.6665132110185 1.0
C      1  0.8390955291894  0.2983737107823  0.4272518729685 1.0
C      1  0.2980387345579  0.4288214038767  0.8395489592246 1.0
C      1  0.4303482506558  0.8347324455060  0.2998780185890 1.0
C      1  0.8390632038116  0.7022142220527  0.5726147550524 1.0
C      1  0.1612281615990  0.2983619816168  0.5726815637841 1.0
C      1  0.1612834205582  0.7022088543962  0.4272681449040 1.0
C      1  0.2980345887125  0.5718431933869  0.1603931641493 1.0
C      1  0.7023059304483  0.4288114864982  0.1604150796911 1.0
C      1  0.7023387639435  0.5718611531046  0.8394833512913 1.0
C      1  0.4303418562432  0.1658903235941  0.7000898028040 1.0
C      1  0.5700461065714  0.8347555810914  0.6999976328878 1.0
C      1  0.5700484421398  0.1658656293373  0.2998408984144 1.0
C      1  0.8346210933989  0.4305032642497  0.2998776925293 1.0
C      1  0.2982962499543  0.8391677608737  0.4272691287853 1.0
C      1  0.4286317065371  0.2980918689655  0.8396443974513 1.0
C      1  0.8346291554652  0.5701581949570  0.6999916975615 1.0
C      1  0.1657545809634  0.5701549793987  0.2998649550446 1.0
C      1  0.1657638338736  0.4305004338178  0.7000794948394 1.0
C      1  0.2982738789125  0.1614103914907  0.5726559597295 1.0
C      1  0.7020671540536  0.1614418027613  0.4272810591605 1.0
C      1  0.7020500695891  0.8391534279868  0.5725847276407 1.0
C      1  0.4286352310297  0.7025030949040  0.1603093799338 1.0
C      1  0.5717716733718  0.7025387886363  0.8395771121269 1.0
C      1  0.5717561398937  0.2980939627952  0.1603033908548 1.0
C      1  0.8259378624288  0.4926998744853  0.7609508120885 1.0
C      1  0.4930993859058  0.7620353560691  0.8279045866654 1.0
C      1  0.7621683128077  0.8279789485351  0.4942146140544 1.0
C      1  0.8259114786867  0.5079728844676  0.2389287228741 1.0
C      1  0.1744186891555  0.4926932623415  0.2389209799143 1.0
C      1  0.1744647894485  0.5079783575501  0.7610052986080 1.0
C      1  0.4930770154272  0.2385939812719  0.1719466239332 1.0
C      1  0.5073116793223  0.7619865216994  0.1719780626539 1.0
C      1  0.5073296582084  0.2386206968689  0.8279788553332 1.0
C      1  0.7621881280829  0.1725836272701  0.5056585972288 1.0
C      1  0.2381848085304  0.8280011013018  0.5056364741705 1.0
C      1  0.2381907520758  0.1726065089860  0.4942627907595 1.0
C      1  0.8279073919545  0.7623259471789  0.4942172714187 1.0
C      1  0.4925713665808  0.8260443255514  0.7609406138660 1.0
C      1  0.7619410305427  0.4932605343690  0.8279302193237 1.0
C      1  0.8279329664683  0.2382544099162  0.5056459106964 1.0
C      1  0.1724430806493  0.2382739338150  0.4942651988965 1.0
C      1  0.1724229146368  0.7623474251736  0.5056530423067 1.0
C      1  0.4925556629979  0.1745561202779  0.2388981710567 1.0
C      1  0.5078391672524  0.1745999512881  0.7610150886842 1.0
C      1  0.5078343015824  0.8260103712407  0.2389285142830 1.0
C      1  0.7618975402365  0.5074249625737  0.1719689274072 1.0
C      1  0.2384556906895  0.5074481456668  0.8279918118311 1.0
C      1  0.2384193421350  0.4932472882045  0.1719366223405 1.0
C      1  0.5683197727226  0.9044356488341  0.3661431878479 1.0
C      1  0.9061621096039  0.3658704980940  0.5668201112284 1.0
C      1  0.3652332875739  0.5686598726143  0.9070573697605 1.0
C      1  0.5683399156182  0.0961570586098  0.6338049748035 1.0
C      1  0.4320527501397  0.9044375980545  0.6337164902730 1.0
C      1  0.4320476418572  0.0961487376914  0.3661292455741 1.0
C      1  0.9061692020190  0.6347657279016  0.4330453650537 1.0
C      1  0.0941701930981  0.3658748769333  0.4330722085663 1.0
C      1  0.0941884391508  0.6347725870302  0.5668712976518 1.0
C      1  0.3651914139599  0.4320385206935  0.0928720565663 1.0
C      1  0.6351798139296  0.5686361881601  0.0928894341547 1.0
C      1  0.6352067305739  0.4320793157708  0.9070363705616 1.0
C      1  0.5685299104706  0.3654290437785  0.9070393722669 1.0
C      1  0.9043253121621  0.5684476476354  0.3661332179163 1.0
C      1  0.3657207557278  0.9063317720669  0.5668228698618 1.0
C      1  0.5685232352682  0.6352814508333  0.0929140274109 1.0
C      1  0.4319090893714  0.6353111381228  0.9070092751980 1.0
C      1  0.4318452769175  0.3653819403224  0.0928943610766 1.0
C      1  0.9043106982312  0.4321784699514  0.6337329099671 1.0
C      1  0.0960158232870  0.4321927663911  0.3661443277259 1.0
C      1  0.0960272385493  0.5684575439402  0.6337946906713 1.0
C      1  0.3657242578086  0.0942385193416  0.4330558162977 1.0
C      1  0.6346718835783  0.0942643652850  0.5668944754352 1.0
C      1  0.6346688846416  0.9063233458874  0.4330266936674 1.0
C      1  0.2036560549873  0.5404524376603  0.3896731105745 1.0
C      1  0.5423097188423  0.3880110920659  0.1959920639303 1.0
C      1  0.3876778919418  0.1963380384204  0.5420939973014 1.0
C      1  0.2036657464780  0.4601547974411  0.6103001011957 1.0
C      1  0.7966815493258  0.5404319945906  0.6102115439977 1.0
C      1  0.7966637485959  0.4601489976444  0.3896566186914 1.0
C      1  0.5423487801458  0.6126361947894  0.8039124884550 1.0
C      1  0.4580580827571  0.3880015659968  0.8039448888525 1.0
C      1  0.4580614176009  0.6125972797370  0.1960108077502 1.0
C      1  0.3876742093903  0.8042584274496  0.4578507627715 1.0
C      1  0.6126734571724  0.1963244931409  0.4578656072174 1.0
C      1  0.6126585285670  0.8042500320014  0.5420097311792 1.0
C      1  0.1962658380240  0.3877362645831  0.5421245824903 1.0
C      1  0.5403406241831  0.2037725720831  0.3896460382912 1.0
C      1  0.3879821289605  0.5423708834285  0.1959655162990 1.0
C      1  0.1962601509845  0.6128406365112  0.4578460670514 1.0
C      1  0.8040926307782  0.6128427161230  0.5420441943876 1.0
C      1  0.8040917991463  0.3877288408634  0.4578114002370 1.0
C      1  0.5403132325824  0.7967841100742  0.6102287947458 1.0
C      1  0.4600233346711  0.7967643653573  0.3896292845443 1.0
C      1  0.4600372999798  0.2037910961616  0.6103321042767 1.0
C      1  0.3879773947233  0.4582538289670  0.8039819937050 1.0
C      1  0.6123768612159  0.4582540375646  0.1959633709764 1.0
C      1  0.6124073707027  0.5424034614250  0.8039614664280 1.0
C      1  0.6445420832355  0.4820549629753  0.4221708975281 1.0
C      1  0.4795505667805  0.4107591018185  0.6575677181395 1.0
C      1  0.3951841384769  0.6659617749627  0.4651524380529 1.0
C      1  0.6445279329351  0.5184396397255  0.5777071684282 1.0
C      1  0.3557734633798  0.4820816262830  0.5777698123520 1.0
C      1  0.3557363396939  0.5184663843367  0.4221742053886 1.0
C      1  0.4794976004856  0.5897812925042  0.3423628173713 1.0
C      1  0.5208116560519  0.4107182153020  0.3423498254906 1.0
C      1  0.5208175230975  0.5898107728053  0.6575438927450 1.0
C      1  0.3952194598660  0.3345952143885  0.5347707893722 1.0
C      1  0.6051021789007  0.6659469269282  0.5347231203921 1.0
C      1  0.6051225492886  0.3346010237940  0.4651694617340 1.0
C      1  0.6658851788433  0.3953110313023  0.4651165422482 1.0
C      1  0.4819006455969  0.6446182237154  0.4221969998831 1.0
C      1  0.4105992087781  0.4797216472878  0.6576095103255 1.0
C      1  0.6658595941754  0.6052171260642  0.5347687564782 1.0
C      1  0.3344443497473  0.6052290203365  0.4651259880319 1.0
C      1  0.3344395912386  0.3953356345882  0.5348213407672 1.0
C      1  0.4819452864430  0.3559194461169  0.5777328492853 1.0
C      1  0.5183943344505  0.3558916049916  0.4221942123482 1.0
C      1  0.5183650983191  0.6446047890897  0.5776824252447 1.0
C      1  0.4105543838045  0.5208454543540  0.3423179846031 1.0
C      1  0.5897460269934  0.5208437930195  0.6575808713718 1.0
C      1  0.5897278693210  0.4796838554305  0.3423239579940 1.0
C      1  0.8552145208497  0.4126057957990  0.7171575802061 1.0
C      1  0.4127111000816  0.7181773548378  0.8564298808716 1.0
C      1  0.7181240718582  0.8566191917132  0.4138399230978 1.0
C      1  0.8552200764383  0.5880486240736  0.2827232007970 1.0
C      1  0.1451531924396  0.4125963756076  0.2827369232955 1.0
C      1  0.1451512133299  0.5880533697651  0.7172065932111 1.0
C      1  0.4126786207214  0.2824737043406  0.1434552016124 1.0
C      1  0.5877156029617  0.7181497328334  0.1434879703287 1.0
C      1  0.5877206350241  0.2825015882947  0.8564877063518 1.0
C      1  0.7181373889783  0.1439754965681  0.5860610919701 1.0
C      1  0.2822604053364  0.8566122647372  0.5860195397523 1.0
C      1  0.2822674704947  0.1439960093309  0.4138795605394 1.0
C      1  0.8564596416861  0.7182152020463  0.4138417203127 1.0
C      1  0.4124794442206  0.8553101558056  0.7171238398308 1.0
C      1  0.7181042294648  0.4128616084391  0.8564787338184 1.0
C      1  0.8564648975079  0.2823972460474  0.5860276973817 1.0
C      1  0.1439052809954  0.2824058323766  0.4138795743952 1.0
C      1  0.1438855723132  0.7182358346907  0.5860559227340 1.0
C      1  0.4124622991050  0.1453074967548  0.2827469243728 1.0
C      1  0.5879141506882  0.1453039581132  0.7172024247700 1.0
C      1  0.5879098213146  0.8553025382208  0.2827417804179 1.0
C      1  0.7180728711325  0.5878364420055  0.1434440450580 1.0
C      1  0.2823060471763  0.5878528284740  0.8565249771831 1.0
C      1  0.2822771808724  0.4128398612172  0.1434166500402 1.0
C      1  0.7393097085181  0.5964402791236  0.4736978519702 1.0
C      1  0.5936803920110  0.4712813109497  0.7417667145230 1.0
C      1  0.4715701561823  0.7311451760087  0.5849705502493 1.0
C      1  0.7393426418344  0.4041101536929  0.5261583362331 1.0
C      1  0.2610007824708  0.5964252650770  0.5261864033984 1.0
C      1  0.2610031061715  0.4041160882209  0.4737214344251 1.0
C      1  0.5936794734882  0.5293123348176  0.2581781144081 1.0
C      1  0.4066531097827  0.4712525648174  0.2581540143450 1.0
C      1  0.4066635048071  0.5293465808765  0.7417686122965 1.0
C      1  0.4715630208470  0.2693540509163  0.4148996579721 1.0
C      1  0.5287404792657  0.7311369289963  0.4149137408496 1.0
C      1  0.5287840598722  0.2694025303571  0.5850040253573 1.0
C      1  0.7310640320120  0.4716815302927  0.5849550353749 1.0
C      1  0.5962621889942  0.7394219614573  0.4736935692198 1.0
C      1  0.4712493846068  0.5938503449258  0.7417170149659 1.0
C      1  0.7310576214879  0.5288740376011  0.4149260071550 1.0
C      1  0.2692683308946  0.5289022985613  0.5849960222584 1.0
C      1  0.2692153939232  0.4716501606992  0.4149235689225 1.0
C      1  0.5962576839690  0.2611084776569  0.5261661019588 1.0
C      1  0.4040686290359  0.2611362180173  0.4737066199975 1.0
C      1  0.4040517627488  0.7394399132167  0.5261804998935 1.0
C      1  0.4712211157674  0.4067201389977  0.2581829026217 1.0
C      1  0.5291488347655  0.4067257949887  0.7417374736925 1.0
C      1  0.5291065438935  0.5938245448830  0.2582215404472 1.0
C      1  0.6602355998923  0.2728846727724  0.2031942240666 1.0
C      1  0.2727927849811  0.2044128595802  0.6607584835292 1.0
C      1  0.2055334489135  0.6595277071989  0.2727479914063 1.0
C      1  0.6602383524105  0.7277602916664  0.7967018639018 1.0
C      1  0.3401254520724  0.2728712222727  0.7967630135888 1.0
C      1  0.3401438574895  0.7277527887330  0.2031889752017 1.0
C      1  0.2727962427497  0.7962022950766  0.3391781543394 1.0
C      1  0.7275850450639  0.2043858335980  0.3391892337014 1.0
C      1  0.7275479017834  0.7961925553171  0.6606716505834 1.0
C      1  0.2055351925388  0.3410968000489  0.7272001199086 1.0
C      1  0.7948299006293  0.6595355318711  0.7271352976525 1.0
C      1  0.7948386501150  0.3410989627434  0.2727422463517 1.0
C      1  0.6594538625635  0.2056306931905  0.2727501170450 1.0
C      1  0.2728065739117  0.6603310420296  0.2032123496306 1.0
C      1  0.2042609280362  0.2729529287490  0.6607823603098 1.0
C      1  0.6594382693494  0.7949687031463  0.7271179500318 1.0
C      1  0.3409349322732  0.7949679392047  0.2727591641012 1.0
C      1  0.3409215265794  0.2056535056900  0.7271942587854 1.0
C      1  0.2727863529452  0.3403051330585  0.7967440447161 1.0
C      1  0.7275791062114  0.3403082259195  0.2032059901036 1.0
C      1  0.7275797000214  0.6603372760070  0.7966895327722 1.0
C      1  0.2042574561180  0.7276739471007  0.3391727018653 1.0
C      1  0.7960736077803  0.7276738967563  0.6607058292771 1.0
C      1  0.7961078789976  0.2729340309778  0.3391489046518 1.0
C      1  0.5001759736119  0.5002696739896  0.6199219497056 1.0
C      1  0.5001482214816  0.5753573639468  0.4999865292297 1.0
C      1  0.5001737324544  0.5002797983614  0.3800438598464 1.0
C      1  0.5001541512837  0.4251653038938  0.4999861685686 1.0
C      1  0.5752383032540  0.5002536434251  0.4999939341719 1.0
C      1  0.4250773696662  0.5002544205754  0.4999845214619 1.0
END
