TITL C-53939-502-23 -2.36 3375.00 -398.88224729 0 0 48 (Oh) n - 1
REM
REM Run started: at 2020.12.04 07:33:54 in /rds/project/t2_vol4/rds-t2-cs072/BORA/CARBON/AIRSS/Generating-Clusters/Str-Search/Higher-Symm/C10-100
REM VASP from code version vasp.5.4.4.18Apr17-6-g9f103f2a35 (build Oct 11 2019 16:45:47) gamma-only
REM
REM
REM
REM
REM ./C.cell (f39ce9773e2efe3fa5bbdf770a4156b8)
REM AIRSS Version 0.9.1 bugfix July 2018 build 013d7b7c2542+ Fri, 06 Jul 2018 19:26:36 +0100
REM compiler GCC version 4.8.5 20150623 (Red Hat 4.8.5-39)
REM options -cpp -mtune=generic -march=x86-64 -g -O0
REM seed -2114142503 -681567160 -1620459173 394546438 -1654710270 463706619 108453535 -1616604508 -1333911991 257826278 -19079707 -1315274187
REM
REM C.POTCAR (d86ddea03c3ceb6dc662c8ad6801f873)
REM 
CELL 1.54180   15.00000   15.00000   15.00000   90.00000   90.00000   90.00000
LATT -1
SFAC C  
C      1  0.7175963986109  0.4509348308146  0.5490526993862 1.0
C      1  0.4509346730034  0.5490529058428  0.7175963594617 1.0
C      1  0.5490528362838  0.7175963329390  0.4509345494436 1.0
C      1  0.2824036609973  0.4509347514552  0.4509471844451 1.0
C      1  0.2824036094397  0.5490652134446  0.5490528626707 1.0
C      1  0.7175963686200  0.5490652895780  0.4509472091624 1.0
C      1  0.5490652453653  0.5490529257965  0.2824037559775 1.0
C      1  0.5490653265052  0.4509470221063  0.7175963318753 1.0
C      1  0.4509346141234  0.4509470987230  0.2824036062697 1.0
C      1  0.4509471230642  0.7175963219652  0.5490654658427 1.0
C      1  0.4509472119367  0.2824036453245  0.4509346296932 1.0
C      1  0.5490527047779  0.2824035523555  0.5490653645318 1.0
C      1  0.7175971750729  0.5490634064644  0.5490511253785 1.0
C      1  0.4509365104597  0.4509489321889  0.7175971292409 1.0
C      1  0.5490510932110  0.2824028156637  0.4509364596470 1.0
C      1  0.2824028727355  0.5490634552132  0.4509487764491 1.0
C      1  0.2824028186782  0.4509365873743  0.5490511796919 1.0
C      1  0.7175971995235  0.4509365254700  0.4509488927365 1.0
C      1  0.5490633549408  0.4509487664464  0.2824028059076 1.0
C      1  0.5490633448519  0.5490511974468  0.7175973528809 1.0
C      1  0.4509366676707  0.5490510907432  0.2824028032490 1.0
C      1  0.4509486983778  0.2824029093982  0.5490636501764 1.0
C      1  0.4509489307735  0.7175972212091  0.4509363003800 1.0
C      1  0.5490511262311  0.7175971996288  0.5490635140878 1.0
C      1  0.6062969709164  0.6735729091238  0.6063426050531 1.0
C      1  0.6735729583282  0.6063426122676  0.6062968863011 1.0
C      1  0.6063425996834  0.6062969841862  0.6735728709937 1.0
C      1  0.3937030560578  0.6735729372129  0.3936574776289 1.0
C      1  0.3937032908556  0.3264268676283  0.6063424662472 1.0
C      1  0.6062968963174  0.3264269910293  0.3936574350194 1.0
C      1  0.3264269886202  0.6063425380761  0.3937030732748 1.0
C      1  0.3264269030852  0.3936575077208  0.6062968732626 1.0
C      1  0.6735729260965  0.3936574784885  0.3937030079948 1.0
C      1  0.3936573554155  0.6062969284224  0.3264270963965 1.0
C      1  0.3936574922138  0.3937029878951  0.6735729478617 1.0
C      1  0.6063426301552  0.3937030717902  0.3264270560590 1.0
C      1  0.6062940907755  0.3264229226348  0.6063397640168 1.0
C      1  0.6735771389447  0.3936600530076  0.6062939145744 1.0
C      1  0.6063397677026  0.3937061305386  0.6735772899769 1.0
C      1  0.3937062308614  0.3264227237527  0.3936603129637 1.0
C      1  0.3937061510893  0.6735772238557  0.6063397603702 1.0
C      1  0.6062937909971  0.6735773072318  0.3936603340299 1.0
C      1  0.3264227144557  0.3936603126326  0.3937062275035 1.0
C      1  0.3264228569760  0.6063397460473  0.6062939280312 1.0
C      1  0.6735773211363  0.6063397482015  0.3937061682364 1.0
C      1  0.3936604345458  0.3937062700667  0.3264226961807 1.0
C      1  0.3936602188889  0.6062939448181  0.6735771308417 1.0
C      1  0.6063396506272  0.6062938057794  0.3264226685964 1.0
END
