TITL C-53939-502-29 -2.133 3375.00 -340.70262950 0 0 43 (C1) n - 1
REM
REM Run started: at 2020.12.04 10:11:14 in /rds/project/t2_vol4/rds-t2-cs072/BORA/CARBON/AIRSS/Generating-Clusters/Str-Search/Higher-Symm/C10-100
REM VASP from code version vasp.5.4.4.18Apr17-6-g9f103f2a35 (build Oct 11 2019 16:45:47) gamma-only
REM
REM
REM
REM
REM ./C.cell (f39ce9773e2efe3fa5bbdf770a4156b8)
REM AIRSS Version 0.9.1 bugfix July 2018 build 013d7b7c2542+ Fri, 06 Jul 2018 19:26:36 +0100
REM compiler GCC version 4.8.5 20150623 (Red Hat 4.8.5-39)
REM options -cpp -mtune=generic -march=x86-64 -g -O0
REM seed 1636337110 -2097349626 -304803776 873355835 -1911690234 1676246596 104303139 1173159610 -1058012676 -610022779 -1608537903 -1820364223
REM
REM C.POTCAR (d86ddea03c3ceb6dc662c8ad6801f873)
REM 
CELL 1.54180   15.00000   15.00000   15.00000   90.00000   90.00000   90.00000
LATT -1
SFAC C  
C      1  0.6089062164544  0.4509926876411  0.6617066839234 1.0
C      1  0.7013884348654  0.6025554390668  0.5157045501759 1.0
C      1  0.6641935149127  0.4456425258460  0.3872532829259 1.0
C      1  0.5141036213315  0.6023423486995  0.2969807779105 1.0
C      1  0.3839096500085  0.4518841102534  0.3315767645706 1.0
C      1  0.2933958077785  0.6010610937339  0.4836355514847 1.0
C      1  0.3292840209260  0.4481382457044  0.6127506385531 1.0
C      1  0.4820867746879  0.6035596655146  0.7011566671188 1.0
C      1  0.5433340143401  0.3346941331983  0.4433242155617 1.0
C      1  0.4661103309600  0.6556909902297  0.4329570255823 1.0
C      1  0.4396494100308  0.3423924548543  0.4522485326364 1.0
C      1  0.4312878835851  0.6521226109597  0.5301344264460 1.0
C      1  0.4491368737520  0.3391796640223  0.5551293523784 1.0
C      1  0.5295705970500  0.6585685833029  0.5650553032029 1.0
C      1  0.5519395479952  0.3344565427720  0.5449837703311 1.0
C      1  0.5631973802236  0.6586672362374  0.4687364423721 1.0
C      1  0.2973670225948  0.5770006164793  0.4035497941966 1.0
C      1  0.2789772684580  0.4188035013243  0.5413442883581 1.0
C      1  0.4039799300402  0.5735780236580  0.6983232538884 1.0
C      1  0.5380189352126  0.4212002716353  0.7130926596191 1.0
C      1  0.7000346941690  0.5778635082070  0.5960743638430 1.0
C      1  0.7175457537188  0.4136571315839  0.4554344929961 1.0
C      1  0.5921557806805  0.5727596634952  0.3014621916098 1.0
C      1  0.4555104712337  0.4203849904583  0.2821597568534 1.0
C      1  0.4613136935099  0.3912045380865  0.6991150763089 1.0
C      1  0.6314160895669  0.5467589419015  0.6491584955749 1.0
C      1  0.6973966892954  0.3899654973693  0.5335526880397 1.0
C      1  0.6467973830042  0.5417204485462  0.3693724433245 1.0
C      1  0.5317993395449  0.3906622129189  0.2998598231007 1.0
C      1  0.3638937657345  0.5471757433002  0.3468326926845 1.0
C      1  0.2947365587430  0.3940997880739  0.4628026842008 1.0
C      1  0.3461466620796  0.5432569227803  0.6327026527137 1.0
C      1  0.4000735405915  0.3807891954353  0.6322258536009 1.0
C      1  0.5581352262545  0.6145686242100  0.6522195528798 1.0
C      1  0.6300831287015  0.3815423909471  0.5933994681822 1.0
C      1  0.6507490106989  0.6105978892745  0.4412593034550 1.0
C      1  0.5933419806434  0.3786054374784  0.3657428682895 1.0
C      1  0.4379369142450  0.6135908772563  0.3457764403857 1.0
C      1  0.3624049291365  0.3859296101508  0.4026164576821 1.0
C      1  0.3436945933977  0.6095919622143  0.5590583303288 1.0
C      1  0.4982371921120  0.4140660966137  0.4975577345573 1.0
C      1  0.4989254563753  0.5798833565901  0.4998623270066 1.0
C      1  0.5267731113561  0.4968446279748  0.5011025211464 1.0
END
