TITL C-54270-8451-8 -5.461 3375.00 -918.19300016 0 0 113 (C1) n - 1
REM
REM Run started: at 2020.12.17 14:23:49 in /rds/project/t2_vol4/rds-t2-cs072/BORA/CARBON/AIRSS/Generating-Clusters/Str-Search/Higher-Symm/C100-200
REM VASP from code version vasp.5.4.4.18Apr17-6-g9f103f2a35 (build Oct 11 2019 16:45:47) gamma-only
REM
REM
REM
REM
REM ./C.cell (533062f00bc710175b3da973d35f2034)
REM AIRSS Version 0.9.1 bugfix July 2018 build 013d7b7c2542+ Fri, 06 Jul 2018 19:26:36 +0100
REM compiler GCC version 4.8.5 20150623 (Red Hat 4.8.5-39)
REM options -cpp -mtune=generic -march=x86-64 -g -O0
REM seed -125919178 1380972015 1041097713 996517530 -117893335 1929579704 21787755 1389991902 -634404284 64414042 504347625 1663254871
REM
REM C.POTCAR (d86ddea03c3ceb6dc662c8ad6801f873)
REM 
CELL 1.54180   15.00000   15.00000   15.00000   90.00000   90.00000   90.00000
LATT -1
SFAC C  
C      1  0.8315358325008  0.4588193134108  0.6624500630228 1.0
C      1  0.1911123388195  0.4451651989794  0.3255495651105 1.0
C      1  0.8019505371153  0.5487118641687  0.3253294369760 1.0
C      1  0.1863743735908  0.5572462355951  0.6664210278004 1.0
C      1  0.4006441208251  0.6054342231858  0.4404927799698 1.0
C      1  0.5928674296599  0.6137791065785  0.5770049775636 1.0
C      1  0.4217709315120  0.3867156246915  0.5641996037104 1.0
C      1  0.6192121289871  0.3636361815486  0.4576879387763 1.0
C      1  0.5382844763010  0.5283780611572  0.7733034234717 1.0
C      1  0.4499031551204  0.5217147160951  0.2202399371671 1.0
C      1  0.5480604167371  0.4800791196469  0.2184057724127 1.0
C      1  0.4557650989866  0.4853655988790  0.7617753268589 1.0
C      1  0.7572848795023  0.3033457766777  0.3685648863786 1.0
C      1  0.2565368844929  0.3203917748029  0.5795142840648 1.0
C      1  0.7489344674994  0.6924143622924  0.5931738557874 1.0
C      1  0.2521990278173  0.6861390910875  0.4066531948165 1.0
C      1  0.3511241891096  0.3177233423743  0.5811703385549 1.0
C      1  0.6750413461961  0.2820768889560  0.4223770645376 1.0
C      1  0.3473013255791  0.6865081277336  0.4074633826645 1.0
C      1  0.6537681734988  0.6930815022211  0.5994254794571 1.0
C      1  0.5060753403503  0.3954844446272  0.2192915858177 1.0
C      1  0.4660913579793  0.3881747972786  0.7342994341003 1.0
C      1  0.5035374942001  0.6169076496012  0.7414862876461 1.0
C      1  0.4921724774876  0.6058590191991  0.2209817987093 1.0
C      1  0.8179563849136  0.7067709951656  0.4436092942295 1.0
C      1  0.1734840275197  0.7132501056149  0.5513954419883 1.0
C      1  0.7932085621673  0.3139796088639  0.5408257019181 1.0
C      1  0.1789966146865  0.2859788091411  0.4344958166539 1.0
C      1  0.5986317062993  0.7179903313462  0.3395716264933 1.0
C      1  0.3864336960751  0.7282425063439  0.6699239878048 1.0
C      1  0.5807568963005  0.2206220963707  0.6750723317071 1.0
C      1  0.4012667823724  0.2778613715364  0.3305208543637 1.0
C      1  0.2316327432558  0.2577446947883  0.5083092681049 1.0
C      1  0.7680312528856  0.2825827568546  0.4559349926778 1.0
C      1  0.2272302504805  0.7453405797663  0.4798688505799 1.0
C      1  0.7691135698023  0.7468043634305  0.5156452259894 1.0
C      1  0.5009346107061  0.3165095901424  0.7773571739873 1.0
C      1  0.5056412453289  0.3022372434189  0.2123930583394 1.0
C      1  0.4893203220163  0.7000037561596  0.2211772969168 1.0
C      1  0.5014464825243  0.7095578123467  0.7749848444691 1.0
C      1  0.4428954671866  0.7605140809887  0.7449135967819 1.0
C      1  0.5484662563279  0.7444865207836  0.2602323077269 1.0
C      1  0.4467349941336  0.2533972207404  0.2468785260011 1.0
C      1  0.5479396678595  0.2474163727552  0.7549599922451 1.0
C      1  0.8257169414246  0.5519756461707  0.6609019216693 1.0
C      1  0.2070284720017  0.5362890405670  0.3343798960102 1.0
C      1  0.7870395026569  0.4582530364808  0.3073593711945 1.0
C      1  0.2077725976800  0.4674180567384  0.6564213108867 1.0
C      1  0.1139067780704  0.4088766370586  0.3665019115783 1.0
C      1  0.8952310953368  0.4049331064984  0.6217409333023 1.0
C      1  0.1098050741310  0.5885973550630  0.6204517554219 1.0
C      1  0.8767422627490  0.5781404652495  0.3755843244280 1.0
C      1  0.4974386247540  0.6097015378095  0.4116069168373 1.0
C      1  0.5078557218393  0.6211221368667  0.6354593987177 1.0
C      1  0.4947707957334  0.3723789541166  0.6351022415445 1.0
C      1  0.5300717904329  0.3553884103070  0.4204839321942 1.0
C      1  0.5233868467140  0.2120506873099  0.4543634559248 1.0
C      1  0.4817064734442  0.2270933736337  0.5399854481257 1.0
C      1  0.5182601093195  0.7726931447838  0.5497057251869 1.0
C      1  0.4767276507907  0.7711077344671  0.4606880483042 1.0
C      1  0.6815064053368  0.4491359764200  0.7247417673083 1.0
C      1  0.3616777240542  0.3897797449588  0.3136530549952 1.0
C      1  0.6347267729999  0.6075387378895  0.3170062086086 1.0
C      1  0.3421773388786  0.6324761451075  0.7106420434302 1.0
C      1  0.6816818346021  0.7806878062436  0.4812751515374 1.0
C      1  0.3118704406695  0.7819290640652  0.5183013197959 1.0
C      1  0.6435876691886  0.1642622406151  0.5378570515892 1.0
C      1  0.3179623442264  0.2222790386306  0.4722139326634 1.0
C      1  0.6124929709628  0.5155711717889  0.5641813432285 1.0
C      1  0.3837838609235  0.5055519192290  0.4510820341272 1.0
C      1  0.6083154238859  0.4808772135009  0.4619306973790 1.0
C      1  0.4322066373121  0.4850904785895  0.5384622699296 1.0
C      1  0.3120718151631  0.7639752325360  0.6116761429756 1.0
C      1  0.6769393582346  0.7552790909546  0.3899530087908 1.0
C      1  0.3221391287462  0.2418145241980  0.3801947765510 1.0
C      1  0.6309480112122  0.1590739319240  0.6209686554633 1.0
C      1  0.3887456007414  0.2387806202435  0.5385729900849 1.0
C      1  0.6184083035340  0.2022559244150  0.4544442296682 1.0
C      1  0.3845162679598  0.7655218085113  0.4532575817482 1.0
C      1  0.6122053110991  0.7685372146116  0.5522063132818 1.0
C      1  0.7531871137877  0.7002297869778  0.3710853481176 1.0
C      1  0.2335877701764  0.7108285340491  0.6281849948361 1.0
C      1  0.7213695681304  0.3477289447580  0.5974954510438 1.0
C      1  0.2427873600777  0.2923956977711  0.3599306374446 1.0
C      1  0.5416107812059  0.2839295666202  0.6047656333515 1.0
C      1  0.4764748614600  0.2814790013219  0.3979540548939 1.0
C      1  0.5325861328543  0.7018768796960  0.4133915970344 1.0
C      1  0.4597265468123  0.7035448072584  0.5993084335762 1.0
C      1  0.2585757669535  0.3748571668991  0.3166722449672 1.0
C      1  0.7443929091634  0.4117383149105  0.6658083670456 1.0
C      1  0.2494866398665  0.6318449711211  0.6796759960552 1.0
C      1  0.7359564372793  0.6199042485196  0.3242806872136 1.0
C      1  0.4172530598488  0.4370314374159  0.2427229046777 1.0
C      1  0.6226840311890  0.4890574290327  0.7662148130234 1.0
C      1  0.4068470603183  0.5741523206880  0.7433254214585 1.0
C      1  0.5813003156173  0.5644962422490  0.2414460910627 1.0
C      1  0.2129809720704  0.6124806085339  0.3660845050794 1.0
C      1  0.7984748471334  0.6245009792520  0.6327603813738 1.0
C      1  0.2168588347939  0.3928907372652  0.6213136559672 1.0
C      1  0.7801077573966  0.3765226546507  0.3174917440890 1.0
C      1  0.8767371903518  0.3410453593907  0.5712982798125 1.0
C      1  0.1076419425596  0.3443928844467  0.4188439743812 1.0
C      1  0.8840920827412  0.6424369763169  0.4283158387383 1.0
C      1  0.1059251840951  0.6501360981304  0.5642833288470 1.0
C      1  0.4334580599493  0.5650268299046  0.5924950060579 1.0
C      1  0.5914123359422  0.5649174386461  0.4036540102164 1.0
C      1  0.3858454160365  0.4276486669669  0.4048075214537 1.0
C      1  0.5734836982781  0.4268560370761  0.5952243531697 1.0
C      1  0.5725034933701  0.6329857820778  0.4748162308959 1.0
C      1  0.4117524282540  0.6338838436925  0.5392150557452 1.0
C      1  0.6233758312850  0.3469021702370  0.5622971117323 1.0
C      1  0.4439380777619  0.3664288384043  0.4597361627808 1.0
C      1  0.5324944997202  0.4765299008205  0.5218776650211 1.0
END
