TITL C-55605-4846-8 -5.487 3375.00 -946.18065019 0 0 116 (C1) n - 1
REM
REM Run started: at 2020.12.22 05:52:18 in /rds/project/t2_vol4/rds-t2-cs072/BORA/CARBON/AIRSS/Generating-Clusters/Str-Search/Higher-Symm/C100-200
REM VASP from code version vasp.5.4.4.18Apr17-6-g9f103f2a35 (build Oct 11 2019 16:45:47) gamma-only
REM
REM
REM
REM
REM ./C.cell (533062f00bc710175b3da973d35f2034)
REM AIRSS Version 0.9.1 bugfix July 2018 build 013d7b7c2542+ Fri, 06 Jul 2018 19:26:36 +0100
REM compiler GCC version 4.8.5 20150623 (Red Hat 4.8.5-39)
REM options -cpp -mtune=generic -march=x86-64 -g -O0
REM seed 1045123875 -1090933498 681758954 -1545074241 -285762638 -1729153752 -396716643 2122104408 -1498164689 1503756718 353504078 399885602
REM
REM C.POTCAR (d86ddea03c3ceb6dc662c8ad6801f873)
REM 
CELL 1.54180   15.00000   15.00000   15.00000   90.00000   90.00000   90.00000
LATT -1
SFAC C  
C      1  0.5008562784938  0.5328892745044  0.8400139029572 1.0
C      1  0.5186892964953  0.7129040703288  0.7798845222833 1.0
C      1  0.6074193818145  0.7182270966637  0.2660685126323 1.0
C      1  0.5393538765170  0.3613262477526  0.1579832159853 1.0
C      1  0.5545169300078  0.2107340794451  0.6324231784714 1.0
C      1  0.4643178165500  0.1458324064797  0.4154498590748 1.0
C      1  0.4015613436533  0.3416902158068  0.5751101376065 1.0
C      1  0.5951347437180  0.6553330543208  0.7983228784454 1.0
C      1  0.3722218021447  0.4816349863231  0.1934795424421 1.0
C      1  0.6434435090541  0.4219362252832  0.8644346010293 1.0
C      1  0.5763048662764  0.3072922547554  0.2229247585219 1.0
C      1  0.6651886275780  0.4987181430858  0.8150752163668 1.0
C      1  0.4324262962293  0.6842943460310  0.7782163786644 1.0
C      1  0.7608214931111  0.3668409062241  0.4087429606548 1.0
C      1  0.5232363464154  0.1478880705426  0.4873088077120 1.0
C      1  0.4109797939908  0.7915778746571  0.4748671053980 1.0
C      1  0.4835122806527  0.1810732929433  0.5704641152296 1.0
C      1  0.2839614140517  0.6837653770900  0.7044000646858 1.0
C      1  0.5991727148984  0.5332848616641  0.4770097122827 1.0
C      1  0.4144606744939  0.7679129954468  0.6345107697800 1.0
C      1  0.5984430564510  0.3548576021183  0.5515028554349 1.0
C      1  0.5624307087837  0.7534277709926  0.7036872860286 1.0
C      1  0.4286312800810  0.3936469782764  0.7755799354583 1.0
C      1  0.2834270723099  0.3611381714024  0.2576556594295 1.0
C      1  0.4665309521399  0.3158778803863  0.7384271873778 1.0
C      1  0.6328200487111  0.7151004808346  0.5193293010091 1.0
C      1  0.4079003681745  0.8056398633950  0.3714093320516 1.0
C      1  0.7348887548783  0.4059768352000  0.6959028008832 1.0
C      1  0.6861054389211  0.3029254967729  0.5620307921723 1.0
C      1  0.4031491211379  0.1746666578391  0.3668929436104 1.0
C      1  0.4344914524719  0.4160789253300  0.3556422693255 1.0
C      1  0.2898553645647  0.4528970618293  0.2312215854942 1.0
C      1  0.3514246361093  0.5654466634784  0.5631734210665 1.0
C      1  0.6422824583141  0.6964901591561  0.7266133690734 1.0
C      1  0.4214103113813  0.6923745189536  0.4435933489334 1.0
C      1  0.5012409711663  0.8255206907350  0.3702366508363 1.0
C      1  0.2370211737383  0.6899129301833  0.6183996862329 1.0
C      1  0.5216972232475  0.3265708725513  0.4914330190562 1.0
C      1  0.7334767833537  0.6271228319583  0.4333673888003 1.0
C      1  0.2641169599309  0.6039169583364  0.7512682256628 1.0
C      1  0.3936991545892  0.3942028242098  0.4317061276022 1.0
C      1  0.7027427995932  0.6560393411747  0.6695186865016 1.0
C      1  0.2698135762694  0.7479769624860  0.5557310176843 1.0
C      1  0.6479000435530  0.2431856784163  0.4134029986652 1.0
C      1  0.7156882491535  0.3075032698187  0.4614516368047 1.0
C      1  0.7405423867292  0.5406754630738  0.5777242702574 1.0
C      1  0.5911198567795  0.5657979126949  0.8284630262447 1.0
C      1  0.4190235929081  0.5789856751444  0.6228406553360 1.0
C      1  0.7522131743930  0.6222328849628  0.5269622073108 1.0
C      1  0.6670230328323  0.6920565109260  0.4256472663449 1.0
C      1  0.3617851861890  0.4585276423751  0.7320453884073 1.0
C      1  0.6644704491488  0.4990027304269  0.5466929755294 1.0
C      1  0.4543978670777  0.5762670613567  0.3851419906315 1.0
C      1  0.1990853858979  0.5989545946242  0.5909878793574 1.0
C      1  0.5931025045239  0.4950178982766  0.3863424341616 1.0
C      1  0.5663913401402  0.7830275623199  0.3135395588706 1.0
C      1  0.5272249697987  0.3141594569262  0.3112218422642 1.0
C      1  0.4008557394698  0.6170202106569  0.3086603539837 1.0
C      1  0.4856976337929  0.4361129396577  0.8412175849113 1.0
C      1  0.3107194839110  0.3782629916119  0.5929878536680 1.0
C      1  0.5072478809520  0.8219623996225  0.4703943357795 1.0
C      1  0.4489165582206  0.2681829230290  0.5474332100957 1.0
C      1  0.2304248576914  0.3511200468754  0.3380140540758 1.0
C      1  0.7347104567100  0.6113114423196  0.2262933133189 1.0
C      1  0.4919961689850  0.5038648852885  0.2482048227748 1.0
C      1  0.7325075741641  0.3479119728174  0.6373402113232 1.0
C      1  0.7187212503811  0.4928959458593  0.7356349085780 1.0
C      1  0.6737160237623  0.4813841214131  0.3504938520613 1.0
C      1  0.4415727258822  0.3561030864679  0.2794303710417 1.0
C      1  0.7355748265276  0.4076861025171  0.3212969640847 1.0
C      1  0.2629513421742  0.3856640357866  0.5092523175259 1.0
C      1  0.7307094104697  0.5631255127224  0.6731264459957 1.0
C      1  0.4198354673522  0.5595245972509  0.2296715384101 1.0
C      1  0.4267965523610  0.5871913295107  0.7989891194126 1.0
C      1  0.3736951361433  0.7204210505553  0.7093692663701 1.0
C      1  0.4656299450092  0.4175800206718  0.2007489872990 1.0
C      1  0.1971164929919  0.5279829106303  0.5320336337833 1.0
C      1  0.7522694962350  0.5479098415372  0.3759714680825 1.0
C      1  0.6491616836632  0.2498989312461  0.2477463277817 1.0
C      1  0.7079178851281  0.6864997831397  0.5785162114812 1.0
C      1  0.5634959431757  0.6259342203552  0.5005183108097 1.0
C      1  0.5595233762074  0.7840869424231  0.5372465126928 1.0
C      1  0.8130766377073  0.4585418137863  0.2892221292471 1.0
C      1  0.2446268564999  0.5903048019780  0.3174011510080 1.0
C      1  0.7808983905035  0.5517631553967  0.2800295266250 1.0
C      1  0.2342773079945  0.5013646080095  0.3014755738463 1.0
C      1  0.5139091508997  0.7741743572935  0.6262575228481 1.0
C      1  0.6747618535528  0.6702564641642  0.2246077932687 1.0
C      1  0.4161914976725  0.5420996476713  0.7090119556067 1.0
C      1  0.5228481653930  0.2629953451250  0.7040940340628 1.0
C      1  0.3355548760628  0.5483092042308  0.7777015529704 1.0
C      1  0.3427909586233  0.2342309973194  0.3300602767128 1.0
C      1  0.3007957098195  0.4458431351118  0.6546436287302 1.0
C      1  0.5646002032230  0.3960090903024  0.8699719517373 1.0
C      1  0.4542818083233  0.4047272143755  0.5089228831131 1.0
C      1  0.6155623770504  0.1798476159609  0.4884579628719 1.0
C      1  0.3151087229112  0.3354711853158  0.4446442798100 1.0
C      1  0.4079538426252  0.5965297861407  0.4813704721747 1.0
C      1  0.2068396198696  0.4533488150106  0.4700688203358 1.0
C      1  0.3566770312813  0.7835853497825  0.5585156800847 1.0
C      1  0.5577796515399  0.3004611141119  0.3980821877124 1.0
C      1  0.2694480060306  0.5274492578028  0.6010080808342 1.0
C      1  0.8081576543079  0.4538216676842  0.3896659152184 1.0
C      1  0.5154719854585  0.6539431865094  0.4147696289393 1.0
C      1  0.4850971334793  0.5795191482901  0.5496342538297 1.0
C      1  0.3039161365299  0.6519430970751  0.3273652354450 1.0
C      1  0.2724068295884  0.2750092733751  0.3861268017075 1.0
C      1  0.5929525995358  0.4417781851300  0.5789284314983 1.0
C      1  0.5915404642509  0.6973017064156  0.3626387255456 1.0
C      1  0.3762852222373  0.7096373783656  0.3488067359019 1.0
C      1  0.6723012366919  0.2185954741285  0.3210942138905 1.0
C      1  0.6355299970232  0.2140640155938  0.5739461473658 1.0
C      1  0.5007070541424  0.4936573975450  0.3481098345762 1.0
C      1  0.5164382234768  0.4845641957169  0.5335678553811 1.0
C      1  0.2059446371700  0.4384857070688  0.3711051887907 1.0
C      1  0.3583576555740  0.3023695659560  0.2646244328339 1.0
END
