TITL C-5542-9635-31 -6.211 3375.00 -1108.65766420 0 0 134 (C1) n - 1
REM
REM Run started: at 2021.01.03 08:54:20 in /gpfs/home/chem/mssmkc/CARBON/AIRSS/Generating-Clusters/Str-Search/Higher-Symm/C100-200
REM VASP from code version vasp.5.4.4.18Apr17-6-g9f103f2a35 (build Oct 11 2019 16:45:47) gamma-only
REM
REM
REM
REM
REM ./C.cell (533062f00bc710175b3da973d35f2034)
REM AIRSS Version 0.9.1 bugfix July 2018 build 013d7b7c2542+ Fri, 06 Jul 2018 19:26:36 +0100
REM compiler GCC version 6.3.0
REM options -cpp -iprefix /gpfs/warwick/csc/orac/software/Core/GCCcore/6.3.0/bin/../lib/gcc/x86_64-pc-linux-gnu/6.3.0/ -mtune=generic -march=x86-64 -g -O0
REM seed -2089860454 -278321371 -7575391 -1627236966 -1724119426 -1161332875 -1678530715 747744596 799798268 -580855512 1515635634 -469459314
REM
REM C.POTCAR (d86ddea03c3ceb6dc662c8ad6801f873)
REM 
CELL 1.54180   15.00000   15.00000   15.00000   90.00000   90.00000   90.00000
LATT -1
SFAC C  
C      1  0.3101675287973  0.4641754212769  0.7694614807364 1.0
C      1  0.2542589148101  0.2874384360516  0.5889685316617 1.0
C      1  0.3041446092219  0.2501922248536  0.4039569887514 1.0
C      1  0.2521164173730  0.4563817494198  0.2604049794688 1.0
C      1  0.2502008524630  0.6802852008375  0.3109470260528 1.0
C      1  0.2419941382159  0.7597144617593  0.5273312134719 1.0
C      1  0.2440129974663  0.6062958421661  0.7053702494991 1.0
C      1  0.5531017572029  0.4359739554488  0.8021460411323 1.0
C      1  0.5508958055243  0.2251984701157  0.6391421849348 1.0
C      1  0.5537364428659  0.2150125481319  0.3688521873096 1.0
C      1  0.5467335596471  0.4236023237127  0.1963169802645 1.0
C      1  0.5480656184253  0.6880118155161  0.2577086941649 1.0
C      1  0.5421207997863  0.8077081279720  0.5032895183454 1.0
C      1  0.5470156845601  0.6927042864602  0.7462870274024 1.0
C      1  0.7016265832185  0.2489014659539  0.4227951195226 1.0
C      1  0.7018636908208  0.3916940393510  0.2387195579550 1.0
C      1  0.6963641947760  0.6199626186283  0.2766916511176 1.0
C      1  0.6884403474726  0.7503376067478  0.4807813943289 1.0
C      1  0.6907106520691  0.6980809519301  0.6794768807555 1.0
C      1  0.6985423713495  0.4865857409654  0.7562940037058 1.0
C      1  0.7035248558958  0.2957105371334  0.6588795823341 1.0
C      1  0.1746568197269  0.6715138808208  0.3693004056796 1.0
C      1  0.1677066510019  0.7030942851974  0.5501460464517 1.0
C      1  0.1739796192859  0.5528088182759  0.6711265664109 1.0
C      1  0.1886126220827  0.4535144449733  0.6679987403919 1.0
C      1  0.1919839751138  0.3160558205525  0.5284777721810 1.0
C      1  0.1805566313357  0.3495140888575  0.3653280723272 1.0
C      1  0.1776997994648  0.5081672603745  0.2906869102775 1.0
C      1  0.4637871981757  0.3183095671587  0.2729072527506 1.0
C      1  0.4628102149665  0.5631527291776  0.2194935852783 1.0
C      1  0.4585893586270  0.7570289105294  0.3797152734434 1.0
C      1  0.4546800939594  0.7543836360511  0.6323970368310 1.0
C      1  0.4678412664648  0.5638584187744  0.8037570037433 1.0
C      1  0.4664623509949  0.3186466883322  0.7291519676842 1.0
C      1  0.4641232664411  0.2078967124140  0.5018869325158 1.0
C      1  0.4113639217974  0.4744540207491  0.7840017254692 1.0
C      1  0.4077534318714  0.2941870082403  0.6582956421980 1.0
C      1  0.4077890694014  0.2471611752963  0.4238575678604 1.0
C      1  0.4067048447494  0.3951181219160  0.2609498965985 1.0
C      1  0.4073797690228  0.6267357775712  0.2661900744897 1.0
C      1  0.4010997047270  0.7633886818971  0.4586305601796 1.0
C      1  0.3998610002435  0.6925313510426  0.6843319175392 1.0
C      1  0.1362428880688  0.5116988943904  0.3744420440829 1.0
C      1  0.1358658345103  0.6027665584346  0.4194170616049 1.0
C      1  0.1323912428074  0.6218478804215  0.5179543699287 1.0
C      1  0.1294703045259  0.5531114295763  0.5851275072880 1.0
C      1  0.1413491754806  0.4578882318865  0.5799076627241 1.0
C      1  0.1509989924903  0.3998117489022  0.5086468903560 1.0
C      1  0.1431614213842  0.4208525710702  0.4140248691460 1.0
C      1  0.3333960031959  0.4705408443178  0.3980639760927 1.0
C      1  0.3249393076877  0.5636324049412  0.3968414519648 1.0
C      1  0.3217106933378  0.6220568908966  0.4767579974827 1.0
C      1  0.3312225591216  0.6003627053789  0.5667912839239 1.0
C      1  0.3795359656621  0.5184789180540  0.6069210815674 1.0
C      1  0.3459402834830  0.4292421542425  0.5682614949232 1.0
C      1  0.3458471465631  0.4149476607977  0.4764883629479 1.0
C      1  0.7852755135845  0.4065468076213  0.2705724017371 1.0
C      1  0.7460496033706  0.5781732512549  0.3606886654220 1.0
C      1  0.7448102306805  0.6773987483486  0.5238513727034 1.0
C      1  0.7617133903695  0.6667762453460  0.6237626203182 1.0
C      1  0.7731820114063  0.4640293110043  0.7039616686260 1.0
C      1  0.7578053109009  0.3833242660197  0.6400895887714 1.0
C      1  0.7530408059232  0.3403548843840  0.4544983432583 1.0
C      1  0.8304362169813  0.4211199476428  0.5777997595950 1.0
C      1  0.8335646533592  0.4013800116255  0.4850121335293 1.0
C      1  0.8456186304951  0.4311416113099  0.3254054855733 1.0
C      1  0.8278027581614  0.5612514578658  0.4230926389444 1.0
C      1  0.8219094835773  0.6112433331846  0.5028708269152 1.0
C      1  0.8260522334219  0.5924171670862  0.6006139803761 1.0
C      1  0.8314617261642  0.5034486718419  0.6343437268399 1.0
C      1  0.2551133943838  0.5448134932203  0.2461239821965 1.0
C      1  0.2473573689700  0.7361399211466  0.3798696072838 1.0
C      1  0.2395738476660  0.7288286091763  0.6108720848195 1.0
C      1  0.2999661782587  0.5579642961612  0.7564206952731 1.0
C      1  0.2622605319313  0.4066238300176  0.7039014581131 1.0
C      1  0.2731167049302  0.2659625614423  0.4972909175392 1.0
C      1  0.2626928240072  0.3192210346904  0.3429619315585 1.0
C      1  0.5029794088392  0.5872287116213  0.5082022134363 1.0
C      1  0.4824030796349  0.5204472359806  0.5830910724127 1.0
C      1  0.5192503841491  0.4275590198435  0.5831028387026 1.0
C      1  0.5301359508804  0.3751314760230  0.5078445316822 1.0
C      1  0.5304152874460  0.4075964417277  0.4179367388378 1.0
C      1  0.5259086077975  0.4944586446604  0.3784491263383 1.0
C      1  0.5179555177993  0.5801290827506  0.4171179222452 1.0
C      1  0.6707489902111  0.5843633347785  0.4267559652334 1.0
C      1  0.6704517856594  0.6028237209261  0.5220492344816 1.0
C      1  0.6619611572510  0.5303557582548  0.5906237256869 1.0
C      1  0.6767774914106  0.4342601002142  0.5908811702615 1.0
C      1  0.6786635055341  0.3793267080858  0.5096762543579 1.0
C      1  0.6885190438522  0.4083731830311  0.4176037122546 1.0
C      1  0.6856918728789  0.5000746267993  0.3810828365981 1.0
C      1  0.6328924290451  0.4685855043239  0.2228740577356 1.0
C      1  0.6317845306729  0.6896488701393  0.3097962518905 1.0
C      1  0.6286433340395  0.7876237221835  0.5434527818785 1.0
C      1  0.6368785875135  0.6539196468210  0.7502680879419 1.0
C      1  0.6304591960511  0.4127977532078  0.7495906309997 1.0
C      1  0.6385679996833  0.2452288442384  0.5931726168847 1.0
C      1  0.6444285385698  0.2468463622384  0.3449339034991 1.0
C      1  0.4539261594890  0.7839034899286  0.5382644407863 1.0
C      1  0.4608476025553  0.6487469811747  0.7545786147043 1.0
C      1  0.4707603470296  0.3986441930369  0.7815458903332 1.0
C      1  0.4621226547069  0.2335486621025  0.5956596651409 1.0
C      1  0.4695170339441  0.2565575144075  0.3446800317691 1.0
C      1  0.4591041362701  0.4652565801227  0.2165201662855 1.0
C      1  0.4605291838907  0.7016862058238  0.2995589638645 1.0
C      1  0.3724376981797  0.5214674583082  0.7056699352118 1.0
C      1  0.3197517626387  0.3472116846321  0.6372463802055 1.0
C      1  0.3508191443001  0.3198099059869  0.4617470529496 1.0
C      1  0.3189219421069  0.4050445802714  0.3109716611138 1.0
C      1  0.3142019960520  0.6083358688232  0.2947266194969 1.0
C      1  0.3066613655161  0.7333947373942  0.4583798068624 1.0
C      1  0.3045088332513  0.6652840853421  0.6484661122929 1.0
C      1  0.6412524173241  0.5681016806611  0.2172744378237 1.0
C      1  0.6291892163138  0.7378179207272  0.3975812495488 1.0
C      1  0.6275598580887  0.7603212368787  0.6352678883338 1.0
C      1  0.6421988626699  0.5645568135476  0.7840684651517 1.0
C      1  0.6393410673978  0.3185308738896  0.7245587396650 1.0
C      1  0.6382209163859  0.2204080826659  0.4963402384571 1.0
C      1  0.6352948260002  0.3227024208191  0.2798627893952 1.0
C      1  0.5499703143516  0.1916424686481  0.4610494200869 1.0
C      1  0.5491958188647  0.3367872018588  0.2292589533000 1.0
C      1  0.5517817988292  0.6083653438608  0.2086946681982 1.0
C      1  0.5449740495245  0.7871897679447  0.4128286043230 1.0
C      1  0.5423620995570  0.7568986689801  0.6766622089504 1.0
C      1  0.5564255106339  0.5301712657987  0.8154018428357 1.0
C      1  0.5527213378280  0.2736725667233  0.7170884059618 1.0
C      1  0.5977015271624  0.6375015761299  0.3921188731105 1.0
C      1  0.5772058437891  0.6256164879479  0.5532462379610 1.0
C      1  0.5745047614674  0.5619453830711  0.6226912358141 1.0
C      1  0.5960575820192  0.4166355934454  0.6442636496072 1.0
C      1  0.6081964496119  0.3156026035804  0.5238396323760 1.0
C      1  0.6101101503612  0.3845747901815  0.3616804550564 1.0
C      1  0.6079124666341  0.4759394105663  0.3239602710082 1.0
C      1  0.8553331980584  0.4650957705355  0.4112544320161 1.0
END
