TITL C-55605-4846-2 -8.812 3375.00 -1562.47504648 0 0 186 (C1) n - 1
REM
REM Run started: at 2020.12.21 22:49:21 in /rds/project/t2_vol4/rds-t2-cs072/BORA/CARBON/AIRSS/Generating-Clusters/Str-Search/Higher-Symm/C100-200
REM VASP from code version vasp.5.4.4.18Apr17-6-g9f103f2a35 (build Oct 11 2019 16:45:47) gamma-only
REM
REM
REM
REM
REM ./C.cell (533062f00bc710175b3da973d35f2034)
REM AIRSS Version 0.9.1 bugfix July 2018 build 013d7b7c2542+ Fri, 06 Jul 2018 19:26:36 +0100
REM compiler GCC version 4.8.5 20150623 (Red Hat 4.8.5-39)
REM options -cpp -mtune=generic -march=x86-64 -g -O0
REM seed -1162250335 -1943540524 -2112646517 28847154 150632248 -998137405 -873327793 1159853376 -176743085 637280350 -737000839 -579918181
REM
REM C.POTCAR (d86ddea03c3ceb6dc662c8ad6801f873)
REM 
CELL 1.54180   15.00000   15.00000   15.00000   90.00000   90.00000   90.00000
LATT -1
SFAC C  
C      1  0.5495132604277  0.4853268383772  0.2364664372715 1.0
C      1  0.5450631908416  0.6896668173757  0.3177903388810 1.0
C      1  0.5485931635448  0.7621272271429  0.5497394689394 1.0
C      1  0.5510487005868  0.6421078657192  0.7520616587602 1.0
C      1  0.5470030512461  0.4175783248724  0.7421780228568 1.0
C      1  0.5448159052775  0.2189803682578  0.5844183604254 1.0
C      1  0.5366257442040  0.2597585792247  0.3309691839182 1.0
C      1  0.2205026263262  0.5023871204654  0.7673872217374 1.0
C      1  0.2104044067236  0.2980518498751  0.6740793661240 1.0
C      1  0.2299566308287  0.2433985297123  0.4458693998774 1.0
C      1  0.2236312355718  0.3733566760721  0.2699156495648 1.0
C      1  0.2107004613495  0.6042158185998  0.2565362977063 1.0
C      1  0.2294459796492  0.7488729274046  0.4455848608317 1.0
C      1  0.1954886067983  0.7152362937936  0.6615591883418 1.0
C      1  0.6357378600160  0.5529956833246  0.8609732500266 1.0
C      1  0.6396395122594  0.2597034978829  0.7466596505272 1.0
C      1  0.6260219521178  0.1343244812989  0.4603502608882 1.0
C      1  0.6288335427989  0.2984644194403  0.1890340338721 1.0
C      1  0.6400341880980  0.6119952487350  0.1603907006616 1.0
C      1  0.6281077840613  0.8294180180432  0.3868755735592 1.0
C      1  0.6295827159095  0.8267911152591  0.7027651196072 1.0
C      1  0.2173193294456  0.6464145635323  0.7177697371332 1.0
C      1  0.1979828064453  0.4131469059256  0.7628165765926 1.0
C      1  0.2448070948159  0.2659380175392  0.5945665148310 1.0
C      1  0.1962423232165  0.2596752034250  0.3618746188521 1.0
C      1  0.2181159638825  0.4574646354731  0.2338426727648 1.0
C      1  0.2386661889231  0.6717366711710  0.3148026380081 1.0
C      1  0.1913428175303  0.7710351223968  0.5257100523530 1.0
C      1  0.2748477303151  0.5933969349596  0.1864258462919 1.0
C      1  0.3129365291989  0.7922935631254  0.4291658534985 1.0
C      1  0.2657168140894  0.7824824278071  0.6550079345607 1.0
C      1  0.3076004756612  0.5104702711405  0.8139582984494 1.0
C      1  0.2763039319740  0.2855287091889  0.7436496131459 1.0
C      1  0.3108659175038  0.1919746889384  0.4449445825999 1.0
C      1  0.2972724579258  0.3045055545422  0.2620399236524 1.0
C      1  0.1743080766393  0.5245797509207  0.2913480179248 1.0
C      1  0.2157519450897  0.6591249549347  0.4106690896264 1.0
C      1  0.1557451528476  0.6962784810024  0.5764145587644 1.0
C      1  0.1791264738181  0.5612504355086  0.7040409697467 1.0
C      1  0.1661442282476  0.3813186651823  0.6771488091441 1.0
C      1  0.2210282191470  0.3150866479321  0.5120890121475 1.0
C      1  0.1711893398630  0.3519389548910  0.3482354621775 1.0
C      1  0.4685092690763  0.8390532339745  0.7695921773573 1.0
C      1  0.4828083860204  0.4718172871284  0.9038191712804 1.0
C      1  0.4891465688386  0.1783215064844  0.7727735890859 1.0
C      1  0.4728471487126  0.0981691003359  0.3895273761769 1.0
C      1  0.5184302501792  0.4002319194891  0.1335155074399 1.0
C      1  0.4861551472322  0.6892970681860  0.1165189014111 1.0
C      1  0.4765887971718  0.8894208490688  0.4391580123111 1.0
C      1  0.4813482962919  0.7614054253138  0.3470795389526 1.0
C      1  0.4948347164941  0.7766490516617  0.6282352542347 1.0
C      1  0.4823383087116  0.5962355488663  0.8113613366436 1.0
C      1  0.4969256349771  0.3329272348541  0.7352517830448 1.0
C      1  0.4781607250042  0.1752893318301  0.5264894752411 1.0
C      1  0.4798421801257  0.2941080093983  0.2571931206183 1.0
C      1  0.4938323548146  0.5609741112431  0.2056454345143 1.0
C      1  0.7539047002406  0.3853976249203  0.7219910707161 1.0
C      1  0.7546662595428  0.2125677267687  0.5408022286749 1.0
C      1  0.7500100524893  0.2697297760796  0.3026740026344 1.0
C      1  0.7462950264385  0.5018567533842  0.2247321547417 1.0
C      1  0.7523129560798  0.7171733970180  0.3551535255628 1.0
C      1  0.7547097034760  0.7980299548113  0.5917744635472 1.0
C      1  0.7581074934328  0.6342737496893  0.7762205929189 1.0
C      1  0.7809465877792  0.5535137057107  0.2989998424818 1.0
C      1  0.7887171079084  0.7213189899426  0.4437713728791 1.0
C      1  0.7937050234284  0.7294841006864  0.6446028068951 1.0
C      1  0.7918240508638  0.5567131380974  0.7300116508911 1.0
C      1  0.7864530807376  0.3451816654950  0.6382738459420 1.0
C      1  0.7862032094109  0.2580098979065  0.4640330470872 1.0
C      1  0.7817006789840  0.3592455338054  0.3029426725633 1.0
C      1  0.3854840714908  0.6507348740624  0.4142253044401 1.0
C      1  0.4052883110499  0.6328509692863  0.6113766841366 1.0
C      1  0.3610968096765  0.5820876573584  0.6864677446756 1.0
C      1  0.4080355525863  0.3641453037949  0.5980704582795 1.0
C      1  0.3900508925120  0.3194224459074  0.5044827163342 1.0
C      1  0.3911962545437  0.4047003384357  0.3413895979838 1.0
C      1  0.3932470138324  0.5747785704963  0.3429400971459 1.0
C      1  0.5321876586437  0.3139686337415  0.1810222821134 1.0
C      1  0.5430431294917  0.6205336973687  0.1455380967373 1.0
C      1  0.5293013045239  0.8368886933138  0.3805527888210 1.0
C      1  0.5330506056409  0.8300175279608  0.7019981180912 1.0
C      1  0.5333179376788  0.5464606189859  0.8730567218652 1.0
C      1  0.5464267136983  0.2522734970234  0.7677667125142 1.0
C      1  0.5262369471024  0.1233180411746  0.4634696552333 1.0
C      1  0.6256430820096  0.3705222171093  0.4420943275014 1.0
C      1  0.6252423086851  0.4601877898142  0.3971463811144 1.0
C      1  0.6239286310332  0.5561680043763  0.4204886622192 1.0
C      1  0.6217445571721  0.6193664690231  0.5026838674739 1.0
C      1  0.6457035035570  0.5975853721017  0.5933515770015 1.0
C      1  0.6329270270934  0.4531558842371  0.5695209310814 1.0
C      1  0.6359838682790  0.3632306050664  0.5342024965352 1.0
C      1  0.7526444225004  0.6448441443510  0.2905941831657 1.0
C      1  0.7547864570703  0.7945531579684  0.4950636809887 1.0
C      1  0.7570957292810  0.7191850460682  0.7319560157143 1.0
C      1  0.7549502448635  0.4741731339223  0.7622847016627 1.0
C      1  0.7558586857897  0.2539233435643  0.6264835572410 1.0
C      1  0.7481679585393  0.2221878148273  0.3844197828243 1.0
C      1  0.7466051178856  0.4085209324042  0.2292119533701 1.0
C      1  0.3225491197397  0.2163631567304  0.6036207778749 1.0
C      1  0.2684226544314  0.2252790504051  0.3015457637883 1.0
C      1  0.2813746525186  0.4989901412018  0.1696843603030 1.0
C      1  0.3170039278073  0.7133089987717  0.2876247221255 1.0
C      1  0.2607519152271  0.8251013824336  0.5724253211249 1.0
C      1  0.3136113991937  0.6549319640586  0.7430660190993 1.0
C      1  0.2688348210095  0.3592367538555  0.8025855471873 1.0
C      1  0.6127281711344  0.2017380655100  0.3120462608294 1.0
C      1  0.6090316735996  0.4502531714676  0.1572065842729 1.0
C      1  0.6230971098436  0.7246146296061  0.2700866402047 1.0
C      1  0.6169252756507  0.8286828993273  0.5440143077382 1.0
C      1  0.6200741940928  0.7000123273858  0.8006514717009 1.0
C      1  0.6233251918237  0.4075881506669  0.8018611587632 1.0
C      1  0.6256848427862  0.1698544186084  0.6144046465137 1.0
C      1  0.5824150485301  0.5869915498582  0.6808808930008 1.0
C      1  0.5454634224099  0.4938871632466  0.6826773368188 1.0
C      1  0.5612877911708  0.3112333659236  0.5713826024118 1.0
C      1  0.5472865985671  0.3130369929047  0.4108660122900 1.0
C      1  0.5573184137367  0.4501730262900  0.3250355492144 1.0
C      1  0.5577194730933  0.5961350213301  0.3546315183208 1.0
C      1  0.5476404803711  0.6815381096139  0.4922782636577 1.0
C      1  0.6808976295264  0.2155431483927  0.6757340272370 1.0
C      1  0.6653810427082  0.1713665282796  0.3853430338081 1.0
C      1  0.6712306543827  0.3781472876587  0.1801025098675 1.0
C      1  0.6803281102808  0.6640527282442  0.2268802882344 1.0
C      1  0.6709931924879  0.8343323495115  0.4676861656600 1.0
C      1  0.6731638871018  0.7641794592970  0.7568134222434 1.0
C      1  0.6783920968440  0.4799475513058  0.8234533348735 1.0
C      1  0.3781493228352  0.7425983997387  0.3663682988066 1.0
C      1  0.4194655235918  0.7248060302024  0.6424001169358 1.0
C      1  0.3768376791076  0.5822419946643  0.7851301843749 1.0
C      1  0.4194598516584  0.3167993315656  0.6844286974934 1.0
C      1  0.3793884971797  0.2138233577647  0.5183290505343 1.0
C      1  0.3909230971877  0.3376277268992  0.2791353529329 1.0
C      1  0.4138081650045  0.5922247769986  0.2481126386515 1.0
C      1  0.6788148647410  0.6315343035595  0.8346027644082 1.0
C      1  0.6795027595372  0.3413589836660  0.7639210996445 1.0
C      1  0.6768718520687  0.1523543448346  0.5366007467113 1.0
C      1  0.6712978971938  0.2431276445674  0.2507861292247 1.0
C      1  0.6747678351833  0.5275830536761  0.1613433842405 1.0
C      1  0.6758895502048  0.7735658052923  0.3307304086768 1.0
C      1  0.6723369009141  0.8375359407222  0.6209945700508 1.0
C      1  0.4643534955589  0.5605881053689  0.5556326218069 1.0
C      1  0.5340277471359  0.4773497828301  0.5849809630150 1.0
C      1  0.4961488950900  0.3876825914106  0.5590030473595 1.0
C      1  0.4754672229962  0.3680538266565  0.4585750177916 1.0
C      1  0.4736058054062  0.4444227973658  0.3836125296116 1.0
C      1  0.4762930188313  0.5492164295759  0.3913817471282 1.0
C      1  0.4692458781685  0.6175599509026  0.4703115290430 1.0
C      1  0.3300355605889  0.8479839115659  0.5036697395190 1.0
C      1  0.3460941982359  0.7481359805961  0.7106118593716 1.0
C      1  0.3320876612795  0.4236035755359  0.8437937136173 1.0
C      1  0.3559336003695  0.2357987181687  0.6989268817917 1.0
C      1  0.3278599796808  0.1674943612387  0.3552344717079 1.0
C      1  0.3529963427859  0.4561035806556  0.1271594765125 1.0
C      1  0.3511459004721  0.6616666836897  0.2051774981845 1.0
C      1  0.4103361821009  0.8941141206383  0.4894107227862 1.0
C      1  0.3913634910530  0.8090752861999  0.7731718364238 1.0
C      1  0.4153422355527  0.4255163371115  0.8877985686360 1.0
C      1  0.4096146365416  0.1718789859748  0.7507278153432 1.0
C      1  0.4051734438332  0.1164941018732  0.3451342596306 1.0
C      1  0.4321640348053  0.4314679646384  0.1162048702341 1.0
C      1  0.4064337774888  0.7035821655220  0.1351342338100 1.0
C      1  0.8125046161372  0.3540521332742  0.4700382744362 1.0
C      1  0.8081737749384  0.4067763922707  0.3853171006315 1.0
C      1  0.8079123782715  0.5058604898922  0.3841407728562 1.0
C      1  0.8191197852754  0.6432747000524  0.4966088134158 1.0
C      1  0.8248814737155  0.6506902720288  0.5955949932624 1.0
C      1  0.8237407035670  0.5659294976024  0.6377256267013 1.0
C      1  0.8113567546003  0.3960079652198  0.5579875098662 1.0
C      1  0.3066580990616  0.3783185742114  0.4893543112892 1.0
C      1  0.3196318072593  0.4345505129817  0.4035234909311 1.0
C      1  0.3188244304452  0.5255007455170  0.3945676495777 1.0
C      1  0.3007266794820  0.6069959479516  0.4514083847297 1.0
C      1  0.3219711311787  0.5916765113109  0.5491160794962 1.0
C      1  0.3143079326533  0.5211523175741  0.6213299741634 1.0
C      1  0.3384433967315  0.4339757086121  0.5722556598846 1.0
C      1  0.1427636127484  0.4360096502505  0.5983789010679 1.0
C      1  0.1516588522545  0.3906126743237  0.5099673072665 1.0
C      1  0.1415232810609  0.4179699231858  0.4163676682539 1.0
C      1  0.1435233508991  0.5129160941064  0.3861266944326 1.0
C      1  0.1480355630389  0.5902863012533  0.4461831019560 1.0
C      1  0.1368969086995  0.6048615723859  0.5451206138724 1.0
C      1  0.1408673520672  0.5339220986634  0.6162170036751 1.0
C      1  0.7979980255550  0.4989348728002  0.5609308006799 1.0
C      1  0.6963902732512  0.5140226411500  0.5787911269044 1.0
C      1  0.3822876161652  0.5140644071883  0.5460339541776 1.0
C      1  0.8151519605819  0.5508278163295  0.4717139225421 1.0
END
