TITL C-5542-9635-40 -7.207 3375.00 -1284.82961068 0 0 158 (C1) n - 1
REM
REM Run started: at 2021.01.03 15:17:14 in /gpfs/home/chem/mssmkc/CARBON/AIRSS/Generating-Clusters/Str-Search/Higher-Symm/C100-200
REM VASP from code version vasp.5.4.4.18Apr17-6-g9f103f2a35 (build Oct 11 2019 16:45:47) gamma-only
REM
REM
REM
REM
REM ./C.cell (533062f00bc710175b3da973d35f2034)
REM AIRSS Version 0.9.1 bugfix July 2018 build 013d7b7c2542+ Fri, 06 Jul 2018 19:26:36 +0100
REM compiler GCC version 6.3.0
REM options -cpp -iprefix /gpfs/warwick/csc/orac/software/Core/GCCcore/6.3.0/bin/../lib/gcc/x86_64-pc-linux-gnu/6.3.0/ -mtune=generic -march=x86-64 -g -O0
REM seed 885520736 -300669057 -1884415321 -852546392 1614482031 -423525202 1268396827 -1360038886 -501075088 -2041709522 1519140272 1418203102
REM
REM C.POTCAR (d86ddea03c3ceb6dc662c8ad6801f873)
REM 
CELL 1.54180   15.00000   15.00000   15.00000   90.00000   90.00000   90.00000
LATT -1
SFAC C  
C      1  0.7356563962176  0.5294861233607  0.7774223058518 1.0
C      1  0.3686517168585  0.6971122954477  0.7831838935662 1.0
C      1  0.3985735011736  0.2924213841560  0.7836798646496 1.0
C      1  0.2951303068991  0.4159857806777  0.7506268216908 1.0
C      1  0.6762768029861  0.3757821212132  0.7455013139929 1.0
C      1  0.5266383915315  0.7266678170947  0.7475769004026 1.0
C      1  0.1889249990001  0.3587354497642  0.4620894176679 1.0
C      1  0.7777102359428  0.3040285587757  0.4595878948656 1.0
C      1  0.5252854436732  0.8633401189330  0.4506976836035 1.0
C      1  0.3398337738351  0.7965515857874  0.6193616240233 1.0
C      1  0.3245301124942  0.2150740435297  0.6238217310000 1.0
C      1  0.8307129855322  0.4992496638195  0.6125888036934 1.0
C      1  0.5433982929293  0.3499015753717  0.2318359117727 1.0
C      1  0.6668118969454  0.6115811279357  0.2002340905680 1.0
C      1  0.3515137823602  0.5743857329541  0.2490420299395 1.0
C      1  0.7260220938640  0.7056506689784  0.4136179442029 1.0
C      1  0.1941526919299  0.6059499191014  0.4194867180186 1.0
C      1  0.5606425768515  0.1750243985098  0.4181912895768 1.0
C      1  0.3279101803998  0.6429798196065  0.3199932656443 1.0
C      1  0.4675963424835  0.2602299296848  0.3149927795051 1.0
C      1  0.7061828866873  0.5804649157320  0.2897070227058 1.0
C      1  0.6424497226543  0.5509419724387  0.3716797546357 1.0
C      1  0.3691860491402  0.6026481967303  0.4117204411486 1.0
C      1  0.4754825960097  0.3213152154612  0.4059017018289 1.0
C      1  0.6203821144793  0.8586375183136  0.4246794146410 1.0
C      1  0.1399944449272  0.4206216277455  0.4076964825567 1.0
C      1  0.7515204797263  0.2312536758981  0.4035119144550 1.0
C      1  0.2719416736278  0.2812581432419  0.6739216241713 1.0
C      1  0.8025643027418  0.4225160819509  0.6642785682978 1.0
C      1  0.4197694851972  0.8116179419294  0.6724988220776 1.0
C      1  0.6546220906702  0.7229618546640  0.4848242570872 1.0
C      1  0.2259235157933  0.5334324896876  0.4842632921205 1.0
C      1  0.6093029693573  0.2371336255045  0.4835884686144 1.0
C      1  0.7668628599339  0.3348582514029  0.6218324243620 1.0
C      1  0.5075527514761  0.8226605976517  0.6251518115537 1.0
C      1  0.2158861705326  0.3550149518826  0.6281395502671 1.0
C      1  0.4417845435591  0.7079080075994  0.2309987872908 1.0
C      1  0.3633591721795  0.3602404954817  0.1751910155297 1.0
C      1  0.6970265714067  0.4544411045168  0.1602584583953 1.0
C      1  0.6429797272108  0.8222013981094  0.5220423908889 1.0
C      1  0.1603296783377  0.4575914635125  0.4945908980078 1.0
C      1  0.7096434655263  0.2250284962727  0.4908714746816 1.0
C      1  0.2600981959584  0.5895246055352  0.2767467519629 1.0
C      1  0.5517516741955  0.2590665442384  0.2678575847895 1.0
C      1  0.6909472567841  0.6769377319791  0.2554401013624 1.0
C      1  0.3543406117400  0.3890553288227  0.5878467046046 1.0
C      1  0.6634848730584  0.4348730685897  0.5802725404441 1.0
C      1  0.4749787987157  0.6794097363552  0.5888862212765 1.0
C      1  0.7224147671893  0.3866946479994  0.2018182386286 1.0
C      1  0.5206158088026  0.7568612997987  0.2265566953910 1.0
C      1  0.2899571315168  0.3695286885941  0.2128375016041 1.0
C      1  0.5701256977913  0.6931763519559  0.4380142771595 1.0
C      1  0.3425712618048  0.4354323348551  0.4149974981519 1.0
C      1  0.6315395334449  0.3832204389688  0.4146377609837 1.0
C      1  0.7903527572922  0.5447210811034  0.2764707577511 1.0
C      1  0.3728541127832  0.7253281956706  0.2960122938074 1.0
C      1  0.3899845073899  0.2250636491890  0.2953380325663 1.0
C      1  0.4219428037016  0.2777536945176  0.4813197810790 1.0
C      1  0.7103172291272  0.5416843695024  0.4455003584423 1.0
C      1  0.3546248782218  0.6743579184192  0.4817082163151 1.0
C      1  0.4198544545280  0.2074449625926  0.6416241835970 1.0
C      1  0.7963914691566  0.5874871901597  0.6362544080245 1.0
C      1  0.2871225969901  0.7180230932329  0.6379768411024 1.0
C      1  0.4311159275516  0.7286255590071  0.5163932423827 1.0
C      1  0.3373813298794  0.3195083896143  0.5168624141406 1.0
C      1  0.7263986043680  0.4581295580978  0.5054817048186 1.0
C      1  0.5910880152893  0.4613853838473  0.3705383206676 1.0
C      1  0.4681086147612  0.5731074098175  0.3773180402501 1.0
C      1  0.4361746846180  0.4151025866216  0.3816143935783 1.0
C      1  0.6131034320178  0.2162702117977  0.3200141616635 1.0
C      1  0.6955244838697  0.7394616958116  0.3287644561028 1.0
C      1  0.1979051243968  0.5490495064229  0.3286129522515 1.0
C      1  0.8192101769584  0.5386593191937  0.4342479396171 1.0
C      1  0.3111629030199  0.7625852392542  0.4422219125701 1.0
C      1  0.3696462333593  0.1931610578357  0.4482034633873 1.0
C      1  0.3717614144520  0.7891995622708  0.3628935775053 1.0
C      1  0.3257351697628  0.2239877612127  0.3584849459806 1.0
C      1  0.8133694782824  0.4901290046644  0.3467454828659 1.0
C      1  0.5559499547880  0.4267112202222  0.2837467460283 1.0
C      1  0.4372623646367  0.5422693179756  0.2833444225430 1.0
C      1  0.4609363652449  0.4484103822502  0.2779254727601 1.0
C      1  0.3099467971343  0.2190023260550  0.5303389824673 1.0
C      1  0.8233555774380  0.4827096327059  0.5184709932088 1.0
C      1  0.3570956634146  0.8032931388029  0.5262331535191 1.0
C      1  0.5132002837232  0.4467555567322  0.7455593264265 1.0
C      1  0.5406170205069  0.5445339932659  0.7447505236954 1.0
C      1  0.4428551153104  0.5185554293953  0.7449065198101 1.0
C      1  0.4549107859519  0.3940559460198  0.1890631605877 1.0
C      1  0.6468986726027  0.5346013099026  0.1434852384478 1.0
C      1  0.4291675139603  0.6122657471658  0.1999244433746 1.0
C      1  0.1623719264253  0.5763814529619  0.7059253891503 1.0
C      1  0.6077819024689  0.1738366154914  0.7104713362367 1.0
C      1  0.7068100404775  0.7767867067101  0.6757732676388 1.0
C      1  0.2714605538149  0.3047838539776  0.3551639132092 1.0
C      1  0.7773271170516  0.4015707257197  0.3476785638569 1.0
C      1  0.4677184834508  0.8224725553825  0.3770813460588 1.0
C      1  0.2267091472150  0.6893337290684  0.4564784486149 1.0
C      1  0.4746409098713  0.1586132640001  0.4602699380562 1.0
C      1  0.7723785437205  0.6245808824060  0.4567416502454 1.0
C      1  0.1816390963763  0.4488594202959  0.3288285692684 1.0
C      1  0.7065947241457  0.2519249514886  0.3237209392944 1.0
C      1  0.6285617373518  0.8135563809790  0.3417895390009 1.0
C      1  0.7515964029421  0.4395973313087  0.7450704363306 1.0
C      1  0.4340497702269  0.7609963914996  0.7521816213241 1.0
C      1  0.3105655365025  0.3181901802142  0.7532473799338 1.0
C      1  0.5791396014196  0.4782853394889  0.5945039477960 1.0
C      1  0.4758322735379  0.5833786502900  0.5953965649222 1.0
C      1  0.4371278097962  0.4390177262591  0.5962855527504 1.0
C      1  0.6709134807025  0.3543519606795  0.6461538763721 1.0
C      1  0.5409562845775  0.7262272699235  0.6476048080191 1.0
C      1  0.2824666666983  0.4283938596550  0.6509610274412 1.0
C      1  0.6076352303359  0.1579360585282  0.6289820798829 1.0
C      1  0.6986629350991  0.8221707943106  0.6065100044492 1.0
C      1  0.1514114872143  0.5806982013215  0.6236474924969 1.0
C      1  0.6005034500309  0.6870882888089  0.7893778030583 1.0
C      1  0.2976717608585  0.4989504505893  0.7937210280403 1.0
C      1  0.6060250174915  0.3332610432343  0.7916861051600 1.0
C      1  0.4574886697091  0.2444658578695  0.7208721283012 1.0
C      1  0.7508670865936  0.6065354339167  0.7173611193508 1.0
C      1  0.2986060191497  0.6694386013169  0.7191395108452 1.0
C      1  0.4836836608705  0.4671931786532  0.1236729312242 1.0
C      1  0.5589417051286  0.5242414307537  0.1143700836407 1.0
C      1  0.4725618855690  0.5587052318530  0.1318463574798 1.0
C      1  0.7292587787732  0.3854581788558  0.4342363538869 1.0
C      1  0.4963400460208  0.7542933699250  0.4483229605656 1.0
C      1  0.2857870829521  0.3556014290997  0.4395520700646 1.0
C      1  0.4470572279555  0.3451694164109  0.8422440976893 1.0
C      1  0.6655357848688  0.5426713528214  0.8364583263895 1.0
C      1  0.3896709399029  0.6291227968244  0.8418812737390 1.0
C      1  0.2390104091230  0.5758835972791  0.5717717587527 1.0
C      1  0.5676541605782  0.2325297242895  0.5727932943720 1.0
C      1  0.6779047984883  0.6680828758007  0.5622019630817 1.0
C      1  0.4730362867958  0.2123834186126  0.5516919067119 1.0
C      1  0.7622103472334  0.6361288479592  0.5583488559223 1.0
C      1  0.2702649365417  0.6666582016977  0.5494704531281 1.0
C      1  0.5452482029021  0.8495430523232  0.5473018008278 1.0
C      1  0.1670626485612  0.3736529535707  0.5537124617679 1.0
C      1  0.7769159470599  0.2782902016389  0.5506317997273 1.0
C      1  0.5605679593264  0.2614251650845  0.7289782438679 1.0
C      1  0.6815244098348  0.6860810162131  0.7182015024022 1.0
C      1  0.2611761708481  0.5731268755505  0.7281432656073 1.0
C      1  0.5732216209915  0.3204009921609  0.4378751895534 1.0
C      1  0.5614927771616  0.6177924227272  0.3895957669621 1.0
C      1  0.3178481344832  0.5182138109576  0.4390683679719 1.0
C      1  0.5391109456130  0.8073401079242  0.3020149634698 1.0
C      1  0.2371794989031  0.3712237901175  0.2903573440726 1.0
C      1  0.7413798280631  0.3401900728066  0.2821540718706 1.0
C      1  0.6195340409640  0.6593893436281  0.6391125152931 1.0
C      1  0.2991497899163  0.5287936288376  0.6411912391612 1.0
C      1  0.5772862914839  0.3135875319453  0.6399395730409 1.0
C      1  0.5936503365257  0.5933816110890  0.8149428677439 1.0
C      1  0.3806620161273  0.5418763052702  0.8202587236926 1.0
C      1  0.5268979684987  0.3813769647948  0.8200783885887 1.0
C      1  0.5236229196323  0.4079498776511  0.6476093907479 1.0
C      1  0.5650725783176  0.5688071149195  0.6477283187082 1.0
C      1  0.4058079718291  0.5251540395315  0.6467735979786 1.0
C      1  0.4983918354751  0.4963353449642  0.5272222480159 1.0
C      1  0.4981442688511  0.4855957292908  0.4234043859280 1.0
END
