TITL C-5542-9635-30 -6.935 3375.00 -1231.73533288 0 0 147 (C1) n - 1
REM
REM Run started: at 2021.01.03 08:32:03 in /gpfs/home/chem/mssmkc/CARBON/AIRSS/Generating-Clusters/Str-Search/Higher-Symm/C100-200
REM VASP from code version vasp.5.4.4.18Apr17-6-g9f103f2a35 (build Oct 11 2019 16:45:47) gamma-only
REM
REM
REM
REM
REM ./C.cell (533062f00bc710175b3da973d35f2034)
REM AIRSS Version 0.9.1 bugfix July 2018 build 013d7b7c2542+ Fri, 06 Jul 2018 19:26:36 +0100
REM compiler GCC version 6.3.0
REM options -cpp -iprefix /gpfs/warwick/csc/orac/software/Core/GCCcore/6.3.0/bin/../lib/gcc/x86_64-pc-linux-gnu/6.3.0/ -mtune=generic -march=x86-64 -g -O0
REM seed 92609660 342759141 426669560 -1040413852 1862893052 749589247 375953675 -1323438030 233892920 96906382 1195043806 1749040055
REM
REM C.POTCAR (d86ddea03c3ceb6dc662c8ad6801f873)
REM 
CELL 1.54180   15.00000   15.00000   15.00000   90.00000   90.00000   90.00000
LATT -1
SFAC C  
C      1  0.4515851473996  0.4128193179410  0.1936448362154 1.0
C      1  0.4509515271895  0.5832665061750  0.1932010551059 1.0
C      1  0.5975318157760  0.4998360737401  0.1935736973614 1.0
C      1  0.5485234978076  0.4132971133873  0.1938108264326 1.0
C      1  0.5493972357245  0.5841465663034  0.1944689506137 1.0
C      1  0.4026023738003  0.4988873649999  0.1924152556702 1.0
C      1  0.4525615050471  0.2509057828359  0.7444245698328 1.0
C      1  0.3151863780501  0.6557555240191  0.7069529135797 1.0
C      1  0.7412496485568  0.5614270744078  0.7051744898682 1.0
C      1  0.5465139791581  0.2496459892345  0.7443291647849 1.0
C      1  0.6918497442098  0.6474122629805  0.7108554281554 1.0
C      1  0.2645128427198  0.5682795934862  0.7045598028266 1.0
C      1  0.4539436266121  0.6349883388240  0.5627203456754 1.0
C      1  0.6487330306909  0.4724458650284  0.5606104697783 1.0
C      1  0.4046549505522  0.3941599887919  0.5580586068912 1.0
C      1  0.5488996235785  0.6331621658952  0.5640675249875 1.0
C      1  0.3539590067810  0.4746787015844  0.5602466984619 1.0
C      1  0.5968345123594  0.3926249569757  0.5580329193541 1.0
C      1  0.5493224800349  0.4100488013427  0.8141976469661 1.0
C      1  0.4027736469406  0.4936735198187  0.7995816181111 1.0
C      1  0.5518369734534  0.5725232944684  0.7996339874949 1.0
C      1  0.4521623984759  0.4119535702020  0.8138995372765 1.0
C      1  0.6004903995489  0.4901025047433  0.8005241368563 1.0
C      1  0.4527439081261  0.5755555682304  0.7985675305447 1.0
C      1  0.2065196627996  0.2960117361441  0.5683434884280 1.0
C      1  0.4344759085399  0.8738782551081  0.5607731528749 1.0
C      1  0.8426019726692  0.3713860357411  0.5600503982301 1.0
C      1  0.7941257820325  0.2937014667066  0.5668890540746 1.0
C      1  0.5196664453818  0.8404602209078  0.5782360437567 1.0
C      1  0.1581640176251  0.3736792942521  0.5608719451235 1.0
C      1  0.2985417601484  0.5181797737484  0.4994857620286 1.0
C      1  0.6161871525213  0.6593475404593  0.5043434883897 1.0
C      1  0.5831242044273  0.3233399755073  0.4983963428924 1.0
C      1  0.7036383781919  0.5167527204044  0.4998507263954 1.0
C      1  0.3870743551051  0.6648658927335  0.5027987188731 1.0
C      1  0.4172344066642  0.3242744007388  0.4987874803890 1.0
C      1  0.4520696492195  0.4202140311198  0.3774756525241 1.0
C      1  0.4540797544059  0.5826187239156  0.3815397798937 1.0
C      1  0.5949699970863  0.4993500447439  0.3807447391044 1.0
C      1  0.5484248056940  0.4198732837590  0.3775809932839 1.0
C      1  0.5463597502954  0.5819458775759  0.3825222749266 1.0
C      1  0.4056994085739  0.4999158449320  0.3797834712759 1.0
C      1  0.1186638473716  0.5501485629070  0.5829867963578 1.0
C      1  0.7216106203074  0.7963439056055  0.5985477328001 1.0
C      1  0.6376223566477  0.1841981787867  0.6092424784504 1.0
C      1  0.8860126456545  0.5476737714533  0.5817971922827 1.0
C      1  0.2752075871820  0.8016268827203  0.5891392897328 1.0
C      1  0.3617500832503  0.1857187979124  0.6098223364338 1.0
C      1  0.3137331346240  0.3383204990714  0.2602926608164 1.0
C      1  0.4525827527979  0.7399320462980  0.2596271799441 1.0
C      1  0.7325634153625  0.4200276812133  0.2576921340360 1.0
C      1  0.6860657332421  0.3388446195872  0.2599686266264 1.0
C      1  0.5458510646904  0.7410322588183  0.2624449161154 1.0
C      1  0.2673187275027  0.4193902597317  0.2576526675658 1.0
C      1  0.7737765433763  0.7127756496405  0.5826975386005 1.0
C      1  0.5450710819445  0.1717178217458  0.5842169220645 1.0
C      1  0.1763869804747  0.6293807391665  0.5785279345962 1.0
C      1  0.2272382656269  0.7154342376743  0.5808988999828 1.0
C      1  0.4543613506670  0.1724880391293  0.5848999640394 1.0
C      1  0.8267552851268  0.6266689503996  0.5785587724423 1.0
C      1  0.2755946428255  0.5747472043559  0.2774732612129 1.0
C      1  0.6769898883205  0.6574323209564  0.2826197388625 1.0
C      1  0.5472875979961  0.2656618704134  0.2824242210624 1.0
C      1  0.7242536913012  0.5759728111450  0.2793900109886 1.0
C      1  0.3223343105775  0.6557801800031  0.2789187475117 1.0
C      1  0.4525629593904  0.2655724946579  0.2827738306594 1.0
C      1  0.8806239288322  0.5066991235662  0.4897064315286 1.0
C      1  0.3157869915350  0.1925364345483  0.5123813763875 1.0
C      1  0.3073907670724  0.8254224473937  0.4938520265205 1.0
C      1  0.1219407226901  0.5089233059716  0.4908217378240 1.0
C      1  0.6837895699040  0.1913317044266  0.5112299082785 1.0
C      1  0.6744663863361  0.8168825355657  0.5118865687153 1.0
C      1  0.2970256127050  0.2821252939813  0.3362220288383 1.0
C      1  0.4079575312420  0.7830959759846  0.3310835082872 1.0
C      1  0.7931059454377  0.4363918151993  0.3291209562252 1.0
C      1  0.7027804353471  0.2819622105682  0.3353738179328 1.0
C      1  0.5860306278759  0.7821815332984  0.3388410065720 1.0
C      1  0.2073184348379  0.4366791913725  0.3295084354698 1.0
C      1  0.6798027589053  0.4828392937228  0.7275373311586 1.0
C      1  0.4119044802311  0.3307668275540  0.7822715305383 1.0
C      1  0.4118831102025  0.6472526388354  0.7332716369624 1.0
C      1  0.3236233601722  0.4875884527283  0.7272945210088 1.0
C      1  0.5883926215008  0.3284038825852  0.7824312970925 1.0
C      1  0.5958891442345  0.6406102718344  0.7370539645315 1.0
C      1  0.7696451024335  0.2929564374735  0.4052167086287 1.0
C      1  0.1795634153520  0.3761807600877  0.4001623719645 1.0
C      1  0.5416754574007  0.8319888675786  0.4099645081963 1.0
C      1  0.2302729138889  0.2938208055835  0.4062783593528 1.0
C      1  0.8206909940785  0.3751446546547  0.3993373951601 1.0
C      1  0.4467964278475  0.8378202995855  0.4002161888714 1.0
C      1  0.6077839714323  0.4986070579085  0.6489194459064 1.0
C      1  0.4559752895148  0.4228424488227  0.6332208643973 1.0
C      1  0.4486255992094  0.5883624658620  0.6509199026846 1.0
C      1  0.3949685568202  0.5008785011650  0.6486952017024 1.0
C      1  0.5458247458905  0.4216905358721  0.6333145147755 1.0
C      1  0.5549674791316  0.5861667437408  0.6512659248843 1.0
C      1  0.4065653576628  0.3342394041657  0.2310545460614 1.0
C      1  0.4048051350687  0.6609529949291  0.2290570188451 1.0
C      1  0.6880169406776  0.5016029073288  0.2284573786966 1.0
C      1  0.5933170978776  0.3346804782605  0.2308791110775 1.0
C      1  0.5947810661901  0.6625142332836  0.2321486605792 1.0
C      1  0.3119991867476  0.5003912948225  0.2273182946422 1.0
C      1  0.6137092923709  0.2465012981228  0.3603847166934 1.0
C      1  0.2247854277734  0.5310716757149  0.3546949329118 1.0
C      1  0.6613404787711  0.7232235803174  0.3626146419066 1.0
C      1  0.3861306599414  0.2468356038497  0.3611684451321 1.0
C      1  0.7761792303323  0.5306703340129  0.3549621949098 1.0
C      1  0.3354519943243  0.7213249673562  0.3575863863286 1.0
C      1  0.2835111747612  0.6825835822344  0.5011279971661 1.0
C      1  0.7695467027035  0.5977896592058  0.4992821777920 1.0
C      1  0.4510439694889  0.2272292504899  0.5021104904003 1.0
C      1  0.7180392531601  0.6805832857826  0.5039328920014 1.0
C      1  0.2337552248501  0.5987760115324  0.4991369030741 1.0
C      1  0.5486141145094  0.2266121664502  0.5015605825356 1.0
C      1  0.1706133215448  0.5652058780332  0.4314194139165 1.0
C      1  0.7121393321059  0.7576099702685  0.4426619331372 1.0
C      1  0.6165662375341  0.1879716372595  0.4433564926131 1.0
C      1  0.8315419993152  0.5635273358398  0.4311241120038 1.0
C      1  0.2805503831016  0.7545497412327  0.4350918309014 1.0
C      1  0.3828689135845  0.1886151860437  0.4443314335437 1.0
C      1  0.7594558049492  0.2465470970475  0.4932061744914 1.0
C      1  0.1360888419455  0.4152314845600  0.4791658954336 1.0
C      1  0.5819215194785  0.8397660069695  0.5014638938153 1.0
C      1  0.2404457032327  0.2480946414782  0.4946322415188 1.0
C      1  0.8648428949256  0.4131709048683  0.4783753159631 1.0
C      1  0.3936520720369  0.8655132139878  0.4779574148260 1.0
C      1  0.8149533809071  0.5566047274155  0.6485001678217 1.0
C      1  0.3665422465367  0.2348676284288  0.6895014031571 1.0
C      1  0.2924765256827  0.7287901064830  0.6533862363984 1.0
C      1  0.1898007025578  0.5611600958910  0.6498367610535 1.0
C      1  0.6327736204374  0.2324507345027  0.6894598909323 1.0
C      1  0.7126714056152  0.7218353882001  0.6597223276337 1.0
C      1  0.7225971104850  0.3878617186851  0.7037219674091 1.0
C      1  0.3327387250098  0.3205001746347  0.7309598358482 1.0
C      1  0.4631163060629  0.7328216364188  0.7198684928518 1.0
C      1  0.2787080425608  0.3922346638663  0.7037702739592 1.0
C      1  0.6676945945111  0.3170016825432  0.7312168596166 1.0
C      1  0.5529025980069  0.7273269003375  0.7257435362935 1.0
C      1  0.6892618341950  0.5016787766320  0.4103071667018 1.0
C      1  0.4066322173744  0.3392540731569  0.4094944998626 1.0
C      1  0.4037515021431  0.6610375703083  0.4126960300482 1.0
C      1  0.3117121456844  0.5022313087350  0.4097758356435 1.0
C      1  0.5935319605029  0.3385935924893  0.4091614040022 1.0
C      1  0.5963921571124  0.6592627054139  0.4151749814589 1.0
C      1  0.7842109096151  0.3623056442466  0.6349681743636 1.0
C      1  0.2168001467604  0.3658772756766  0.6355322397077 1.0
C      1  0.5185779249767  0.7864831057091  0.6600448434281 1.0
END
