TITL C-55605-4846-6 -8.088 3375.00 -1456.80310515 0 0 175 (C1) n - 1
REM
REM Run started: at 2020.12.22 03:16:08 in /rds/project/t2_vol4/rds-t2-cs072/BORA/CARBON/AIRSS/Generating-Clusters/Str-Search/Higher-Symm/C100-200
REM VASP from code version vasp.5.4.4.18Apr17-6-g9f103f2a35 (build Oct 11 2019 16:45:47) gamma-only
REM
REM
REM
REM
REM ./C.cell (533062f00bc710175b3da973d35f2034)
REM AIRSS Version 0.9.1 bugfix July 2018 build 013d7b7c2542+ Fri, 06 Jul 2018 19:26:36 +0100
REM compiler GCC version 4.8.5 20150623 (Red Hat 4.8.5-39)
REM options -cpp -mtune=generic -march=x86-64 -g -O0
REM seed -2065437640 359902491 -1610379910 -415463991 -1850520600 -638350979 164480643 2103278027 1442403071 2084501696 -175551093 -1001593433
REM
REM C.POTCAR (d86ddea03c3ceb6dc662c8ad6801f873)
REM 
CELL 1.54180   15.00000   15.00000   15.00000   90.00000   90.00000   90.00000
LATT -1
SFAC C  
C      1  0.4542070346048  0.1097255871705  0.4357600481055 1.0
C      1  0.5492908304063  0.8144399103287  0.3857619170900 1.0
C      1  0.4594135926007  0.1117677611723  0.5335719301661 1.0
C      1  0.5877012471257  0.8298214975131  0.5705087429923 1.0
C      1  0.4844909917475  0.8621730584764  0.4397230128502 1.0
C      1  0.5459501463378  0.1495918405007  0.4273335629784 1.0
C      1  0.4977776573746  0.8530872895400  0.5330279170504 1.0
C      1  0.5440542787119  0.1559964951657  0.5229513059692 1.0
C      1  0.5578620364434  0.3974963874156  0.8072158211376 1.0
C      1  0.4453937610726  0.6125778786672  0.8202220669854 1.0
C      1  0.5627477660678  0.4688133157212  0.2151299929554 1.0
C      1  0.4642450446844  0.5562674067063  0.2719610246781 1.0
C      1  0.5497775321030  0.6061134241458  0.8032070132264 1.0
C      1  0.4525053961424  0.3986686858555  0.8152439117241 1.0
C      1  0.5618468349332  0.5656581259749  0.2458281183234 1.0
C      1  0.4630552929362  0.4608906523591  0.2264634368990 1.0
C      1  0.2881519109765  0.2338223323524  0.3205031711153 1.0
C      1  0.6816835039333  0.7574716138290  0.3073196225772 1.0
C      1  0.3216251509288  0.2645137781376  0.6700908511081 1.0
C      1  0.6979166057064  0.7474424247079  0.6762048347722 1.0
C      1  0.3069186273048  0.7567573901446  0.3064067031553 1.0
C      1  0.6639994342872  0.2598713589227  0.3298046162025 1.0
C      1  0.3132032917206  0.7505220347843  0.6815832049528 1.0
C      1  0.6921744802439  0.2549004647601  0.6789750151245 1.0
C      1  0.6431266845523  0.5951924473305  0.2880501146846 1.0
C      1  0.4255752724498  0.3706468081226  0.2525986301121 1.0
C      1  0.6038962037616  0.5520246976359  0.7299552047154 1.0
C      1  0.3801209031422  0.4564594002786  0.7786671240584 1.0
C      1  0.6278770716000  0.4203691455904  0.2739604130614 1.0
C      1  0.4419759937757  0.5835691125875  0.3649828151470 1.0
C      1  0.6065229099996  0.4507471278971  0.7300951676177 1.0
C      1  0.3822181120681  0.5531276167854  0.7637636994100 1.0
C      1  0.1937413376235  0.2892321380967  0.4499997896569 1.0
C      1  0.7948009747924  0.6956606709933  0.4328071776346 1.0
C      1  0.2009762220859  0.2979202000609  0.5471945575451 1.0
C      1  0.8005829453003  0.6858853995034  0.5336831968240 1.0
C      1  0.2131167107661  0.6839988442729  0.4402391366928 1.0
C      1  0.7811422311492  0.3399966158383  0.4437567355509 1.0
C      1  0.2140512883165  0.6921107273193  0.5396058018164 1.0
C      1  0.7877020926525  0.3346992590116  0.5422868596693 1.0
C      1  0.3105922989298  0.6931401988568  0.2366998559754 1.0
C      1  0.6462245486030  0.3167495196703  0.2488574629440 1.0
C      1  0.3187117902242  0.6933137735385  0.7605362699031 1.0
C      1  0.6830016926707  0.3165423958591  0.7523188618097 1.0
C      1  0.2665181245979  0.3107217247981  0.2752636491249 1.0
C      1  0.6759806269356  0.6879869661430  0.2366537438288 1.0
C      1  0.3284788564014  0.3183392465705  0.7468853343167 1.0
C      1  0.6799001933233  0.6873041869498  0.7463714647995 1.0
C      1  0.6375412395115  0.7009868289956  0.4511552390897 1.0
C      1  0.3021798080880  0.1614229242850  0.4537467051709 1.0
C      1  0.6471659615066  0.7500899818998  0.5357037539680 1.0
C      1  0.3117166704317  0.1719895219629  0.5469859317216 1.0
C      1  0.6133514657748  0.3217978692112  0.4574713277807 1.0
C      1  0.3304834481709  0.8014382653092  0.4471120715036 1.0
C      1  0.6341172175289  0.2807747595598  0.5435289137931 1.0
C      1  0.3411941189845  0.7884003748780  0.5362689731452 1.0
C      1  0.1556662027990  0.3550169220257  0.3895681825868 1.0
C      1  0.8561338664471  0.6457570585115  0.3784650627563 1.0
C      1  0.1550014197701  0.3671247590723  0.5919272532437 1.0
C      1  0.8689963680886  0.6298791788515  0.5762730601696 1.0
C      1  0.1676000793764  0.6085716740385  0.3904839808040 1.0
C      1  0.8462071682149  0.3862459726847  0.3937801057414 1.0
C      1  0.1621193180755  0.6320226347967  0.5887582068012 1.0
C      1  0.8563195237699  0.3775668087674  0.5926684249075 1.0
C      1  0.6203606765892  0.4190602735901  0.4569414412148 1.0
C      1  0.3517224899647  0.5084434072953  0.5013558036388 1.0
C      1  0.6093198713615  0.4636709759648  0.5379958629117 1.0
C      1  0.3652855179271  0.5088325221634  0.5971166894087 1.0
C      1  0.6395177261091  0.6011802929564  0.4632861228709 1.0
C      1  0.3718831250001  0.4106150874950  0.4991882466685 1.0
C      1  0.6126578288006  0.5561339473377  0.5417865115054 1.0
C      1  0.3951170296527  0.4144734089674  0.5901668012436 1.0
C      1  0.7807487955751  0.5427228670438  0.2005261246417 1.0
C      1  0.2670080545531  0.4405432410988  0.1987527029940 1.0
C      1  0.7747946596607  0.5501723018276  0.7604609202109 1.0
C      1  0.2194771649824  0.4536327374416  0.7792944706706 1.0
C      1  0.7801569959017  0.4425413871151  0.2078418851387 1.0
C      1  0.2450872002185  0.5364946442422  0.1915758177887 1.0
C      1  0.7759734732965  0.4545732919097  0.7645993144571 1.0
C      1  0.2179434692558  0.5513501621532  0.7890648947353 1.0
C      1  0.1278234520514  0.5517896156933  0.7509391762292 1.0
C      1  0.8582340615414  0.4032327789482  0.7615003809647 1.0
C      1  0.1660351468571  0.5177501730976  0.2433613013041 1.0
C      1  0.8733230635604  0.4485273256894  0.2379670093136 1.0
C      1  0.1321741979325  0.4513918721028  0.7414038532323 1.0
C      1  0.8528165589726  0.6004979359457  0.7418350885273 1.0
C      1  0.1768370478693  0.4244819882332  0.2386522256423 1.0
C      1  0.8761237022723  0.5470246584623  0.2204068370767 1.0
C      1  0.7068571305496  0.3913708956797  0.2239459277683 1.0
C      1  0.2525984793202  0.6228102866882  0.2348447356476 1.0
C      1  0.6980008353025  0.4109537144218  0.7456463799737 1.0
C      1  0.2926042258970  0.6012283969758  0.7761270187500 1.0
C      1  0.7167629534947  0.6015323009933  0.2235912322196 1.0
C      1  0.3251417507804  0.3724870345228  0.2316057802836 1.0
C      1  0.6946655545941  0.5928014241378  0.7462154893939 1.0
C      1  0.2997609135095  0.4082870960159  0.7690893360060 1.0
C      1  0.8742990893746  0.6328400532091  0.6684303342836 1.0
C      1  0.1116596744135  0.4042631863499  0.6630471195049 1.0
C      1  0.8885674631194  0.6005187498239  0.2982368609186 1.0
C      1  0.1842233893570  0.3544207413275  0.2993727248141 1.0
C      1  0.8646303355264  0.3711154121813  0.6842088642697 1.0
C      1  0.1252484180364  0.5953246606529  0.6686757685410 1.0
C      1  0.8967832198458  0.4094286994825  0.3200085829713 1.0
C      1  0.1801287279066  0.5984420932478  0.2967396919991 1.0
C      1  0.6357609760844  0.4617011582575  0.3726334104676 1.0
C      1  0.3930746147525  0.5163273160502  0.4154193425234 1.0
C      1  0.5595313796835  0.4455023986717  0.6274377439016 1.0
C      1  0.3962519403064  0.5682037302860  0.6614318698128 1.0
C      1  0.6493475393471  0.5542791234057  0.3799435022136 1.0
C      1  0.4131501924378  0.4190746183130  0.4138695167752 1.0
C      1  0.5581495653767  0.5604201178318  0.6314069046992 1.0
C      1  0.4813119661414  0.3773146153487  0.6161419590756 1.0
C      1  0.4733434310013  0.4655912747994  0.9007477819281 1.0
C      1  0.5515595909544  0.5452914888806  0.8858662737280 1.0
C      1  0.4499876088892  0.5161403081362  0.1377505221115 1.0
C      1  0.5456196479361  0.6219296427231  0.1607613540771 1.0
C      1  0.4584736091881  0.5615183081626  0.9144557661925 1.0
C      1  0.5705460837168  0.4517445700501  0.8974816800182 1.0
C      1  0.4458329204911  0.6148534935345  0.1764765044216 1.0
C      1  0.5456263825908  0.5231077633447  0.1251375466977 1.0
C      1  0.6114358396658  0.2044459861271  0.6786793548993 1.0
C      1  0.3961158709285  0.8007116976313  0.6802712111402 1.0
C      1  0.5707549016711  0.2164180628081  0.3534289022208 1.0
C      1  0.3892609566346  0.8066141189387  0.3052655629447 1.0
C      1  0.6058018814695  0.7943951882803  0.6680814700053 1.0
C      1  0.4124179800113  0.2209183272900  0.6579160696909 1.0
C      1  0.5993507563650  0.8055237795828  0.3027980664950 1.0
C      1  0.3692036880106  0.1853777319633  0.3113825196928 1.0
C      1  0.7157392335963  0.7292094461987  0.3934632285881 1.0
C      1  0.2472059261199  0.2216325820962  0.4073166408428 1.0
C      1  0.7316127280277  0.7309794961663  0.5857948401296 1.0
C      1  0.2665929663594  0.2434708242873  0.5937048961570 1.0
C      1  0.7010032403255  0.2984741408292  0.4049438106888 1.0
C      1  0.2688599717647  0.7484641350453  0.3947064244296 1.0
C      1  0.7149145725021  0.2867215248290  0.5870815074161 1.0
C      1  0.2773120503454  0.7442409717585  0.5901341551879 1.0
C      1  0.3765295670324  0.1344152794243  0.3942294422790 1.0
C      1  0.5472648500696  0.7184347417128  0.4099766720950 1.0
C      1  0.3952345435241  0.1479405157726  0.5888515877411 1.0
C      1  0.5715991574875  0.7337610749482  0.5952319249695 1.0
C      1  0.4025209036116  0.8402990751072  0.3944020165844 1.0
C      1  0.5296110987728  0.3002677106782  0.3948658856278 1.0
C      1  0.4269319178445  0.7987373140673  0.5840337773291 1.0
C      1  0.5675158203200  0.2263510788089  0.5896266743273 1.0
C      1  0.5555102224366  0.2321683707654  0.7536803613736 1.0
C      1  0.4531180272545  0.7736401025983  0.7517110738922 1.0
C      1  0.5305154748163  0.2053491280632  0.2641053514519 1.0
C      1  0.4468114101292  0.7694614878721  0.2338990792140 1.0
C      1  0.5475633214905  0.7706929860830  0.7476236197299 1.0
C      1  0.4616279810897  0.2365243897377  0.7477699205094 1.0
C      1  0.5440453236856  0.7725914970355  0.2273051618670 1.0
C      1  0.4362152391603  0.2021256411932  0.2460620775541 1.0
C      1  0.9090646636052  0.4673387363825  0.4016679412287 1.0
C      1  0.1199170321969  0.5282534051023  0.4221720201796 1.0
C      1  0.9046808643079  0.4555639781883  0.5615130215267 1.0
C      1  0.1361376790616  0.5452464593983  0.5913768820413 1.0
C      1  0.8897922772420  0.5599477342988  0.3800078993249 1.0
C      1  0.1141130793494  0.4381106372110  0.4132597531696 1.0
C      1  0.9099232556872  0.5435173504651  0.5486298343540 1.0
C      1  0.1097758388927  0.4547839278457  0.5742163667268 1.0
C      1  0.3970058431908  0.6967946834639  0.1954469896790 1.0
C      1  0.5659089687183  0.2707603200526  0.2029821379981 1.0
C      1  0.4051672473908  0.7030864415146  0.7977703450549 1.0
C      1  0.5994210990254  0.3060223403951  0.7940229637853 1.0
C      1  0.4690608900031  0.2892704384814  0.2133477082628 1.0
C      1  0.5934325130564  0.7054235299869  0.1831241067209 1.0
C      1  0.4133487948536  0.3059620399634  0.7902836877378 1.0
C      1  0.5934406850672  0.6980334270865  0.7864876426970 1.0
C      1  0.4616840675970  0.3567583651697  0.3609132195780 1.0
C      1  0.4849999585581  0.6575014340336  0.3941181950129 1.0
C      1  0.4805415596617  0.7036380712541  0.5916689547010 1.0
C      1  0.4849629591819  0.2845226555033  0.6112137865450 1.0
C      1  0.9625958560491  0.4801376515573  0.4859663265086 1.0
C      1  0.0605379806333  0.4729687139078  0.4870208229857 1.0
C      1  0.4725086336626  0.6198023078448  0.6273622965076 1.0
END
