TITL C-5542-9635-55 -7.784 3375.00 -1261.01704697 0 0 152 (Ci) n - 1
REM
REM Run started: at 2021.01.04 02:11:24 in /gpfs/home/chem/mssmkc/CARBON/AIRSS/Generating-Clusters/Str-Search/Higher-Symm/C100-200
REM VASP from code version vasp.5.4.4.18Apr17-6-g9f103f2a35 (build Oct 11 2019 16:45:47) gamma-only
REM
REM
REM
REM
REM ./C.cell (533062f00bc710175b3da973d35f2034)
REM AIRSS Version 0.9.1 bugfix July 2018 build 013d7b7c2542+ Fri, 06 Jul 2018 19:26:36 +0100
REM compiler GCC version 6.3.0
REM options -cpp -iprefix /gpfs/warwick/csc/orac/software/Core/GCCcore/6.3.0/bin/../lib/gcc/x86_64-pc-linux-gnu/6.3.0/ -mtune=generic -march=x86-64 -g -O0
REM seed -521921317 1903212002 -1288662997 647504109 136867790 -520938247 -876849986 408611038 -2038314138 -2012096402 -908030765 -2097071137
REM
REM C.POTCAR (d86ddea03c3ceb6dc662c8ad6801f873)
REM 
CELL 1.54180   15.00000   15.00000   15.00000   90.00000   90.00000   90.00000
LATT -1
SFAC C  
C      1  0.5733459011550  0.3466897110003  0.5123050515786 1.0
C      1  0.4266540816335  0.6533100559182  0.4876914875538 1.0
C      1  0.7943088666461  0.3843068496538  0.3209271380410 1.0
C      1  0.2056902057378  0.6156929384995  0.6790755002290 1.0
C      1  0.7949333433415  0.6683317822100  0.6257235912001 1.0
C      1  0.2050682657191  0.3316667735445  0.3742745942957 1.0
C      1  0.2242631654622  0.7149895463407  0.5832218570087 1.0
C      1  0.7757372511716  0.2850090221488  0.4167799399116 1.0
C      1  0.5920649970188  0.4876900597565  0.3596846642939 1.0
C      1  0.4079363126410  0.5123093670221  0.6403127627658 1.0
C      1  0.7935103837355  0.6696012476938  0.3909901974157 1.0
C      1  0.2064907009531  0.3304002519303  0.6090140376921 1.0
C      1  0.4367621841254  0.5980459240010  0.6450062893058 1.0
C      1  0.5632391662400  0.4019525306204  0.3549890109582 1.0
C      1  0.4155878504999  0.4064349331655  0.7821251412975 1.0
C      1  0.5844126551745  0.5935673531444  0.2178749345602 1.0
C      1  0.5290765988930  0.5325183557997  0.7588494431678 1.0
C      1  0.4709234562408  0.4674825569793  0.2411482582533 1.0
C      1  0.6458212353334  0.6893263770978  0.7365088420118 1.0
C      1  0.3541778706415  0.3106716847350  0.2634896672296 1.0
C      1  0.4691878273671  0.6703973711472  0.1828473589154 1.0
C      1  0.5308115327487  0.3296060487689  0.8171548163583 1.0
C      1  0.8449196238558  0.3574461476584  0.4029844627555 1.0
C      1  0.1550807592714  0.6425528637700  0.5970177063331 1.0
C      1  0.5838331334875  0.6163737525706  0.5229691593705 1.0
C      1  0.4161673148375  0.3836279968112  0.4770257621504 1.0
C      1  0.6666118821354  0.2070379322088  0.6401650415453 1.0
C      1  0.3333872046373  0.7929622040047  0.3598377275411 1.0
C      1  0.8503301850786  0.6278084174125  0.5535750111052 1.0
C      1  0.1496701632104  0.3721906716451  0.4464256551743 1.0
C      1  0.4788271682869  0.6927054999886  0.4055751314435 1.0
C      1  0.5211710178299  0.3072950579326  0.5944221388349 1.0
C      1  0.2974111442501  0.5294701682015  0.4968748849415 1.0
C      1  0.7025890311076  0.4705288056258  0.5031235843244 1.0
C      1  0.5673403756081  0.7520935551373  0.2931272036983 1.0
C      1  0.4326605079416  0.2479095278431  0.7068744733919 1.0
C      1  0.9077209571426  0.5658893815691  0.4206814086769 1.0
C      1  0.0922791208503  0.4341104460325  0.5793188124939 1.0
C      1  0.5920102217898  0.2365900834859  0.3732138769951 1.0
C      1  0.4079899875196  0.7634080706573  0.6267868090854 1.0
C      1  0.3304474846735  0.2363622497142  0.3139307020522 1.0
C      1  0.6695531054831  0.7636363512673  0.6860694503715 1.0
C      1  0.2166564873732  0.5096218342507  0.4426006909580 1.0
C      1  0.7833441849289  0.4903762842520  0.5573983042695 1.0
C      1  0.0531945683673  0.5004382280901  0.5115802893684 1.0
C      1  0.9468059109902  0.4995614394196  0.4884198026998 1.0
C      1  0.6377445621117  0.4337109445967  0.1860923887727 1.0
C      1  0.3622554005712  0.5662908052166  0.8139072502853 1.0
C      1  0.6509113830105  0.2459069977127  0.7268303357619 1.0
C      1  0.3490864279132  0.7540948137784  0.2731743801876 1.0
C      1  0.5539339695684  0.6908670879226  0.2285464043611 1.0
C      1  0.4460663884940  0.3091344842734  0.7714550419010 1.0
C      1  0.5804781894059  0.1539866806157  0.5087821297136 1.0
C      1  0.4195208833609  0.8460134344169  0.4912199993565 1.0
C      1  0.3094744438681  0.3899960030295  0.2547228946626 1.0
C      1  0.6905258196050  0.6100034908127  0.7452760057077 1.0
C      1  0.5862094880326  0.1706053191590  0.6033126150699 1.0
C      1  0.4137885642800  0.8293957179433  0.3966893810255 1.0
C      1  0.6098572005876  0.3509114937781  0.2408054306152 1.0
C      1  0.3901449553589  0.6490887109987  0.7591941856111 1.0
C      1  0.5559495039449  0.6868063154974  0.6968382582273 1.0
C      1  0.4440507335539  0.3131921724258  0.3031576656406 1.0
C      1  0.5896521594308  0.8628760622565  0.4919987720492 1.0
C      1  0.4103469308354  0.1371254118176  0.5080038123345 1.0
C      1  0.5026960563357  0.7854096550257  0.3691352817393 1.0
C      1  0.4973038436265  0.2145919610237  0.6308654847634 1.0
C      1  0.8080010281046  0.2879707554447  0.6153805142048 1.0
C      1  0.1919975698802  0.7120256174533  0.3846221969099 1.0
C      1  0.6087633952925  0.2835280113300  0.7873566271283 1.0
C      1  0.3912361853535  0.7164688570423  0.2126431521311 1.0
C      1  0.6748918303471  0.8653582521352  0.5317457863008 1.0
C      1  0.3251051869344  0.1346425652133  0.4682559498463 1.0
C      1  0.1223909617188  0.5011428242615  0.6378739641881 1.0
C      1  0.8776090004784  0.4988565830300  0.3621271822176 1.0
C      1  0.8570790070895  0.6396643424511  0.4572597933413 1.0
C      1  0.1429221868767  0.3603347535146  0.5427422232101 1.0
C      1  0.5874293699582  0.8174985030571  0.4123262868010 1.0
C      1  0.4125685479826  0.1825025565300  0.5876766088085 1.0
C      1  0.2336909412706  0.3989460114939  0.3115072962261 1.0
C      1  0.7663090466571  0.6010525437641  0.6884914312236 1.0
C      1  0.1216331328373  0.4747485321386  0.4378563831177 1.0
C      1  0.8783662105798  0.5252507057013  0.5621439104195 1.0
C      1  0.3333653670873  0.4715457168389  0.7846017736954 1.0
C      1  0.6666357228962  0.5284566896816  0.2153987052442 1.0
C      1  0.2597666764702  0.7682370887718  0.4185825051672 1.0
C      1  0.7402335201860  0.2317625467540  0.5814200918590 1.0
C      1  0.4514006404494  0.3394378375276  0.4036366942541 1.0
C      1  0.5486022996898  0.6605615145711  0.5963608647412 1.0
C      1  0.6431813141444  0.7669350724395  0.3513473068059 1.0
C      1  0.3568179099049  0.2330661610957  0.6486564238700 1.0
C      1  0.2642814360680  0.6942794268019  0.6688208300110 1.0
C      1  0.7357189790511  0.3057196212506  0.3311808700166 1.0
C      1  0.3270319958152  0.5255827634206  0.3129672496824 1.0
C      1  0.6729670001415  0.4744182911257  0.6870301704893 1.0
C      1  0.2561426775068  0.4533892709303  0.7333509945667 1.0
C      1  0.7438580833152  0.5466127538097  0.2666502804083 1.0
C      1  0.5047918504503  0.5908428591646  0.1482135074969 1.0
C      1  0.4952097433063  0.4091609772501  0.8517859016871 1.0
C      1  0.4744788714201  0.5988498986029  0.3599380739576 1.0
C      1  0.5255199833291  0.4011510505525  0.6400587778873 1.0
C      1  0.2454465672526  0.3687716547202  0.6859068153924 1.0
C      1  0.7545550093583  0.6312281415723  0.3140944553219 1.0
C      1  0.8044854597487  0.4756840222520  0.3018075419878 1.0
C      1  0.1955128623709  0.5243168471587  0.6981946475113 1.0
C      1  0.5052105680934  0.5056286563135  0.8594125491117 1.0
C      1  0.4947899479450  0.4943738286893  0.1405861902664 1.0
C      1  0.6467451569451  0.4017466088173  0.5463262805795 1.0
C      1  0.3532538669074  0.5982527911825  0.4536713537401 1.0
C      1  0.5149826981065  0.3769163042629  0.2706152758900 1.0
C      1  0.4850177944937  0.6230831265670  0.7293794700654 1.0
C      1  0.3500010285729  0.7164734352531  0.7027221728880 1.0
C      1  0.6500005337969  0.2835255507956  0.2972780664575 1.0
C      1  0.6580665159569  0.5131164017298  0.4238535104266 1.0
C      1  0.3419333951444  0.4868815258392  0.5761427241772 1.0
C      1  0.4293137519650  0.5512422875840  0.8748096395083 1.0
C      1  0.5706870636224  0.4487605475298  0.1251910865197 1.0
C      1  0.5030542699177  0.1779474014887  0.3742207980125 1.0
C      1  0.4969451780142  0.8220514399006  0.6257798529776 1.0
C      1  0.4971653168494  0.1390688529919  0.4613716751832 1.0
C      1  0.5028343086474  0.8609316799652  0.5386305635348 1.0
C      1  0.4480120981440  0.6736168988758  0.5825080337420 1.0
C      1  0.5519858476806  0.3263815485526  0.4174894789717 1.0
C      1  0.8494044292962  0.3582129968365  0.6286852451601 1.0
C      1  0.1505963820184  0.6417882652502  0.3713176352953 1.0
C      1  0.1561455952900  0.5466716422107  0.3713877746124 1.0
C      1  0.8438542594765  0.4533271561748  0.6286120051395 1.0
C      1  0.4858826028166  0.3820702910175  0.5467493974396 1.0
C      1  0.5141170894839  0.6179304027516  0.4532468106777 1.0
C      1  0.3786242712728  0.5779127333702  0.3685487185333 1.0
C      1  0.6213745646000  0.4220866390469  0.6314488634782 1.0
C      1  0.0956535649128  0.5723830886982  0.5773774167640 1.0
C      1  0.9043476334191  0.4276160637346  0.4226235305837 1.0
C      1  0.3422500837421  0.4334725143082  0.5038774060950 1.0
C      1  0.6577516925328  0.5665269340312  0.4961194820845 1.0
C      1  0.4673889881788  0.4564755899932  0.7027566337440 1.0
C      1  0.5326112806265  0.5435238317240  0.2972420424678 1.0
C      1  0.2813972595016  0.2883283244662  0.6471973920497 1.0
C      1  0.7186016643302  0.7116714134182  0.3528066070431 1.0
C      1  0.7267946905821  0.2318541090372  0.4839396074081 1.0
C      1  0.2732055932321  0.7681455011299  0.5160626751386 1.0
C      1  0.5694720421071  0.7841750007487  0.6710720536011 1.0
C      1  0.4305288089960  0.2158244898389  0.3289272610302 1.0
C      1  0.7389207253728  0.8216681915962  0.5613741003284 1.0
C      1  0.2610787798754  0.1783314119137  0.4386276253888 1.0
C      1  0.7468742916987  0.7547385964780  0.6275207657685 1.0
C      1  0.2531265637014  0.2452608079763  0.3724794051244 1.0
C      1  0.2370215349141  0.4930966515916  0.3423922152950 1.0
C      1  0.7629777542046  0.5069027052500  0.6576061083914 1.0
C      1  0.3553929949126  0.8032365737037  0.5481172452713 1.0
C      1  0.6446065599531  0.1967636078113  0.4518836501373 1.0
C      1  0.3691996207459  0.4674455196997  0.2556574446532 1.0
C      1  0.6307994690478  0.5325531659730  0.7443399797054 1.0
END
