TITL C-5542-9635-59 -5.02 3375.00 -821.58961255 0 0 102 (C2h) n - 1
REM
REM Run started: at 2021.01.04 06:09:26 in /gpfs/home/chem/mssmkc/CARBON/AIRSS/Generating-Clusters/Str-Search/Higher-Symm/C100-200
REM VASP from code version vasp.5.4.4.18Apr17-6-g9f103f2a35 (build Oct 11 2019 16:45:47) gamma-only
REM
REM
REM
REM
REM ./C.cell (533062f00bc710175b3da973d35f2034)
REM AIRSS Version 0.9.1 bugfix July 2018 build 013d7b7c2542+ Fri, 06 Jul 2018 19:26:36 +0100
REM compiler GCC version 6.3.0
REM options -cpp -iprefix /gpfs/warwick/csc/orac/software/Core/GCCcore/6.3.0/bin/../lib/gcc/x86_64-pc-linux-gnu/6.3.0/ -mtune=generic -march=x86-64 -g -O0
REM seed -2029261729 -1619769872 857129917 20367951 1049697781 -1259518919 -231334334 -1266238336 691343643 120533492 -286069071 1885594903
REM
REM C.POTCAR (d86ddea03c3ceb6dc662c8ad6801f873)
REM 
CELL 1.54180   15.00000   15.00000   15.00000   90.00000   90.00000   90.00000
LATT -1
SFAC C  
C      1  0.4569410886932  0.8099748008978  0.3969037176024 1.0
C      1  0.8104912104377  0.3504261667017  0.4023972931889 1.0
C      1  0.2347466673623  0.2780761548890  0.3975180235469 1.0
C      1  0.4569472077361  0.1900244551673  0.6030930669298 1.0
C      1  0.8105051528989  0.6495688175087  0.5976056106738 1.0
C      1  0.2347619758033  0.7219257423002  0.6024689730437 1.0
C      1  0.5430613062061  0.1900235438552  0.6030953910602 1.0
C      1  0.1895097003245  0.6495737415479  0.5976020065970 1.0
C      1  0.7652541747309  0.7219220565662  0.6024809130302 1.0
C      1  0.5430535011513  0.8099718154130  0.3969050436416 1.0
C      1  0.1894959024026  0.3504300564727  0.4023927415162 1.0
C      1  0.7652389191098  0.2780748830537  0.3975280249804 1.0
C      1  0.5499289666210  0.4081373700657  0.3763603184680 1.0
C      1  0.3998502585469  0.5011048328593  0.3735353089394 1.0
C      1  0.5520548439494  0.5908217862186  0.3704031339256 1.0
C      1  0.5499327760214  0.5918623137127  0.6236410666901 1.0
C      1  0.3998508389226  0.4988987674790  0.6264688517531 1.0
C      1  0.5520537356960  0.4091785254155  0.6295958849526 1.0
C      1  0.4500711256510  0.5918634877523  0.6236407571326 1.0
C      1  0.6001493387703  0.4988969788858  0.6264673976381 1.0
C      1  0.4479452499358  0.4091784920401  0.6295980687478 1.0
C      1  0.4500662960654  0.4081395988370  0.3763610287420 1.0
C      1  0.6001489216396  0.5011020105270  0.3735324620240 1.0
C      1  0.4479458215164  0.5908228158082  0.3704057000988 1.0
C      1  0.6666554754403  0.3657318520421  0.7406372050604 1.0
C      1  0.2956342456097  0.4514640215201  0.7425373326324 1.0
C      1  0.5477138286771  0.7014970736217  0.7468922711857 1.0
C      1  0.6666558972539  0.6342628107727  0.2593590951878 1.0
C      1  0.2956298012713  0.5485380688562  0.2574627743909 1.0
C      1  0.5477093952437  0.2985060316238  0.2531088587335 1.0
C      1  0.3333447944124  0.6342682537106  0.2593635515413 1.0
C      1  0.7043658614039  0.5485347083594  0.2574618939180 1.0
C      1  0.4522847029004  0.2985043461927  0.2531087704900 1.0
C      1  0.3333433973193  0.3657352779734  0.7406389780330 1.0
C      1  0.7043694520126  0.4514629817346  0.7425379041368 1.0
C      1  0.4522890493630  0.7014960724884  0.7468902077539 1.0
C      1  0.5864680188015  0.3842779681053  0.2811265975912 1.0
C      1  0.3649637616589  0.4802354595703  0.2759649395722 1.0
C      1  0.5739047773554  0.6431691795729  0.2791282957011 1.0
C      1  0.5864710402318  0.6157197959669  0.7188761484523 1.0
C      1  0.3649661316092  0.5197705195093  0.7240381856684 1.0
C      1  0.5739040668020  0.3568270735702  0.7208727794458 1.0
C      1  0.4135307427883  0.6157234918498  0.7188745155517 1.0
C      1  0.6350347375187  0.5197651601656  0.7240384105416 1.0
C      1  0.4260951895614  0.3568297755167  0.7208709408959 1.0
C      1  0.4135282207422  0.3842818990735  0.2811265072452 1.0
C      1  0.6350333469673  0.4802291295398  0.2759627223458 1.0
C      1  0.4260957775035  0.6431727988063  0.2791282493759 1.0
C      1  0.3001887432800  0.7393789271601  0.3754671644824 1.0
C      1  0.8225012766766  0.5173077914391  0.3706215425358 1.0
C      1  0.3760912764374  0.1938538884477  0.3531673071975 1.0
C      1  0.3001928227571  0.2606275175667  0.6245305878682 1.0
C      1  0.8225099506891  0.4826860747166  0.6293843740825 1.0
C      1  0.3761038328003  0.8061462180261  0.6468229170598 1.0
C      1  0.6998112794551  0.2606206606419  0.6245348234906 1.0
C      1  0.1775002635809  0.4826900850061  0.6293759976779 1.0
C      1  0.6239105619057  0.8061432872372  0.6468298176170 1.0
C      1  0.6998083267398  0.7393707101346  0.3754671225555 1.0
C      1  0.1774908995735  0.5173140525216  0.3706156021113 1.0
C      1  0.6238976102121  0.1938555571313  0.3531744253340 1.0
C      1  0.7314003224578  0.3317065118386  0.6736378115384 1.0
C      1  0.2241310554174  0.4214637518234  0.6760710034866 1.0
C      1  0.5500065877422  0.7865068734206  0.6949547427550 1.0
C      1  0.7313962997117  0.6682916987834  0.3263605041465 1.0
C      1  0.2241287494943  0.5785385320399  0.3239260349112 1.0
C      1  0.5499959694637  0.2134915013117  0.3050454547847 1.0
C      1  0.2685985158215  0.6682931331757  0.3263629511717 1.0
C      1  0.7758688600552  0.5785355818237  0.3239265284072 1.0
C      1  0.4499926734556  0.2134944777278  0.3050444902943 1.0
C      1  0.2686039355095  0.3317062307586  0.6736369053181 1.0
C      1  0.7758700464938  0.4214613748393  0.6760748973482 1.0
C      1  0.4500029006052  0.7865096506005  0.6949521057134 1.0
C      1  0.4044023733988  0.6104468955269  0.5362342799811 1.0
C      1  0.6423025295105  0.5268639843635  0.5381980086984 1.0
C      1  0.4521862623098  0.3642431616290  0.5395482844889 1.0
C      1  0.4043962429007  0.3895548225408  0.4637686349051 1.0
C      1  0.6423013010746  0.4731344448424  0.4618033786858 1.0
C      1  0.4521885706317  0.6357604810151  0.4604554981900 1.0
C      1  0.5955980104234  0.3895541890311  0.4637673966110 1.0
C      1  0.3576971611132  0.4731361981012  0.4618039738219 1.0
C      1  0.5478146205914  0.6357573849124  0.4604535499614 1.0
C      1  0.5956032970500  0.6104475693734  0.5362330282341 1.0
C      1  0.3576983563610  0.5268677534810  0.5381992868852 1.0
C      1  0.5478126627362  0.3642404762458  0.5395462404951 1.0
C      1  0.6264873888593  0.2165366454980  0.6127847050787 1.0
C      1  0.1708104500909  0.5655861192414  0.6097092307980 1.0
C      1  0.6997727344208  0.7757089004338  0.6220348899172 1.0
C      1  0.6264813324398  0.7834610614455  0.3872190773137 1.0
C      1  0.1707895929763  0.4344152377939  0.3902824043014 1.0
C      1  0.6997561229016  0.2242851528326  0.3779761936196 1.0
C      1  0.3735138516444  0.7834623015116  0.3872157247166 1.0
C      1  0.8291917801262  0.4344144519488  0.3902901820537 1.0
C      1  0.3002262718953  0.2242893796092  0.3779646233462 1.0
C      1  0.3735205334109  0.2165370876247  0.6127791277003 1.0
C      1  0.8292093103405  0.5655814211251  0.6097146170835 1.0
C      1  0.3002424517034  0.7757159992781  0.6220200393420 1.0
C      1  0.5446034459874  0.4637719012486  0.2356667454226 1.0
C      1  0.4999979657909  0.6711952884700  0.2331321871818 1.0
C      1  0.5000014558147  0.3288032945327  0.7668676619248 1.0
C      1  0.4553953589117  0.5362299614571  0.7643355504069 1.0
C      1  0.4553919896661  0.4637715103138  0.2356694249060 1.0
C      1  0.5446071219433  0.5362298722843  0.7643330216672 1.0
END
