TITL C-55605-4846-1 -8.144 3375.00 -1442.60067144 0 0 175 (C1) n - 1
REM
REM Run started: at 2020.12.21 21:35:17 in /rds/project/t2_vol4/rds-t2-cs072/BORA/CARBON/AIRSS/Generating-Clusters/Str-Search/Higher-Symm/C100-200
REM VASP from code version vasp.5.4.4.18Apr17-6-g9f103f2a35 (build Oct 11 2019 16:45:47) gamma-only
REM
REM
REM
REM
REM ./C.cell (533062f00bc710175b3da973d35f2034)
REM AIRSS Version 0.9.1 bugfix July 2018 build 013d7b7c2542+ Fri, 06 Jul 2018 19:26:36 +0100
REM compiler GCC version 4.8.5 20150623 (Red Hat 4.8.5-39)
REM options -cpp -mtune=generic -march=x86-64 -g -O0
REM seed 151800008 764516356 -468159856 1032914315 1435179650 692782995 -1646951927 -922703094 128953711 -536082370 978204816 803167578
REM
REM C.POTCAR (d86ddea03c3ceb6dc662c8ad6801f873)
REM 
CELL 1.54180   15.00000   15.00000   15.00000   90.00000   90.00000   90.00000
LATT -1
SFAC C  
C      1  0.7000929703889  0.6720346274432  0.7662726268557 1.0
C      1  0.8877831194607  0.6242792466495  0.5188480812720 1.0
C      1  0.8393623145475  0.6699911965962  0.3708366834255 1.0
C      1  0.6653896972144  0.6145116697535  0.1607734222300 1.0
C      1  0.5122928732313  0.6678216905395  0.1474466026509 1.0
C      1  0.2924153664222  0.6300585767843  0.1886832979167 1.0
C      1  0.1610716580027  0.6352244391316  0.3609622100164 1.0
C      1  0.1629246979323  0.6722976775961  0.5187863087145 1.0
C      1  0.2221967189027  0.6242842594051  0.7372576727441 1.0
C      1  0.3730593941336  0.6437793316281  0.8085809273617 1.0
C      1  0.5717482837700  0.6133519738867  0.8479606164926 1.0
C      1  0.6899742276825  0.4324953393757  0.8420718738841 1.0
C      1  0.8579141518106  0.4451385118201  0.6924840848474 1.0
C      1  0.8842134004629  0.4393201829370  0.4620184554631 1.0
C      1  0.8238151583152  0.4259285599431  0.2350055513035 1.0
C      1  0.6178068613953  0.4360384840514  0.1360241992416 1.0
C      1  0.3965535747533  0.4236248671287  0.1066832366563 1.0
C      1  0.2019239743027  0.4189540042706  0.2149186072070 1.0
C      1  0.1455227092799  0.4458020134478  0.4238789124943 1.0
C      1  0.1170523975997  0.4234123368249  0.6545385243782 1.0
C      1  0.2798198945359  0.4219772434087  0.8236062881490 1.0
C      1  0.4811826127584  0.3888326675048  0.9177093079799 1.0
C      1  0.3325155425824  0.3434900771111  0.8308833872045 1.0
C      1  0.5468821251303  0.3306622949849  0.8808460837415 1.0
C      1  0.7260862213214  0.3802678478559  0.7734973054051 1.0
C      1  0.8415461728648  0.3764953464714  0.6219458361258 1.0
C      1  0.8508143847568  0.3727413257564  0.4039914583316 1.0
C      1  0.7516673420510  0.3592851496275  0.2236134879486 1.0
C      1  0.5525782567979  0.3687093949028  0.1379920873051 1.0
C      1  0.3454990233226  0.3504294067267  0.1494073798196 1.0
C      1  0.2121960884237  0.3682047733507  0.2938539293170 1.0
C      1  0.1485859139964  0.3766928194741  0.4875304376108 1.0
C      1  0.1785851825502  0.3539478489912  0.6897291144320 1.0
C      1  0.3723347363656  0.7160436558513  0.3148327143083 1.0
C      1  0.3037140380342  0.7548399744335  0.3818073202938 1.0
C      1  0.2939905353945  0.7564949520540  0.5932724274106 1.0
C      1  0.3542851175005  0.6975364758937  0.6528009766501 1.0
C      1  0.4395155952724  0.7421038495941  0.6969866504599 1.0
C      1  0.5265384514793  0.6854095276073  0.7033125512447 1.0
C      1  0.6947100122002  0.7635805718190  0.6186546935020 1.0
C      1  0.7316026331047  0.6937424344439  0.5552181123259 1.0
C      1  0.6896615413964  0.7554807466831  0.3621992672843 1.0
C      1  0.6339644067046  0.6856537961878  0.3177971875747 1.0
C      1  0.4501916332753  0.7690468814270  0.2756644547620 1.0
C      1  0.4117389286967  0.6304727501358  0.3622608655153 1.0
C      1  0.3402620066226  0.5751665078468  0.4177593485537 1.0
C      1  0.3441150946073  0.5971820583784  0.5050970553245 1.0
C      1  0.3894172627223  0.6267035969492  0.5795052452885 1.0
C      1  0.4823305581333  0.5961003690365  0.5820878250164 1.0
C      1  0.5494868282394  0.6167500475271  0.6436021916024 1.0
C      1  0.6372033318134  0.5711363736678  0.6161709852636 1.0
C      1  0.6622886012063  0.6238071169777  0.5326163138757 1.0
C      1  0.6092790244558  0.5964389434458  0.4629114000672 1.0
C      1  0.5724468215415  0.6265004461586  0.3719463482239 1.0
C      1  0.4906219893588  0.5791628017354  0.3195596945042 1.0
C      1  0.3696211110651  0.4334835042001  0.6283550663476 1.0
C      1  0.4487136566494  0.4324339675617  0.6740121990768 1.0
C      1  0.5512073814272  0.4373060224698  0.6700027200548 1.0
C      1  0.6250652361189  0.4684354398828  0.6089460245218 1.0
C      1  0.6802667738244  0.4434196512484  0.5243281912489 1.0
C      1  0.6729055171636  0.4380867299078  0.4328777504772 1.0
C      1  0.6075066934761  0.4194817443971  0.3668319790572 1.0
C      1  0.5120020129932  0.4272601128942  0.3809621900651 1.0
C      1  0.4137888992967  0.3899060025162  0.3868236082361 1.0
C      1  0.3447049767242  0.4180972875495  0.4499138915515 1.0
C      1  0.3291328244902  0.4355115187303  0.5385828414611 1.0
C      1  0.5569733604896  0.5063904417961  0.1086501714652 1.0
C      1  0.3176947247389  0.4820219918637  0.1088147935280 1.0
C      1  0.1746547851807  0.5005012434341  0.2654490659727 1.0
C      1  0.1245882862888  0.5178153598396  0.4804884486455 1.0
C      1  0.1414492042660  0.4868530589856  0.7223961573658 1.0
C      1  0.3515896590770  0.4825022687894  0.8562839580662 1.0
C      1  0.5320861200251  0.4695885255735  0.9145649451766 1.0
C      1  0.7204179971644  0.5173713002716  0.8154492254391 1.0
C      1  0.8984903829708  0.5080596281342  0.6296970785311 1.0
C      1  0.8842334239324  0.5108979217113  0.3990048411340 1.0
C      1  0.7755077796752  0.4958902321292  0.1860801269670 1.0
C      1  0.4026137764803  0.8676234343242  0.3960950187669 1.0
C      1  0.3344857459821  0.8227111369248  0.4428258902145 1.0
C      1  0.3337194810042  0.8284571448008  0.5435413195459 1.0
C      1  0.4082258081848  0.8689372547812  0.5857098797218 1.0
C      1  0.4630456217475  0.8323666918218  0.6586642146668 1.0
C      1  0.5465974367063  0.8574109063294  0.6172930752977 1.0
C      1  0.6361405328339  0.8319396754450  0.5842543398308 1.0
C      1  0.6379871610319  0.8659620773766  0.4917342461341 1.0
C      1  0.6434576927750  0.8299227841160  0.4020136921453 1.0
C      1  0.5583537355892  0.8713216796782  0.3773128639339 1.0
C      1  0.4737845009395  0.8421095025545  0.3367254208318 1.0
C      1  0.5314905166781  0.2682887476030  0.8090368029143 1.0
C      1  0.6867657932778  0.3025948371188  0.7337046322695 1.0
C      1  0.7860316941259  0.3016459971752  0.5973134052336 1.0
C      1  0.7941509622605  0.2978294626901  0.4218624651389 1.0
C      1  0.7105317718471  0.2869142013124  0.2709221869855 1.0
C      1  0.5492913284852  0.2944161953379  0.1962444787172 1.0
C      1  0.3772055455252  0.2845787853828  0.2107283892528 1.0
C      1  0.2499965100144  0.2875809367500  0.3235278960996 1.0
C      1  0.1984881906542  0.2963421548513  0.4873210303334 1.0
C      1  0.2325984117934  0.2822887878791  0.6544952253205 1.0
C      1  0.3565899047152  0.2696948250379  0.7745321402722 1.0
C      1  0.2434397488094  0.4612545032848  0.5801303497051 1.0
C      1  0.2799795600247  0.4504726624044  0.6652471287386 1.0
C      1  0.4565591954674  0.4211741141480  0.7702186236175 1.0
C      1  0.5499954428379  0.4295354477566  0.7666604218730 1.0
C      1  0.7133889855551  0.5018112762786  0.6501928788956 1.0
C      1  0.7587792487435  0.4720526229074  0.5664357670257 1.0
C      1  0.7366847176346  0.4603021941538  0.3577929773624 1.0
C      1  0.6676873666852  0.4506129330858  0.2956268462262 1.0
C      1  0.4695425070987  0.4910781425869  0.3152436900683 1.0
C      1  0.3819309391599  0.4512219899345  0.3226422194782 1.0
C      1  0.3036190587620  0.4824297355917  0.3804113252122 1.0
C      1  0.3796910318049  0.2176250767449  0.6249003461712 1.0
C      1  0.4672754668039  0.2180331337878  0.6694054030299 1.0
C      1  0.5647225719364  0.2267698168398  0.6572266317958 1.0
C      1  0.6395692151165  0.2334327795501  0.5951090086534 1.0
C      1  0.6726669137883  0.2333864099057  0.5034114111422 1.0
C      1  0.6493512662117  0.2289407580096  0.4083837888168 1.0
C      1  0.5766141205540  0.2291028911841  0.3405605362637 1.0
C      1  0.4803438062171  0.2250092456302  0.3223614584538 1.0
C      1  0.3896425252043  0.2208155445230  0.3602169820579 1.0
C      1  0.3344396520768  0.2214139671162  0.4426351465873 1.0
C      1  0.3308041116942  0.2208018589404  0.5402398432777 1.0
C      1  0.4015393833391  0.5651689461969  0.8571948842385 1.0
C      1  0.5016735567885  0.5556714218102  0.8839154395142 1.0
C      1  0.6693424466078  0.5996961591384  0.8188009137728 1.0
C      1  0.9329139867857  0.5797445371095  0.5915596436445 1.0
C      1  0.8826477449503  0.6037824170054  0.4198325550149 1.0
C      1  0.7485749897289  0.5690096023369  0.1456395811766 1.0
C      1  0.5720967099337  0.5991671857389  0.1229501735079 1.0
C      1  0.3090527720774  0.5687302902800  0.1339665561378 1.0
C      1  0.1433388321436  0.5798112685239  0.2883433272203 1.0
C      1  0.1371660362401  0.6102934855076  0.4557175711198 1.0
C      1  0.1521947303381  0.5773516423530  0.7318795317947 1.0
C      1  0.6594795114389  0.6543694492946  0.2399788167462 1.0
C      1  0.4889203782276  0.7284929758485  0.2016260404186 1.0
C      1  0.2925100427272  0.6812609047015  0.2632550850151 1.0
C      1  0.2344841674756  0.6986248063004  0.3394624492024 1.0
C      1  0.2176517764584  0.7176503436965  0.5615314437534 1.0
C      1  0.3073809818406  0.6536924154118  0.7351816294033 1.0
C      1  0.4394245367115  0.7075198581473  0.7930722972651 1.0
C      1  0.5315682625719  0.6827531852488  0.7973143158208 1.0
C      1  0.7008371868666  0.7294602286477  0.7051174332113 1.0
C      1  0.8152593094183  0.6696824852672  0.5449059779788 1.0
C      1  0.7769009235086  0.7263886636941  0.3685524937094 1.0
C      1  0.7292430221954  0.2624307211144  0.3610575679433 1.0
C      1  0.6173757759042  0.2661690501113  0.2592223692041 1.0
C      1  0.4680683348705  0.2619712342393  0.2314795608337 1.0
C      1  0.3303330299264  0.2526728297324  0.2875793068508 1.0
C      1  0.2504845639656  0.2637043963844  0.4146526602514 1.0
C      1  0.2420584280526  0.2599445598537  0.5634753498943 1.0
C      1  0.3148179520493  0.2495657919701  0.6930541886794 1.0
C      1  0.4499436920907  0.2440028204470  0.7633073125780 1.0
C      1  0.5994527750959  0.2600983118678  0.7436830078285 1.0
C      1  0.7121430964237  0.2736008270542  0.6476462491728 1.0
C      1  0.7640653893230  0.2723658823238  0.5086113081518 1.0
C      1  0.2662498986351  0.4082843559637  0.1470224822227 1.0
C      1  0.2072470701114  0.4512162860138  0.3498018567694 1.0
C      1  0.1439714910239  0.4487417293057  0.5600114186163 1.0
C      1  0.2200596714633  0.4285985226286  0.7464147560899 1.0
C      1  0.4069286193656  0.4006750763982  0.8580838438146 1.0
C      1  0.5977494401555  0.4166724340326  0.8594053593081 1.0
C      1  0.7668545022766  0.4684715263028  0.7335989598720 1.0
C      1  0.8553657242475  0.4478813793096  0.5550213381839 1.0
C      1  0.8340727779775  0.4465710463270  0.3340982966003 1.0
C      1  0.6909579434112  0.4349355570734  0.1985690550190 1.0
C      1  0.4859950251271  0.4350566890172  0.1076262282685 1.0
C      1  0.5062447235636  0.4664716965075  0.4782385015072 1.0
C      1  0.4923886058355  0.7965273051659  0.5001946358302 1.0
C      1  0.5376211498472  0.1024565100096  0.4802564044645 1.0
C      1  0.4869827302626  0.6438364247048  0.4298296166732 1.0
C      1  0.5624032891349  0.0237818755023  0.4653914597720 1.0
C      1  0.4879614342581  0.7183493447334  0.4839861011343 1.0
C      1  0.5102540559537  0.3911089324820  0.5242760146663 1.0
C      1  0.5163408382527  0.5633081796897  0.4936608250007 1.0
C      1  0.5576753941793  0.9285747440422  0.4653307336185 1.0
C      1  0.4950949481405  0.8856684466578  0.5340417714676 1.0
END
