TITL C-55605-4846-9 -7.478 3375.00 -1290.85890047 0 0 157 (C1) n - 1
REM
REM Run started: at 2020.12.22 07:10:08 in /rds/project/t2_vol4/rds-t2-cs072/BORA/CARBON/AIRSS/Generating-Clusters/Str-Search/Higher-Symm/C100-200
REM VASP from code version vasp.5.4.4.18Apr17-6-g9f103f2a35 (build Oct 11 2019 16:45:47) gamma-only
REM
REM
REM
REM
REM ./C.cell (533062f00bc710175b3da973d35f2034)
REM AIRSS Version 0.9.1 bugfix July 2018 build 013d7b7c2542+ Fri, 06 Jul 2018 19:26:36 +0100
REM compiler GCC version 4.8.5 20150623 (Red Hat 4.8.5-39)
REM options -cpp -mtune=generic -march=x86-64 -g -O0
REM seed 1620277536 465903554 -1879065569 -817534418 -922798927 -1861961161 1144393669 106899043 1450099199 636565335 -895406872 -517104678
REM
REM C.POTCAR (d86ddea03c3ceb6dc662c8ad6801f873)
REM 
CELL 1.54180   15.00000   15.00000   15.00000   90.00000   90.00000   90.00000
LATT -1
SFAC C  
C      1  0.2583859666216  0.5821432782047  0.2320167258523 1.0
C      1  0.2653177800736  0.2624011592043  0.3259588592620 1.0
C      1  0.2971905904608  0.2565360060111  0.6777049275639 1.0
C      1  0.2918986576811  0.5903457584699  0.7694501480343 1.0
C      1  0.3004012562332  0.7560892503195  0.5506345425326 1.0
C      1  0.7347725702366  0.7334706272314  0.3851403904209 1.0
C      1  0.7532773708475  0.5625009854304  0.2674433777174 1.0
C      1  0.7512429960637  0.2624704634933  0.3575193973882 1.0
C      1  0.8020312986301  0.3227628178762  0.5744314053755 1.0
C      1  0.7782202135291  0.5980133944704  0.7182722789115 1.0
C      1  0.4256214948731  0.7956789826194  0.3358946564917 1.0
C      1  0.4507286602002  0.4290107181282  0.2083948785535 1.0
C      1  0.4447667381765  0.1612928623522  0.4625089072880 1.0
C      1  0.4720384911645  0.3779151269988  0.8005833218137 1.0
C      1  0.4692679647194  0.7435878597890  0.7151000536267 1.0
C      1  0.4080901380024  0.3666564579367  0.5955962320451 1.0
C      1  0.4377397825682  0.5598926056388  0.6526495396797 1.0
C      1  0.4246684072983  0.6657023872705  0.4787113322918 1.0
C      1  0.3876456793171  0.5369697641465  0.3489057891679 1.0
C      1  0.4073156608873  0.3404875073947  0.4039827761183 1.0
C      1  0.6592734744422  0.5504617697928  0.1674100023628 1.0
C      1  0.6127570696197  0.1806436474298  0.3672310669519 1.0
C      1  0.6863309341003  0.2958101313828  0.6784780811505 1.0
C      1  0.6773288884388  0.6277174656921  0.8057133665550 1.0
C      1  0.6066531947514  0.7822069110243  0.3785031261059 1.0
C      1  0.3368410341906  0.2903159085775  0.4614605043116 1.0
C      1  0.3608062927618  0.3985996736268  0.6784777850402 1.0
C      1  0.3669601699087  0.6327391508075  0.6413784120971 1.0
C      1  0.3338107080743  0.6813804418374  0.4179880582871 1.0
C      1  0.3313706269568  0.4683779170480  0.3080908877430 1.0
C      1  0.3323302174899  0.2095020711350  0.6055174931743 1.0
C      1  0.3352450682895  0.5110073500415  0.7975087502882 1.0
C      1  0.3347563041495  0.7862115247527  0.6424191824704 1.0
C      1  0.3031159015901  0.6587099374722  0.2596579242037 1.0
C      1  0.3125961129493  0.3145050374599  0.2621344255415 1.0
C      1  0.4397430576086  0.7555991526031  0.2477737301237 1.0
C      1  0.4612589719961  0.3379114900098  0.1923954486050 1.0
C      1  0.4688839440889  0.1388162509637  0.5488991119792 1.0
C      1  0.4749257095793  0.4561015566445  0.8542934221086 1.0
C      1  0.4837049214354  0.8305283831618  0.6803173172364 1.0
C      1  0.7391320941619  0.3810048213065  0.7064190508919 1.0
C      1  0.7338566349816  0.6809154646090  0.7504781871772 1.0
C      1  0.6785980680358  0.7517731693337  0.3113268206943 1.0
C      1  0.7139828747394  0.4858152404830  0.2162403366389 1.0
C      1  0.6919091333905  0.2102319939381  0.4101946474282 1.0
C      1  0.3609595537214  0.6737215078931  0.5534573812371 1.0
C      1  0.3251424533405  0.6168127648688  0.3467394141602 1.0
C      1  0.3319843194546  0.3762426004780  0.3392784054055 1.0
C      1  0.3436712300149  0.2977609103265  0.5586933937518 1.0
C      1  0.3596925814444  0.4949601456130  0.7005476586992 1.0
C      1  0.7058065349915  0.6278492871686  0.2084779166847 1.0
C      1  0.7586046548250  0.3368891068527  0.2918976976769 1.0
C      1  0.7289256472695  0.2676568437959  0.5887953677950 1.0
C      1  0.7316774131373  0.5407556632160  0.7812231199737 1.0
C      1  0.6923876658437  0.8091066913851  0.4278042108650 1.0
C      1  0.2574079946936  0.5359739494796  0.3350243648023 1.0
C      1  0.2623423736714  0.3364534488947  0.4057375742876 1.0
C      1  0.2825701477158  0.3506662915228  0.6279348729380 1.0
C      1  0.2903496793189  0.5656086802582  0.6681957253248 1.0
C      1  0.2762774935437  0.6630553822784  0.5006611519666 1.0
C      1  0.6205620301692  0.5331653315440  0.3834460254370 1.0
C      1  0.6280763758699  0.3794594169146  0.4716078139726 1.0
C      1  0.6021675401201  0.4720160593958  0.6237966388346 1.0
C      1  0.6087663779008  0.5677005433915  0.6295294259333 1.0
C      1  0.6149364535577  0.6130318482918  0.4373839175769 1.0
C      1  0.3301432631599  0.5458203614407  0.1729925060218 1.0
C      1  0.3307021872797  0.1924329564290  0.3414756962483 1.0
C      1  0.3734167562158  0.2557429927054  0.7402542467273 1.0
C      1  0.3530616901118  0.6609575475340  0.7935731485664 1.0
C      1  0.3417332593539  0.8167655421955  0.4825826066158 1.0
C      1  0.5285673720898  0.6511985382155  0.0500955169499 1.0
C      1  0.5826260319773  0.1796729029942  0.2741268690493 1.0
C      1  0.5777195418246  0.1044059232750  0.7074495479338 1.0
C      1  0.5512372313786  0.6142803528506  0.9652954980701 1.0
C      1  0.5509095221672  0.9281666989973  0.5303832741943 1.0
C      1  0.6067774173922  0.2430401803973  0.2078569194995 1.0
C      1  0.5763898437006  0.0443960356742  0.6408673442512 1.0
C      1  0.5861381078734  0.5340195828147  0.9393477434585 1.0
C      1  0.5738028700974  0.9507318738048  0.6146263921919 1.0
C      1  0.5437392232488  0.7291133249846  0.1024611731358 1.0
C      1  0.5673899183749  0.5001450818743  0.3176075188412 1.0
C      1  0.5436908552575  0.3603407965086  0.4313386988712 1.0
C      1  0.5700356075596  0.4375300862749  0.7052262237279 1.0
C      1  0.5314410212470  0.5989819837021  0.6752273315962 1.0
C      1  0.5728832861083  0.6950562050155  0.4209373677395 1.0
C      1  0.5597028206677  0.1070223855566  0.5640569186118 1.0
C      1  0.5682785718695  0.4754967346331  0.8742471397416 1.0
C      1  0.5704667513324  0.8696702103680  0.6730379209664 1.0
C      1  0.5129798311736  0.7669500635870  0.1879587169765 1.0
C      1  0.5517090810595  0.3102947474297  0.1780163300168 1.0
C      1  0.0631746736873  0.5001257966607  0.4934290797672 1.0
C      1  0.1011589322754  0.4113988399445  0.4827464666346 1.0
C      1  0.1256119726585  0.4211481562385  0.5775715107807 1.0
C      1  0.1130203121474  0.5156488205885  0.5994620570285 1.0
C      1  0.0429001381709  0.5642159777917  0.5502173384809 1.0
C      1  0.6291863613926  0.1501104552858  0.5347818967769 1.0
C      1  0.6165003063094  0.4361917240022  0.7967144147193 1.0
C      1  0.6449064798784  0.8206698266717  0.7013692261208 1.0
C      1  0.6031996972253  0.7525829802115  0.1702248885442 1.0
C      1  0.6430149701442  0.3303468827471  0.1909502664310 1.0
C      1  0.5040083779776  0.8180921277211  0.4009895067862 1.0
C      1  0.5611202793678  0.5426101806377  0.1643774383459 1.0
C      1  0.5123217730192  0.1894044114104  0.3925533305465 1.0
C      1  0.6039453414200  0.2722752621830  0.7246743544231 1.0
C      1  0.5839262015070  0.6613100888396  0.8120878365081 1.0
C      1  0.4039075938513  0.8484404204040  0.6228714297276 1.0
C      1  0.3799297176262  0.6881518410091  0.2087311846599 1.0
C      1  0.3890437383188  0.2750256893581  0.2186387974343 1.0
C      1  0.4143750578070  0.1616860873538  0.6253472001205 1.0
C      1  0.4095496317155  0.5268737885662  0.8559693315303 1.0
C      1  0.2246869108391  0.4181377612423  0.5744304202145 1.0
C      1  0.2240842305561  0.5262714913364  0.5941729005786 1.0
C      1  0.2371244412312  0.5698551416520  0.5035000466923 1.0
C      1  0.2263557451417  0.5109369294325  0.4303250936220 1.0
C      1  0.2082215556161  0.4125286760923  0.4611462455826 1.0
C      1  0.7790638738012  0.3469020083743  0.3818622557456 1.0
C      1  0.7993122767753  0.3987614805150  0.6319458931157 1.0
C      1  0.7731183659616  0.5705074587931  0.6278144484163 1.0
C      1  0.7548761282342  0.6466850308071  0.4185559313602 1.0
C      1  0.7651133737850  0.5678012823810  0.3606037239922 1.0
C      1  0.4590606370253  0.4176246660967  0.4454443365384 1.0
C      1  0.4433164190530  0.4295713848647  0.5421038628604 1.0
C      1  0.4485067455171  0.5217709676224  0.5630589087745 1.0
C      1  0.4550318915637  0.5720947042305  0.4860555874360 1.0
C      1  0.4443488179397  0.5120931876254  0.4132738987856 1.0
C      1  0.5301292165101  0.4840441737681  0.2372016460149 1.0
C      1  0.4960657054929  0.2909596282616  0.3973998732213 1.0
C      1  0.5622819070945  0.3558121164468  0.7605843008338 1.0
C      1  0.5357336703429  0.6779545760743  0.7291083053446 1.0
C      1  0.4955035455658  0.7262672229019  0.4490749798623 1.0
C      1  0.7225758066094  0.4032841066569  0.4350286864433 1.0
C      1  0.6408695002358  0.4343968766394  0.5437402683182 1.0
C      1  0.6916382382298  0.6105319176980  0.5852635997665 1.0
C      1  0.6928977106011  0.6279613650890  0.4967224658253 1.0
C      1  0.7121790001724  0.4975525020811  0.4087176955737 1.0
C      1  0.3488356412873  0.7781889783965  0.3948845291716 1.0
C      1  0.3616529777765  0.4693307719985  0.2127918114400 1.0
C      1  0.3576854402765  0.1949634660451  0.4316295767253 1.0
C      1  0.3944696926286  0.3442586895099  0.7559433097090 1.0
C      1  0.3746654384200  0.7125869592222  0.7055300792951 1.0
C      1  0.4067893887715  0.8683289359240  0.5271404953299 1.0
C      1  0.4022891812357  0.6133478465027  0.1545144966324 1.0
C      1  0.4018472101640  0.1934044785117  0.2679618294886 1.0
C      1  0.4460447674066  0.1933640528931  0.7086212356951 1.0
C      1  0.4247368705685  0.6236479403376  0.8516869428477 1.0
C      1  0.6918804196052  0.2081944769473  0.5133498350040 1.0
C      1  0.7099316511217  0.4485235803851  0.7704644129336 1.0
C      1  0.7022549723467  0.7616913352726  0.7160452365245 1.0
C      1  0.6755824552099  0.7169560133007  0.2224280698213 1.0
C      1  0.7105260402372  0.3876182514197  0.2263605070534 1.0
C      1  0.5189507640801  0.6529860298913  0.8785409122764 1.0
C      1  0.4914708407668  0.8850088990184  0.4789945132425 1.0
C      1  0.4946962866936  0.5930226908385  0.1220393169406 1.0
C      1  0.4895436457730  0.1708512118855  0.2960778070392 1.0
C      1  0.5472660650172  0.1897196550851  0.7232741668075 1.0
C      1  0.7897816249563  0.4860013729847  0.5894704940033 1.0
C      1  0.7300411468225  0.4681890923699  0.5103652851058 1.0
END
