TITL C-5542-9635-17 -7.997 3375.00 -1415.46098642 0 0 173 (C1) n - 1
REM
REM Run started: at 2021.01.02 21:47:19 in /gpfs/home/chem/mssmkc/CARBON/AIRSS/Generating-Clusters/Str-Search/Higher-Symm/C100-200
REM VASP from code version vasp.5.4.4.18Apr17-6-g9f103f2a35 (build Oct 11 2019 16:45:47) gamma-only
REM
REM
REM
REM
REM ./C.cell (533062f00bc710175b3da973d35f2034)
REM AIRSS Version 0.9.1 bugfix July 2018 build 013d7b7c2542+ Fri, 06 Jul 2018 19:26:36 +0100
REM compiler GCC version 6.3.0
REM options -cpp -iprefix /gpfs/warwick/csc/orac/software/Core/GCCcore/6.3.0/bin/../lib/gcc/x86_64-pc-linux-gnu/6.3.0/ -mtune=generic -march=x86-64 -g -O0
REM seed 895279500 -192492644 1112582131 1702741937 -2032081845 1675297228 -1230697790 1013720337 -103009332 1806912192 1681660533 158611621
REM
REM C.POTCAR (d86ddea03c3ceb6dc662c8ad6801f873)
REM 
CELL 1.54180   15.00000   15.00000   15.00000   90.00000   90.00000   90.00000
LATT -1
SFAC C  
C      1  0.6432433269743  0.5875886127011  0.5359837589727 1.0
C      1  0.3621790917219  0.4163419274896  0.4642273504644 1.0
C      1  0.3271350565798  0.4902017132654  0.8632948051384 1.0
C      1  0.6689492382245  0.5068652214517  0.1403884054258 1.0
C      1  0.6106151788156  0.6537299015168  0.8967009485324 1.0
C      1  0.3889046406103  0.3457949654588  0.1072770226727 1.0
C      1  0.8353674935520  0.3614916830338  0.5322117213462 1.0
C      1  0.1663496974179  0.6391640829345  0.4690368120418 1.0
C      1  0.2601603792745  0.3156411477294  0.6587880717793 1.0
C      1  0.7397003382437  0.6850521677519  0.3414424511385 1.0
C      1  0.5188857717562  0.6372234107021  0.6325261818244 1.0
C      1  0.4830613401940  0.3659137756490  0.3617024493451 1.0
C      1  0.6364702863625  0.1781075948429  0.4645298084486 1.0
C      1  0.3657073688729  0.8209025291785  0.5353436575033 1.0
C      1  0.6876990917693  0.5323307003365  0.4676576527513 1.0
C      1  0.3161806663834  0.4663043095265  0.5359261868016 1.0
C      1  0.7926627648979  0.2909452824976  0.5794526601664 1.0
C      1  0.2078903200397  0.7095701245559  0.4209489700054 1.0
C      1  0.5419889360546  0.3166981915896  0.1389379553454 1.0
C      1  0.4584731540645  0.6827692540832  0.8623467253424 1.0
C      1  0.2950046753577  0.6686439478706  0.7845606976630 1.0
C      1  0.7064764497094  0.3305666252569  0.2145122043530 1.0
C      1  0.8358945085371  0.3990928613360  0.2958558495300 1.0
C      1  0.1648564359391  0.5997533458006  0.7046756052658 1.0
C      1  0.2956546632894  0.3469898061742  0.4124733186032 1.0
C      1  0.7079931422218  0.6563196285036  0.5876220853473 1.0
C      1  0.8111896785963  0.4617755266828  0.7057338035818 1.0
C      1  0.1877715557177  0.5402953051971  0.2952731446196 1.0
C      1  0.3298161233942  0.3315535486147  0.8177277206367 1.0
C      1  0.6697927463674  0.6649577273982  0.1868504115846 1.0
C      1  0.5556108103755  0.5316912341504  0.2511321233213 1.0
C      1  0.4429074058550  0.4659387782393  0.7592411106233 1.0
C      1  0.8117926445269  0.4998301289875  0.6200064284106 1.0
C      1  0.1878888546710  0.5014705587269  0.3808185706932 1.0
C      1  0.5879283560989  0.8020992665844  0.3298626369187 1.0
C      1  0.4128441106389  0.2031348719070  0.6681860194064 1.0
C      1  0.6898051030135  0.5235868342706  0.3712785990236 1.0
C      1  0.3105444685334  0.4758278106680  0.6325952301412 1.0
C      1  0.7645461464307  0.5864009262686  0.3422498958548 1.0
C      1  0.2340773616720  0.4135691616830  0.6581409276007 1.0
C      1  0.4948644280497  0.6720068001176  0.3667498612736 1.0
C      1  0.4988733822814  0.3320453158916  0.6320496032293 1.0
C      1  0.5727369064882  0.7124883047059  0.6631218695225 1.0
C      1  0.4284805906178  0.2907171370129  0.3329576593792 1.0
C      1  0.4156312178848  0.6529852385189  0.6594817118027 1.0
C      1  0.5863189931984  0.3471891356712  0.3396162772780 1.0
C      1  0.5198157769603  0.6972141766810  0.1809722843638 1.0
C      1  0.4810718476731  0.2981560639999  0.8255559504159 1.0
C      1  0.6382921407354  0.7844618860369  0.2504272504601 1.0
C      1  0.3624546090303  0.2148311885109  0.7486023768189 1.0
C      1  0.1870095862391  0.5766779111732  0.5465238483054 1.0
C      1  0.8157797756978  0.4237157336771  0.4546029157972 1.0
C      1  0.3928815016137  0.2519686900834  0.8323907225495 1.0
C      1  0.6064270690346  0.7443827908725  0.1690652113584 1.0
C      1  0.1247731324984  0.3897696604193  0.5665196049311 1.0
C      1  0.8741859612703  0.6102218514797  0.4321221716103 1.0
C      1  0.3504913624432  0.6935290315800  0.2176049494494 1.0
C      1  0.6478113329643  0.3093421384493  0.7821974626910 1.0
C      1  0.5799466325636  0.2546478291648  0.2870712501849 1.0
C      1  0.4211893853064  0.7445103660033  0.7124786532116 1.0
C      1  0.6554590796769  0.8195494053598  0.7738806455500 1.0
C      1  0.3444307609177  0.1811182034405  0.2263960953695 1.0
C      1  0.4454438028797  0.8443747063196  0.5823200616969 1.0
C      1  0.5559851846523  0.1560921975817  0.4179573773192 1.0
C      1  0.3950880483665  0.1252024546579  0.4347611023099 1.0
C      1  0.6057237094034  0.8782945717653  0.5652828150911 1.0
C      1  0.5643368950359  0.5706880458008  0.8712136868040 1.0
C      1  0.4340939271491  0.4281278619873  0.1368014664936 1.0
C      1  0.4506116087150  0.8271852963012  0.6733908720155 1.0
C      1  0.5498016378736  0.1727576691208  0.3270451150159 1.0
C      1  0.5510426172171  0.4126130234078  0.6527742416802 1.0
C      1  0.4266875517816  0.6062853553186  0.3335433420563 1.0
C      1  0.6436417010358  0.5229779848593  0.6127684538657 1.0
C      1  0.3541058645046  0.4805443230473  0.3874810198617 1.0
C      1  0.6229912736201  0.7741124168881  0.4132181985379 1.0
C      1  0.3765605560546  0.2307099049006  0.5843043362094 1.0
C      1  0.6238606255783  0.4245984626413  0.5893797489862 1.0
C      1  0.3725440816144  0.5800288962365  0.4022260611582 1.0
C      1  0.4691577509532  0.5907853088714  0.8658983493824 1.0
C      1  0.5287750549246  0.4080283069730  0.1416428222650 1.0
C      1  0.3827506812010  0.7077171879094  0.7993931751553 1.0
C      1  0.6190070990828  0.2911250643522  0.2003567179430 1.0
C      1  0.7391244346820  0.1865757253914  0.4324692449190 1.0
C      1  0.2644622976968  0.8092117258333  0.5693285910946 1.0
C      1  0.3989987650781  0.5393455829768  0.8162894009852 1.0
C      1  0.5988455290359  0.4592466515853  0.1907491053289 1.0
C      1  0.2169636125780  0.6305619477012  0.2715018205722 1.0
C      1  0.7816505027130  0.3718384394525  0.7285989802020 1.0
C      1  0.5501942355298  0.5461415445330  0.6610818840921 1.0
C      1  0.4455395249957  0.4620329775457  0.3457118479651 1.0
C      1  0.7612767749389  0.2992734455118  0.6699545122392 1.0
C      1  0.2369836877192  0.7037415224376  0.3294650528792 1.0
C      1  0.3082942908220  0.5248064733478  0.2026784807475 1.0
C      1  0.6910974815355  0.4777669333389  0.7990416204793 1.0
C      1  0.4037877799986  0.4602064965055  0.6638037419925 1.0
C      1  0.5934157378498  0.5364915956274  0.3486579689374 1.0
C      1  0.3538119626617  0.6391641367981  0.5711369310335 1.0
C      1  0.6502133831615  0.3583484436632  0.4299226745756 1.0
C      1  0.3444625579836  0.8071360188999  0.4410010750285 1.0
C      1  0.6564865116887  0.1939274723848  0.5586484856259 1.0
C      1  0.6700205072921  0.8790264512382  0.6197640215614 1.0
C      1  0.3294281636344  0.1237834850952  0.3816710043147 1.0
C      1  0.5490316947320  0.7212112170863  0.8705398326630 1.0
C      1  0.4513758696178  0.2777587613360  0.1296397862140 1.0
C      1  0.5753714366196  0.6338384198796  0.3310438968234 1.0
C      1  0.4185481167309  0.3605299472286  0.6782627107837 1.0
C      1  0.2466160997534  0.4757149876772  0.2566029851423 1.0
C      1  0.7527912884815  0.5266864547891  0.7446694868356 1.0
C      1  0.4695872363696  0.2293137076017  0.5381646599928 1.0
C      1  0.5298079665513  0.7770814477593  0.4587146490698 1.0
C      1  0.4557743953482  0.5274531395398  0.2690902805261 1.0
C      1  0.5410980394389  0.4786901591144  0.7376796339472 1.0
C      1  0.2867844781532  0.6191286255474  0.2079685952341 1.0
C      1  0.7115666278602  0.3835210156087  0.7918339167934 1.0
C      1  0.2132610532779  0.6544471539499  0.7483707026524 1.0
C      1  0.7881787993748  0.3448319517746  0.2512548289120 1.0
C      1  0.2888538652018  0.5545008326344  0.5698888316856 1.0
C      1  0.7131627077960  0.4446756423560  0.4325693563290 1.0
C      1  0.1610473496345  0.5490287276532  0.4552075723796 1.0
C      1  0.8402139380051  0.4517986454665  0.5462581150484 1.0
C      1  0.7572780364159  0.6959519875693  0.5059705926994 1.0
C      1  0.2443620703942  0.3097133512986  0.4935527958637 1.0
C      1  0.6737135741587  0.2613318579628  0.6991134830228 1.0
C      1  0.3237634614481  0.7440946946333  0.2992530914409 1.0
C      1  0.4843033242710  0.4896758500677  0.6072127789536 1.0
C      1  0.5055799186486  0.4850829398387  0.4305364409456 1.0
C      1  0.4806404218454  0.2255344266865  0.2798095423801 1.0
C      1  0.5204957651680  0.7745592762037  0.7195561116248 1.0
C      1  0.8579329610038  0.4523243919058  0.3672178401262 1.0
C      1  0.1424398965527  0.5477536777238  0.6327474805411 1.0
C      1  0.6038607338185  0.3679346658843  0.5187166140399 1.0
C      1  0.4102926120493  0.6157908555510  0.4899388950667 1.0
C      1  0.1561103293606  0.3350379047999  0.5108145243989 1.0
C      1  0.8436681676279  0.6667444197133  0.4862279406701 1.0
C      1  0.7363358991021  0.5639415853142  0.6465178771173 1.0
C      1  0.2637939866567  0.4379596334326  0.3547757882388 1.0
C      1  0.6143895632427  0.2136459359832  0.6415083412265 1.0
C      1  0.3845592724665  0.7917162449918  0.3561376842825 1.0
C      1  0.4956270615955  0.6780127771173  0.4690418372253 1.0
C      1  0.5083885712714  0.3289316403986  0.5287812240248 1.0
C      1  0.4676772215590  0.3907115854684  0.4599813985053 1.0
C      1  0.5454746554367  0.6169858589090  0.5302259377752 1.0
C      1  0.7089016510291  0.7268690793937  0.4267560946490 1.0
C      1  0.2906269923124  0.2758377198669  0.5726604864108 1.0
C      1  0.5759938931687  0.6287237734204  0.2322521555611 1.0
C      1  0.4260803093107  0.3672511001484  0.7764330512236 1.0
C      1  0.5115179758201  0.2279255601477  0.6371453528105 1.0
C      1  0.4885659442212  0.7781941173996  0.3598272003750 1.0
C      1  0.3172493343759  0.1893620613244  0.3132757612170 1.0
C      1  0.6837392231449  0.8128084717467  0.6873037691332 1.0
C      1  0.5268803300855  0.8471998521400  0.5301809357714 1.0
C      1  0.4737257065122  0.1565061745924  0.4694251506307 1.0
C      1  0.7116544112090  0.7193261165446  0.2610146437469 1.0
C      1  0.2898626695645  0.2806314806091  0.7389795821856 1.0
C      1  0.5762755452242  0.7862180108696  0.8041284108868 1.0
C      1  0.4244208824813  0.2124339202771  0.1957582245997 1.0
C      1  0.3036757310199  0.4111520052104  0.8653670643204 1.0
C      1  0.6943272463702  0.5851937137161  0.1390951546015 1.0
C      1  0.3411972010925  0.2812872245496  0.3517260887795 1.0
C      1  0.6604634512097  0.7214714614893  0.6470598654192 1.0
C      1  0.3999994135075  0.4966883706794  0.1891533012326 1.0
C      1  0.5995349631969  0.5041677142686  0.8166805646146 1.0
C      1  0.5679429487147  0.2944974728458  0.8207959839936 1.0
C      1  0.4329527738396  0.7037358221880  0.1824632095778 1.0
C      1  0.8506013868643  0.5508121821751  0.3635371461361 1.0
C      1  0.1487507647026  0.4489055295885  0.6350887082232 1.0
C      1  0.3129020230089  0.7299617950558  0.5576268818705 1.0
C      1  0.6922081796483  0.2669684075139  0.4386002719733 1.0
C      1  0.3723562743549  0.6152293656506  0.7512046022388 1.0
C      1  0.6300487519978  0.3830903602708  0.2510078545587 1.0
C      1  0.7422013665899  0.2274880842117  0.5298569668312 1.0
C      1  0.2603868944125  0.7708131107160  0.4710599175508 1.0
C      1  0.4839450248303  0.5393910846611  0.5133753754768 1.0
END
