TITL C-56884-4547-4 -2.839 3375.00 -468.60415938 0 0 60 (Td) n - 1
REM
REM Run started: at 2020.12.17 04:24:24 in /rds/project/t2_vol4/rds-t2-cs072/BORA/CARBON/AIRSS/Generating-Clusters/Str-Search/Higher-Symm/Only-C60
REM VASP from code version vasp.5.4.4.18Apr17-6-g9f103f2a35 (build Oct 11 2019 16:45:47) gamma-only
REM
REM
REM
REM
REM ./C.cell (5f7b7a0d59291d2373303da1f58b8d66)
REM AIRSS Version 0.9.1 bugfix July 2018 build 013d7b7c2542+ Fri, 06 Jul 2018 19:26:36 +0100
REM compiler GCC version 4.8.5 20150623 (Red Hat 4.8.5-39)
REM options -cpp -mtune=generic -march=x86-64 -g -O0
REM seed 702014082 1014620003 -1810346047 1901279778 -1522673022 780358197 723248075 -2028111443 1138220667 -1748123434 1655348656 15405860
REM
REM C.POTCAR (d86ddea03c3ceb6dc662c8ad6801f873)
REM 
CELL 1.54180   15.00000   15.00000   15.00000   90.00000   90.00000   90.00000
LATT -1
SFAC C  
C      1  0.6597706532116  0.5119197331266  0.3399803515679 1.0
C      1  0.5119022935988  0.3401433495084  0.6599261574743 1.0
C      1  0.3402922651961  0.6597376807402  0.5119915537261 1.0
C      1  0.3401130442667  0.5119221682235  0.6599122488046 1.0
C      1  0.3400668144046  0.4881717857709  0.3401092530243 1.0
C      1  0.6597933623356  0.4880308537206  0.6596807914939 1.0
C      1  0.4880042072672  0.3402969007519  0.3402469046676 1.0
C      1  0.4881976974275  0.6599590661065  0.6599674833150 1.0
C      1  0.5119150967090  0.6600138696589  0.3402503687531 1.0
C      1  0.6599922642174  0.6597078585960  0.4880392066605 1.0
C      1  0.6599037531184  0.3400153273253  0.5118174579186 1.0
C      1  0.3400792335946  0.3400496246317  0.4881238147142 1.0
C      1  0.6602481500810  0.2672140796867  0.7328248350332 1.0
C      1  0.2671315857600  0.7327746098226  0.6601775006261 1.0
C      1  0.7327084425563  0.6603351853348  0.2671744147218 1.0
C      1  0.3398240039124  0.2671308480014  0.2672173244866 1.0
C      1  0.3395967868346  0.7327108403001  0.7326314300573 1.0
C      1  0.6602960878966  0.7328348998655  0.2672514583686 1.0
C      1  0.7328160699199  0.7327745132345  0.3396929378326 1.0
C      1  0.7326792481180  0.2673292493100  0.6603926855149 1.0
C      1  0.2672331509895  0.2672298607118  0.3396975009790 1.0
C      1  0.2671800405874  0.6602855814900  0.7327765323567 1.0
C      1  0.2673588416037  0.3396345310712  0.2672853133834 1.0
C      1  0.7327397707981  0.3397992204232  0.7328323250209 1.0
C      1  0.4189313827141  0.7006270611273  0.7005074441934 1.0
C      1  0.7007276673661  0.7004689648593  0.4189903403960 1.0
C      1  0.7005177429803  0.4190497326283  0.7005706363516 1.0
C      1  0.5809933815232  0.7007674812150  0.2995500922508 1.0
C      1  0.5809497396143  0.2993717999317  0.7006045836708 1.0
C      1  0.4190785949966  0.2994026730113  0.2994725373400 1.0
C      1  0.2993989833952  0.7004889344552  0.5809427854576 1.0
C      1  0.2993394168017  0.2994326905312  0.4190133649274 1.0
C      1  0.7005894761830  0.2994416030066  0.5810515044356 1.0
C      1  0.2994996781633  0.4189409033017  0.2994083426697 1.0
C      1  0.2994332427576  0.5809817074505  0.7006427803114 1.0
C      1  0.7004574804540  0.5810185982520  0.2992476562636 1.0
C      1  0.5042465532897  0.6914277089362  0.5694263911815 1.0
C      1  0.6913709793297  0.5690577925235  0.5038208946854 1.0
C      1  0.5692585930631  0.5040431324532  0.6912996093343 1.0
C      1  0.4961077226734  0.6913500963450  0.4309067407648 1.0
C      1  0.4959995184089  0.3085967418654  0.5693191531106 1.0
C      1  0.5039492152085  0.3086991164752  0.4308060669884 1.0
C      1  0.3087134018966  0.5691787629638  0.4960279066531 1.0
C      1  0.3085846667110  0.4306594285778  0.5040218106264 1.0
C      1  0.6914512872353  0.4305249934351  0.4957361183788 1.0
C      1  0.4305909470211  0.5042571737489  0.3085791832577 1.0
C      1  0.4307435895758  0.4960660486595  0.6914007040128 1.0
C      1  0.5691046692363  0.4961335054422  0.3086371443555 1.0
C      1  0.4958634647859  0.5695030079811  0.3085484973022 1.0
C      1  0.5692913826533  0.3085784911254  0.4959840015906 1.0
C      1  0.3085960963790  0.4958559038767  0.5692850747182 1.0
C      1  0.5040661415263  0.5693807863815  0.6914528760322 1.0
C      1  0.5038558766800  0.4309306966274  0.3086489895994 1.0
C      1  0.4959208750580  0.4308001738883  0.6913950974915 1.0
C      1  0.4307187105038  0.3085715343776  0.5041584224699 1.0
C      1  0.4309009233323  0.6913567480297  0.4961639018940 1.0
C      1  0.5694740563745  0.6914134815806  0.5041378835452 1.0
C      1  0.6914668724822  0.4957976562906  0.4304844178727 1.0
C      1  0.6913772876429  0.5038183261537  0.5690559710307 1.0
C      1  0.3085875175779  0.5039849050790  0.4307012243348 1.0
END
