TITL C-56884-4547-30 -2.86 3375.00 -483.31553410 0 0 60 (Cs) n - 1
REM
REM Run started: at 2020.12.17 12:45:49 in /rds/project/t2_vol4/rds-t2-cs072/BORA/CARBON/AIRSS/Generating-Clusters/Str-Search/Higher-Symm/Only-C60
REM VASP from code version vasp.5.4.4.18Apr17-6-g9f103f2a35 (build Oct 11 2019 16:45:47) gamma-only
REM
REM
REM
REM
REM ./C.cell (5f7b7a0d59291d2373303da1f58b8d66)
REM AIRSS Version 0.9.1 bugfix July 2018 build 013d7b7c2542+ Fri, 06 Jul 2018 19:26:36 +0100
REM compiler GCC version 4.8.5 20150623 (Red Hat 4.8.5-39)
REM options -cpp -mtune=generic -march=x86-64 -g -O0
REM seed -1300657127 422803562 1240272821 946998126 756677662 -826035918 761749648 809312165 1379883535 1722925786 -1773339622 1606381458
REM
REM C.POTCAR (d86ddea03c3ceb6dc662c8ad6801f873)
REM 
CELL 1.54180   15.00000   15.00000   15.00000   90.00000   90.00000   90.00000
LATT -1
SFAC C  
C      1  0.3575499190363  0.4017113819020  0.6082649599203 1.0
C      1  0.3575502611097  0.5982887272595  0.6082650276576 1.0
C      1  0.5728708426797  0.2801152175731  0.5008288487716 1.0
C      1  0.5728712288870  0.7198847469424  0.5008290616658 1.0
C      1  0.5667305607473  0.2698475017431  0.6793161047164 1.0
C      1  0.5667308086816  0.7301518028511  0.6793164237427 1.0
C      1  0.6029673940594  0.4101654748021  0.7087016956699 1.0
C      1  0.6029679088618  0.5898325117648  0.7087011472055 1.0
C      1  0.5219147968423  0.4545486395098  0.5032461942452 1.0
C      1  0.5219147707669  0.5454513389086  0.5032460627735 1.0
C      1  0.4181292732470  0.6366841277501  0.2639985770522 1.0
C      1  0.4181284665659  0.3633167294515  0.2639976751222 1.0
C      1  0.4225874071060  0.2489025160979  0.6284519002788 1.0
C      1  0.4225885203412  0.7510958173806  0.6284525251430 1.0
C      1  0.4052418570781  0.4524674201304  0.6748001598774 1.0
C      1  0.4052420319207  0.5475324585720  0.6748003282768 1.0
C      1  0.3529698522138  0.4036464250295  0.4503106081578 1.0
C      1  0.3529701742708  0.5963541876197  0.4503108405157 1.0
C      1  0.3428997994204  0.5912659152219  0.2773572647531 1.0
C      1  0.3428993447653  0.4087354446209  0.2773569868150 1.0
C      1  0.5369593457564  0.5930487814366  0.5861805038162 1.0
C      1  0.5369591860556  0.4069509614018  0.5861805323115 1.0
C      1  0.4837828988913  0.7155469243226  0.4459764246702 1.0
C      1  0.4837822059480  0.2844529882578  0.4459763786288 1.0
C      1  0.5087570950748  0.4491245023555  0.6726688771503 1.0
C      1  0.5087572840063  0.5508750187387  0.6726689893093 1.0
C      1  0.5899823475790  0.6715768977337  0.7472448754785 1.0
C      1  0.5899820785524  0.3284220848002  0.7472446280954 1.0
C      1  0.4862935329262  0.7810733332637  0.6736155870253 1.0
C      1  0.4862934530596  0.2189260489297  0.6736151212160 1.0
C      1  0.5805308102990  0.5493139420924  0.4189924173574 1.0
C      1  0.5805307191853  0.4506862375206  0.4189926421636 1.0
C      1  0.3396374221520  0.5476315854294  0.3692172771396 1.0
C      1  0.3396372225021  0.4523693430179  0.3692170748881 1.0
C      1  0.7334348311974  0.4584466696045  0.3828636439754 1.0
C      1  0.7334349677711  0.5415530642759  0.3828637749331 1.0
C      1  0.2867265695805  0.4584112824601  0.2176295703505 1.0
C      1  0.2867258154013  0.5415912069456  0.2176300393209 1.0
C      1  0.6705438747969  0.5935406998846  0.4401616543313 1.0
C      1  0.6705436539277  0.4064590293571  0.4401615040557 1.0
C      1  0.5391299331916  0.5463822131533  0.3273118059929 1.0
C      1  0.5391284386323  0.4536185551139  0.3273134886673 1.0
C      1  0.3316344464063  0.4529190020708  0.5308715981568 1.0
C      1  0.3316346219959  0.5470814242782  0.5308716631905 1.0
C      1  0.6385760888183  0.4008961489435  0.6085414026153 1.0
C      1  0.6385762696714  0.5991034735610  0.6085414796543 1.0
C      1  0.5859101518975  0.6845789570824  0.5904133842553 1.0
C      1  0.5859098454195  0.3154206196859  0.5904132426783 1.0
C      1  0.6845016529287  0.4534324110278  0.5370770868174 1.0
C      1  0.6845017182626  0.5465672058936  0.5370770712095 1.0
C      1  0.3997587019721  0.3202565193299  0.4784568081197 1.0
C      1  0.3997593451664  0.6797437898928  0.4784568975602 1.0
C      1  0.4996299246319  0.3676214270316  0.3033247003218 1.0
C      1  0.4996321467514  0.6323794524085  0.3033227146186 1.0
C      1  0.5345641123099  0.6942474997191  0.3687628480193 1.0
C      1  0.5345629098517  0.3057525803568  0.3687628803351 1.0
C      1  0.3855444418833  0.3147152548112  0.5759372742523 1.0
C      1  0.3855447731915  0.6852845206378  0.5759373668980 1.0
C      1  0.6202393057376  0.3158306440349  0.4294760165172 1.0
C      1  0.6202398380161  0.6841693140077  0.4294761615428 1.0
END
