TITL C-56884-4547-27 -2.882 3375.00 -477.81371949 0 0 60 (C1) n - 1
REM
REM Run started: at 2020.12.17 12:06:20 in /rds/project/t2_vol4/rds-t2-cs072/BORA/CARBON/AIRSS/Generating-Clusters/Str-Search/Higher-Symm/Only-C60
REM VASP from code version vasp.5.4.4.18Apr17-6-g9f103f2a35 (build Oct 11 2019 16:45:47) gamma-only
REM
REM
REM
REM
REM ./C.cell (5f7b7a0d59291d2373303da1f58b8d66)
REM AIRSS Version 0.9.1 bugfix July 2018 build 013d7b7c2542+ Fri, 06 Jul 2018 19:26:36 +0100
REM compiler GCC version 4.8.5 20150623 (Red Hat 4.8.5-39)
REM options -cpp -mtune=generic -march=x86-64 -g -O0
REM seed -200246631 1194447035 637518789 1981556155 -1242866290 1420961440 -67919501 1031962361 1834316360 -1188964236 2058035091 544805762
REM
REM C.POTCAR (d86ddea03c3ceb6dc662c8ad6801f873)
REM 
CELL 1.54180   15.00000   15.00000   15.00000   90.00000   90.00000   90.00000
LATT -1
SFAC C  
C      1  0.4230734084854  0.5042661114584  0.5164888326691 1.0
C      1  0.7661023392889  0.4457284601142  0.5580306319172 1.0
C      1  0.7997979538105  0.4668033113817  0.6492403217415 1.0
C      1  0.4635468793659  0.6552163496411  0.6399733927182 1.0
C      1  0.5582394815327  0.4369221199718  0.4269070204169 1.0
C      1  0.5686887492064  0.4319564209931  0.2923518920928 1.0
C      1  0.5186619422256  0.5387800328953  0.5460408180835 1.0
C      1  0.6219949291474  0.6242536582210  0.5812090684684 1.0
C      1  0.2527659737748  0.6105643013605  0.4482375992249 1.0
C      1  0.6722798975957  0.5981069955554  0.5050423631738 1.0
C      1  0.3432009879142  0.3741546246817  0.6920163158092 1.0
C      1  0.5467039369559  0.2688844842537  0.4948438208713 1.0
C      1  0.4868629820289  0.5747675305357  0.6887759165274 1.0
C      1  0.7001115213867  0.2935067238170  0.5103271205345 1.0
C      1  0.7222679677409  0.3854722151845  0.4152334520813 1.0
C      1  0.2555031257769  0.5225706118771  0.5977157489836 1.0
C      1  0.5834033123064  0.3693642329371  0.6135570961186 1.0
C      1  0.2685112366606  0.4352958334782  0.5562452923086 1.0
C      1  0.7281607835345  0.4856872274034  0.3952850438884 1.0
C      1  0.6195124248547  0.2957943956433  0.5590145136137 1.0
C      1  0.3737992165830  0.3234350515646  0.5109994621121 1.0
C      1  0.4138032836633  0.3758778168137  0.3566600531188 1.0
C      1  0.5376564080050  0.6930732719297  0.5742485684127 1.0
C      1  0.4831374781231  0.6265685678081  0.5330171689091 1.0
C      1  0.6223840778621  0.4506790330254  0.6480280742359 1.0
C      1  0.3604117246183  0.7546418722097  0.4689146775737 1.0
C      1  0.4911442490238  0.3649537797203  0.5948875074812 1.0
C      1  0.3388516520293  0.6628881954038  0.4339211588188 1.0
C      1  0.5709472313828  0.5386680397351  0.6324862317466 1.0
C      1  0.3676399138657  0.6404684858709  0.6073799246467 1.0
C      1  0.5238212872192  0.3690067317637  0.3597598932008 1.0
C      1  0.3280046794040  0.5691529653309  0.6532523067827 1.0
C      1  0.5790637521543  0.2906438348516  0.4044090044159 1.0
C      1  0.3785072888340  0.4393649527434  0.7308782757446 1.0
C      1  0.3670938738537  0.6446156324740  0.3433385483234 1.0
C      1  0.3897746768837  0.4331079392352  0.2894360439710 1.0
C      1  0.7140966680886  0.4552672634656  0.6581979475366 1.0
C      1  0.2730188157903  0.4327132949386  0.4590012217522 1.0
C      1  0.6497963431381  0.4466039698351  0.4498059191234 1.0
C      1  0.3746348398086  0.5040035239301  0.2472826834851 1.0
C      1  0.5890486698868  0.7724506170121  0.4460765070279 1.0
C      1  0.3718441404034  0.5861680203900  0.2855510503852 1.0
C      1  0.6253300526362  0.7112076741705  0.4017304554853 1.0
C      1  0.4659532166795  0.2965391271355  0.5322770112660 1.0
C      1  0.6158379505868  0.5016751282339  0.2858773014108 1.0
C      1  0.3477327189181  0.3680129512930  0.4301508413925 1.0
C      1  0.6731158495747  0.5496158552994  0.3453701163020 1.0
C      1  0.6730258360805  0.2970007895797  0.4114017611112 1.0
C      1  0.4346304210200  0.7876518395227  0.4885835872844 1.0
C      1  0.3350179332280  0.3741354593766  0.5923201090774 1.0
C      1  0.3891983959766  0.6100625147479  0.5127752904332 1.0
C      1  0.2357890402887  0.5190179498388  0.4385813668553 1.0
C      1  0.4191704128942  0.4235454045514  0.5695962555825 1.0
C      1  0.2197641734827  0.5678649653299  0.5234949062620 1.0
C      1  0.6581970413074  0.6258703032345  0.4076453451456 1.0
C      1  0.4016694255570  0.5286796749653  0.7078032470949 1.0
C      1  0.7631503984769  0.3650425454719  0.5061540831586 1.0
C      1  0.5056236367057  0.4977816746192  0.4641969109299 1.0
C      1  0.5240838490012  0.7751211430447  0.5120374466588 1.0
C      1  0.7148393433721  0.5087261981294  0.4959354745023 1.0
END
