TITL C-57545-1563-8 -5.961 3375.00 -1071.87290447 0 0 133 (C1) n - 1
REM
REM Run started: at 2020.12.03 16:57:41 in /rds/project/t2_vol4/rds-t2-cs072/BORA/CARBON/AIRSS/Generating-Clusters/Str-Search/Higher-Symm/C100-200
REM VASP from code version vasp.5.4.4.18Apr17-6-g9f103f2a35 (build Oct 11 2019 16:45:47) gamma-only
REM
REM
REM
REM
REM ./C.cell (533062f00bc710175b3da973d35f2034)
REM AIRSS Version 0.9.1 bugfix July 2018 build 013d7b7c2542+ Fri, 06 Jul 2018 19:26:36 +0100
REM compiler GCC version 4.8.5 20150623 (Red Hat 4.8.5-39)
REM options -cpp -mtune=generic -march=x86-64 -g -O0
REM seed -484113571 629540776 606657520 878374739 -144157519 651682520 -1723373324 -1543784759 -1857197861 715759363 169647399 -1274758164
REM
REM C.POTCAR (d86ddea03c3ceb6dc662c8ad6801f873)
REM 
CELL 1.54180   15.00000   15.00000   15.00000   90.00000   90.00000   90.00000
LATT -1
SFAC C  
C      1  0.7019903500764  0.6688475214196  0.6918663206737 1.0
C      1  0.7332130175908  0.6641214851942  0.3721497381854 1.0
C      1  0.4458560659883  0.6920373121187  0.2193540753685 1.0
C      1  0.2331336829752  0.6784133863116  0.4583961647074 1.0
C      1  0.3810472860389  0.6735354125336  0.7553745429239 1.0
C      1  0.7134656597152  0.3254540743668  0.7009156976739 1.0
C      1  0.7437036497916  0.3310315133172  0.3732101572028 1.0
C      1  0.4467282744640  0.3180009374834  0.2290781702998 1.0
C      1  0.2212658096285  0.3225959562981  0.4568218884782 1.0
C      1  0.3874866128277  0.3384239522973  0.7453667747826 1.0
C      1  0.2893298914192  0.7498178814452  0.4292609664105 1.0
C      1  0.3660227877864  0.7393777176746  0.6829980395082 1.0
C      1  0.6325902795182  0.7368143357475  0.6858472861325 1.0
C      1  0.7109326191727  0.7343612291000  0.4354812634317 1.0
C      1  0.5039689014804  0.7544896975365  0.2708191663673 1.0
C      1  0.2839325000434  0.2531665151410  0.4284999982653 1.0
C      1  0.3710868657185  0.2687657748347  0.6796331619771 1.0
C      1  0.6384042925314  0.2598907002544  0.6928259060171 1.0
C      1  0.7191334951536  0.2621670740262  0.4356744208428 1.0
C      1  0.5045603907974  0.2566896138029  0.2796980069290 1.0
C      1  0.8291453482546  0.4579437224429  0.3095165629236 1.0
C      1  0.3746123550105  0.4553208220449  0.2058463924025 1.0
C      1  0.1311379601043  0.4622953666210  0.4297732636232 1.0
C      1  0.3507790029067  0.4622822645518  0.8489754366208 1.0
C      1  0.7921106235066  0.4603456870718  0.7589417981042 1.0
C      1  0.8251558364556  0.5410210942707  0.3066942627229 1.0
C      1  0.3745545759818  0.5522945868650  0.2033204805686 1.0
C      1  0.1350084885807  0.5463074006868  0.4293708488233 1.0
C      1  0.3466211091503  0.5449333345077  0.8532646806817 1.0
C      1  0.7899582914782  0.5432137872859  0.7560222665709 1.0
C      1  0.5753125660274  0.1799566572371  0.5480978039172 1.0
C      1  0.5667603136617  0.1774025117769  0.4509511766780 1.0
C      1  0.4718012737587  0.1757230465746  0.4288607640059 1.0
C      1  0.4213687363217  0.1798584789382  0.5124847795323 1.0
C      1  0.4853958157195  0.1774032169764  0.5861066793838 1.0
C      1  0.5745738238410  0.8231353109959  0.5458412752531 1.0
C      1  0.5660486722254  0.8262319415224  0.4491686630230 1.0
C      1  0.4709989671714  0.8278740617268  0.4276436401978 1.0
C      1  0.4202687313409  0.8289053114424  0.5109575897653 1.0
C      1  0.4845471000803  0.8229834484198  0.5837802475357 1.0
C      1  0.5414100853987  0.4546784120743  0.1871634635772 1.0
C      1  0.2551769632459  0.4489227998066  0.3316750640145 1.0
C      1  0.2665421503295  0.4564258824301  0.7192965883413 1.0
C      1  0.6421427164185  0.4527059947630  0.7952273721575 1.0
C      1  0.8254166819467  0.4523445012989  0.4631555762016 1.0
C      1  0.5407333694307  0.5491535356227  0.1852556944908 1.0
C      1  0.2601264322685  0.5616140690966  0.3311063862873 1.0
C      1  0.2671687092340  0.5512165662135  0.7190337118303 1.0
C      1  0.6402807982737  0.5476269447237  0.7943810918915 1.0
C      1  0.8218011065899  0.5489809224031  0.4617646108650 1.0
C      1  0.5744150341400  0.3833853655505  0.5960349729018 1.0
C      1  0.6179322624902  0.3817781799174  0.4992409683037 1.0
C      1  0.5064794601847  0.3871176736530  0.3981643116027 1.0
C      1  0.3737776576748  0.3905070548317  0.4393300338000 1.0
C      1  0.4283485364296  0.3863038089775  0.5683257629913 1.0
C      1  0.5414252308036  0.6154971889428  0.5961423229449 1.0
C      1  0.6253677698153  0.6150854871501  0.4731687818417 1.0
C      1  0.4912127177519  0.6182427649985  0.3835432741283 1.0
C      1  0.3969757817247  0.6179009725389  0.4295357088858 1.0
C      1  0.4367997106271  0.6156083608181  0.5823549944318 1.0
C      1  0.5332076247198  0.4576110699329  0.3400823368144 1.0
C      1  0.3227756194277  0.4602586820078  0.4027962891533 1.0
C      1  0.3744501078388  0.4565759586806  0.6061206609035 1.0
C      1  0.5758270199176  0.4579760648031  0.6545018316586 1.0
C      1  0.6784398170927  0.4537478965487  0.5006472717277 1.0
C      1  0.5257071669411  0.5447464604160  0.3356311834401 1.0
C      1  0.3349057707151  0.5487824133315  0.3984876648409 1.0
C      1  0.3788064603790  0.5438833531833  0.6075393979188 1.0
C      1  0.5620341068228  0.5444390125859  0.6561506486507 1.0
C      1  0.6752125381247  0.5408065201823  0.4882365500613 1.0
C      1  0.2779256395398  0.5614965623825  0.6166085966774 1.0
C      1  0.5450414692033  0.5584161079789  0.7560616201202 1.0
C      1  0.7628833364303  0.5598967227657  0.5436403730266 1.0
C      1  0.6006304232987  0.5615817773011  0.2677735598476 1.0
C      1  0.3134015306679  0.6019432844844  0.2557974657075 1.0
C      1  0.2733160068366  0.4432586026192  0.6179972951595 1.0
C      1  0.5494649882259  0.4425200676530  0.7533392926247 1.0
C      1  0.7672238169564  0.4397476447736  0.5471511112072 1.0
C      1  0.6049309610654  0.4429956419849  0.2705286856855 1.0
C      1  0.3141681092919  0.4076950867799  0.2608842201336 1.0
C      1  0.4577660509114  0.4034677303379  0.1900081549475 1.0
C      1  0.1884261312646  0.3954799740997  0.4026139969138 1.0
C      1  0.3283737431722  0.4054015374557  0.7777653941055 1.0
C      1  0.7190261836953  0.4001102795711  0.7594666811406 1.0
C      1  0.8095127030788  0.4006440282455  0.3813058218686 1.0
C      1  0.4575956429026  0.6034736466950  0.1855986589519 1.0
C      1  0.1957523279249  0.6092143489445  0.4021038372013 1.0
C      1  0.3247693200723  0.6027950132317  0.7814363594757 1.0
C      1  0.7146731370853  0.5999625531384  0.7556987562027 1.0
C      1  0.8015709061494  0.5974061712605  0.3781872202296 1.0
C      1  0.7276332396412  0.7396992153758  0.5315997485683 1.0
C      1  0.5940516649469  0.7429219146141  0.2976184611767 1.0
C      1  0.3333585465255  0.7666380664765  0.3405170216532 1.0
C      1  0.3087590878002  0.7366356394276  0.6070244155878 1.0
C      1  0.5455803889886  0.7405045159830  0.7272845411627 1.0
C      1  0.7374540188250  0.2530910219670  0.5328686204945 1.0
C      1  0.5960994943929  0.2647505646059  0.3041931050307 1.0
C      1  0.3350800559659  0.2442110967668  0.3448468845438 1.0
C      1  0.3036692580153  0.2635364710194  0.6102239709672 1.0
C      1  0.5478508689111  0.2657536549907  0.7238245667092 1.0
C      1  0.2757792098205  0.6502159222266  0.5561143269917 1.0
C      1  0.4868040552632  0.6520437259839  0.7508873624811 1.0
C      1  0.7271414623047  0.6495294810884  0.5910044795152 1.0
C      1  0.6417575625123  0.6494016395614  0.3126854029430 1.0
C      1  0.3573405213653  0.6871783852825  0.2746495025490 1.0
C      1  0.2614342045895  0.3496244569511  0.5628187629650 1.0
C      1  0.4917598707440  0.3562587629103  0.7376146749732 1.0
C      1  0.7451830510960  0.3435967511223  0.5989314208082 1.0
C      1  0.6502145835355  0.3545121438528  0.3199805796004 1.0
C      1  0.3597383244483  0.3241077015833  0.2833743083777 1.0
C      1  0.3447453418276  0.7659473629867  0.5151772993792 1.0
C      1  0.4662090645734  0.7680415053913  0.6638592635510 1.0
C      1  0.6407648950793  0.7610311538032  0.5841876054424 1.0
C      1  0.6197698798133  0.7637143864581  0.3957417378456 1.0
C      1  0.4368336107264  0.7807365882448  0.3487956748588 1.0
C      1  0.3385339832750  0.2355178319241  0.5163445875651 1.0
C      1  0.4704946537122  0.2415778253964  0.6588348993165 1.0
C      1  0.6500504467687  0.2297260589811  0.5904786489025 1.0
C      1  0.6236911794533  0.2397715459432  0.4001313020587 1.0
C      1  0.4373980898881  0.2298146086612  0.3554190402333 1.0
C      1  0.5938381469617  0.3430783415926  0.4109941214276 1.0
C      1  0.4213212962130  0.3356379540328  0.3713577930390 1.0
C      1  0.3536634112926  0.3391644348664  0.5215611223977 1.0
C      1  0.4910269606617  0.3417863092357  0.6301494679145 1.0
C      1  0.6497640931423  0.3286147396268  0.5718244883873 1.0
C      1  0.5821277323075  0.6586878117183  0.3996970254448 1.0
C      1  0.4181782316953  0.6789504939065  0.3571969852561 1.0
C      1  0.3761083086040  0.6599010986528  0.5171750447991 1.0
C      1  0.4816004111179  0.6688811422413  0.6509920930264 1.0
C      1  0.6242864063871  0.6595400585328  0.5585659124198 1.0
C      1  0.5013858094151  0.7544991114753  0.5009972174663 1.0
C      1  0.5034993312100  0.2493769246832  0.5039860108131 1.0
C      1  0.4588486873570  0.4230824378075  0.4786900149601 1.0
END
