TITL C-57476-7434-7 -9.577 3375.00 -1490.63833582 0 0 182 (C1) n - 1
REM
REM Run started: at 2020.12.03 15:54:27 in /rds/project/t2_vol4/rds-t2-cs072/BORA/CARBON/AIRSS/Generating-Clusters/Str-Search/Higher-Symm/C100-200
REM VASP from code version vasp.5.4.4.18Apr17-6-g9f103f2a35 (build Oct 11 2019 16:45:47) gamma-only
REM
REM
REM
REM
REM ./C.cell (533062f00bc710175b3da973d35f2034)
REM AIRSS Version 0.9.1 bugfix July 2018 build 013d7b7c2542+ Fri, 06 Jul 2018 19:26:36 +0100
REM compiler GCC version 4.8.5 20150623 (Red Hat 4.8.5-39)
REM options -cpp -mtune=generic -march=x86-64 -g -O0
REM seed -441278574 837308810 -453039196 1825709282 -89656630 1116879216 -256251205 -519818458 479336208 -1678305320 -915565172 -1511925183
REM
REM C.POTCAR (d86ddea03c3ceb6dc662c8ad6801f873)
REM 
CELL 1.54180   15.00000   15.00000   15.00000   90.00000   90.00000   90.00000
LATT -1
SFAC C  
C      1  0.4059625011724  0.2568096315466  0.7345076036500 1.0
C      1  0.2503087251804  0.2223868750137  0.4906592314174 1.0
C      1  0.4347173630452  0.2602058792653  0.2392440654346 1.0
C      1  0.7155904100717  0.2571078128052  0.3638580732101 1.0
C      1  0.6932071618857  0.2577708545522  0.6618968735161 1.0
C      1  0.5717442588626  0.3155993842980  0.8658538170651 1.0
C      1  0.1691723572323  0.3201933474194  0.6889236320223 1.0
C      1  0.2116006056345  0.3151963804182  0.2672351068806 1.0
C      1  0.6565241025029  0.3455291387965  0.1787593633589 1.0
C      1  0.8619582263765  0.3403720600110  0.5559871647182 1.0
C      1  0.3151174015404  0.4447591657254  0.4921819343983 1.0
C      1  0.4570453746601  0.4569779489081  0.3368693037710 1.0
C      1  0.6524275228277  0.4856187779102  0.4423693437367 1.0
C      1  0.6069701240215  0.4883080382831  0.6438878619381 1.0
C      1  0.3944435553976  0.4856370299466  0.6645182999914 1.0
C      1  0.6368965446250  0.5836191968652  0.8783458029341 1.0
C      1  0.1098557082188  0.5664113694383  0.6985124116118 1.0
C      1  0.1680470769802  0.5411972111477  0.2626026463291 1.0
C      1  0.6305327211783  0.5500063262434  0.0938812582678 1.0
C      1  0.9030306903406  0.5725612918280  0.5267313947190 1.0
C      1  0.1853290626198  0.4028570282626  0.8366290387461 1.0
C      1  0.0596769168702  0.3761029904477  0.3042064848981 1.0
C      1  0.5980342635003  0.3897196977610  0.0169253492561 1.0
C      1  0.0120511630360  0.4200059235856  0.5174952546341 1.0
C      1  0.7092338048104  0.3887796297119  0.9036956232599 1.0
C      1  0.5086702682636  0.3231583027739  0.2402794803689 1.0
C      1  0.7465882483977  0.3180468066126  0.4299892427935 1.0
C      1  0.6435336938079  0.3187990188939  0.7149601406743 1.0
C      1  0.3340207902916  0.3136041071686  0.7065743350497 1.0
C      1  0.2583948827327  0.2878426555587  0.4224188591791 1.0
C      1  0.5184371260859  0.8356176962452  0.2992289683588 1.0
C      1  0.6995763338834  0.8147133990199  0.4453203858119 1.0
C      1  0.6115126957710  0.8264255423898  0.6566146708358 1.0
C      1  0.3766030942106  0.8204779318588  0.6445445532685 1.0
C      1  0.3190319559195  0.8314229445291  0.4233902837328 1.0
C      1  0.3631201059579  0.5822323704834  0.8516437926225 1.0
C      1  0.1453576172730  0.5661282262705  0.4341961505998 1.0
C      1  0.4590018522114  0.5793465240140  0.1079301052218 1.0
C      1  0.8471395539031  0.5585361708027  0.3468963349172 1.0
C      1  0.7711139532696  0.5978015427662  0.7702898495809 1.0
C      1  0.5694415014164  0.1507445764797  0.5287756238522 1.0
C      1  0.4955669605289  0.1358885940818  0.5905035330426 1.0
C      1  0.4118249392795  0.1131847625237  0.5551433899276 1.0
C      1  0.4593750966980  0.1466813221870  0.4023868826940 1.0
C      1  0.5495722759489  0.1545458007716  0.4340605135269 1.0
C      1  0.9482524152677  0.3633447685412  0.5430381565252 1.0
C      1  0.6324746336076  0.3449550922525  0.9355385351166 1.0
C      1  0.1590946447627  0.3530054767182  0.7741420769714 1.0
C      1  0.1191235453620  0.3256612289548  0.2744354771701 1.0
C      1  0.6549846617563  0.3947826863367  0.0991475536144 1.0
C      1  0.4079940345301  0.4561911184038  0.5009680192261 1.0
C      1  0.4785709502674  0.4621503714197  0.4341038237964 1.0
C      1  0.5632672593064  0.4573357643759  0.4818784657749 1.0
C      1  0.5427939296429  0.4669678308096  0.5709433134261 1.0
C      1  0.4493843531609  0.4665881948289  0.5834435969348 1.0
C      1  0.5152012108834  0.3891817404409  0.8482023656722 1.0
C      1  0.1657552269410  0.3857113884921  0.6154360340329 1.0
C      1  0.2508722624831  0.4012344167828  0.2580329234889 1.0
C      1  0.6842705715595  0.4120504879879  0.2447350117350 1.0
C      1  0.8049580438046  0.4074200790763  0.5966189365695 1.0
C      1  0.6165604222329  0.7207337429712  0.6383091010884 1.0
C      1  0.3988647554654  0.7149147577203  0.6433144116428 1.0
C      1  0.3302567825779  0.7264934071196  0.4378099497026 1.0
C      1  0.5016906125577  0.7322560518849  0.3080354507995 1.0
C      1  0.6796730179315  0.7101500521416  0.4387320219727 1.0
C      1  0.3650214512829  0.8702243642937  0.3534790065941 1.0
C      1  0.6038875122622  0.8657339041785  0.3169888174334 1.0
C      1  0.7112313515551  0.8540632278602  0.5281811410763 1.0
C      1  0.5328824748095  0.8637153982628  0.6861137486137 1.0
C      1  0.3170292274505  0.8579601211121  0.5852199293363 1.0
C      1  0.2975623776979  0.5203579320214  0.1550633877431 1.0
C      1  0.7476152319483  0.4823484305061  0.2131345855536 1.0
C      1  0.7897042715791  0.4957612024902  0.6394627200363 1.0
C      1  0.5009716631254  0.4643207351407  0.9087887045919 1.0
C      1  0.1004664813617  0.4493905404544  0.5657158005844 1.0
C      1  0.5623484697671  0.5863013895828  0.3446485485336 1.0
C      1  0.6872718868869  0.5538780817942  0.5101134021540 1.0
C      1  0.5546783799577  0.5636369545612  0.6943207202785 1.0
C      1  0.3317851435680  0.5563407128192  0.6152276882509 1.0
C      1  0.3831608439426  0.5783599373057  0.3577625272395 1.0
C      1  0.5294497036030  0.4530861981636  0.0064501544153 1.0
C      1  0.9832493415805  0.4671325562759  0.4313018303473 1.0
C      1  0.7384659615639  0.4581140222589  0.8672589254153 1.0
C      1  0.2367876510229  0.4663867081549  0.8702338648917 1.0
C      1  0.0467137832113  0.4537518152311  0.3549484443648 1.0
C      1  0.6397638581824  0.6412386370075  0.1121530092077 1.0
C      1  0.9146501648488  0.6612324898915  0.5033175281836 1.0
C      1  0.6314482158755  0.6776613146529  0.8730976005571 1.0
C      1  0.1647037861165  0.6354493224244  0.7243894391508 1.0
C      1  0.1763220167860  0.6348491345570  0.2559520049882 1.0
C      1  0.6003201863082  0.4053492580573  0.7057471276393 1.0
C      1  0.3285769911697  0.4037678683953  0.6755018545925 1.0
C      1  0.2814053113953  0.3820076576595  0.4226619104121 1.0
C      1  0.5207637438300  0.4061121914667  0.2820368128264 1.0
C      1  0.7075152848038  0.3994378200801  0.4613921771282 1.0
C      1  0.0815389392228  0.5165430999711  0.6377948033223 1.0
C      1  0.2279431306643  0.4870013357534  0.2124817407771 1.0
C      1  0.6933967635593  0.4836717366209  0.1185628145606 1.0
C      1  0.8372582201609  0.5826709572504  0.6075257164374 1.0
C      1  0.5509159369491  0.5474363309369  0.8858770178673 1.0
C      1  0.2703921614998  0.2592632290941  0.3237467627154 1.0
C      1  0.6003911726791  0.2804319131909  0.2255113610242 1.0
C      1  0.7931213200195  0.2766063046321  0.5134440372575 1.0
C      1  0.5840814650217  0.2700156014139  0.7813774373068 1.0
C      1  0.2499785812317  0.2671244394238  0.6710841021427 1.0
C      1  0.1862792469346  0.6857568487902  0.3327683446010 1.0
C      1  0.5678315698046  0.6933345057060  0.1410221526049 1.0
C      1  0.8582039798373  0.6956024931253  0.4359153052678 1.0
C      1  0.6714164380162  0.7259127806296  0.8063112956328 1.0
C      1  0.2516767893145  0.6657550495163  0.7497662123618 1.0
C      1  0.2100044083617  0.6927500562744  0.6650372621344 1.0
C      1  0.2519444258021  0.6944238879413  0.2609193905165 1.0
C      1  0.6559181206220  0.6966536901580  0.1845874547647 1.0
C      1  0.8459609099265  0.7238112391189  0.5282744439798 1.0
C      1  0.5704041940301  0.7304284196666  0.8263512353870 1.0
C      1  0.6639988145117  0.1650851495567  0.6678145776574 1.0
C      1  0.4052404318832  0.1607693495236  0.7326239525363 1.0
C      1  0.2982147070923  0.1393044381831  0.4792365441506 1.0
C      1  0.4663342377620  0.1671522836893  0.2274895939366 1.0
C      1  0.7157776139628  0.1611345763413  0.3844219328371 1.0
C      1  0.2615664822609  0.5002494414874  0.5587723314416 1.0
C      1  0.3619095560710  0.4931565156275  0.3319237693951 1.0
C      1  0.6285881445170  0.5156616363236  0.3520884434422 1.0
C      1  0.6957106732550  0.4997046095838  0.5952654090392 1.0
C      1  0.4791085026910  0.5109000022836  0.7439061036501 1.0
C      1  0.6519620978441  0.1752130333042  0.5718176042038 1.0
C      1  0.4870948518208  0.1687047154971  0.6789890752635 1.0
C      1  0.3193226611348  0.1397300490399  0.5744483181427 1.0
C      1  0.4278439659088  0.1726854665560  0.3147372654524 1.0
C      1  0.6210486140760  0.1768327295171  0.3735023925257 1.0
C      1  0.5330957855671  0.5295642495285  0.0693046600010 1.0
C      1  0.9091701155314  0.5223907683484  0.4330349410233 1.0
C      1  0.7233869183684  0.5467058447204  0.8406943922600 1.0
C      1  0.2972656107597  0.5243792686681  0.8779469506847 1.0
C      1  0.1148303933102  0.5192077151584  0.3491388145226 1.0
C      1  0.3706061989777  0.5429806475529  0.1211858082446 1.0
C      1  0.8068873470692  0.5173611981284  0.2726585904453 1.0
C      1  0.8275823410391  0.5572005685317  0.7044035800280 1.0
C      1  0.4590891077079  0.5441508140217  0.8485490671695 1.0
C      1  0.1658548473336  0.5150815786541  0.5155128267956 1.0
C      1  0.6363158766569  0.2475671271729  0.3069505371162 1.0
C      1  0.7251423347074  0.2439457187446  0.5696296279486 1.0
C      1  0.5038020393172  0.2463843535186  0.7334600320253 1.0
C      1  0.2627145952476  0.2149211742491  0.5930798527916 1.0
C      1  0.3575346226824  0.2403536392451  0.2959758230476 1.0
C      1  0.4635458331544  0.7196229429035  0.5639577378813 1.0
C      1  0.4255351928408  0.7274137599968  0.4750314821943 1.0
C      1  0.4967281056535  0.7318697047182  0.4124404989262 1.0
C      1  0.5799679432809  0.7225917845077  0.4619726819720 1.0
C      1  0.5583207733202  0.7196991029150  0.5547257021960 1.0
C      1  0.6119324327889  0.4407119460087  0.2941558275418 1.0
C      1  0.7243913516804  0.4147830951724  0.5531596516153 1.0
C      1  0.5242870324904  0.4231701587484  0.7597263171702 1.0
C      1  0.2507047539808  0.4234039471161  0.6195583689954 1.0
C      1  0.2953986274550  0.4237230305897  0.3373761539221 1.0
C      1  0.5057385951533  0.6986595478388  0.7640541629569 1.0
C      1  0.2490323758279  0.6840428669961  0.5783503939164 1.0
C      1  0.3459766305037  0.6996562718622  0.2669873407524 1.0
C      1  0.6671201860226  0.6848983744237  0.2775021221485 1.0
C      1  0.7734597171281  0.6674748905624  0.5802192157359 1.0
C      1  0.7109408414082  0.6410125649952  0.5067127119017 1.0
C      1  0.5612994876112  0.6555301782585  0.6950661017080 1.0
C      1  0.3342302113516  0.6473128284533  0.6083489080329 1.0
C      1  0.3460683895373  0.6687839646799  0.3580689807813 1.0
C      1  0.5762745804750  0.6667667188163  0.3052139821452 1.0
C      1  0.1840618662583  0.6537065865293  0.4224153676517 1.0
C      1  0.4796835488379  0.6642568352526  0.1564224250533 1.0
C      1  0.8143368323686  0.6503462439716  0.3672312292995 1.0
C      1  0.7307519535289  0.6844256506265  0.7443903387668 1.0
C      1  0.3400716645914  0.6534203310204  0.7878520634795 1.0
C      1  0.4500932680796  0.8643680357174  0.6797572744250 1.0
C      1  0.2989449510759  0.8705956825618  0.5047889722721 1.0
C      1  0.4374025600397  0.8784521621424  0.3130131319024 1.0
C      1  0.6672620878351  0.8589425344850  0.3705421157292 1.0
C      1  0.6760930402548  0.8649381860989  0.6028876904210 1.0
C      1  0.7228658618037  0.6780787535195  0.3505433625649 1.0
C      1  0.7153617385395  0.6982947661656  0.6524776567238 1.0
C      1  0.4153675530836  0.6921691193310  0.7412530825256 1.0
C      1  0.2455656167962  0.6910668692223  0.4855131791750 1.0
C      1  0.4335927203043  0.6997429976490  0.2345407283742 1.0
C      1  0.3931971838239  0.1202063418269  0.4619734125306 1.0
C      1  0.4781937383538  0.5505371728051  0.3733030449481 1.0
END
