TITL C-57884-1741-1 -6.203 3375.00 -1067.18963257 0 0 133 (C1) n - 1
REM
REM Run started: at 2020.12.03 07:38:19 in /rds/project/t2_vol4/rds-t2-cs072/BORA/CARBON/AIRSS/Generating-Clusters/Str-Search/Higher-Symm/C100-200
REM VASP from code version vasp.5.4.4.18Apr17-6-g9f103f2a35 (build Oct 11 2019 16:45:47) gamma-only
REM
REM
REM
REM
REM ./C.cell (533062f00bc710175b3da973d35f2034)
REM AIRSS Version 0.9.1 bugfix July 2018 build 013d7b7c2542+ Fri, 06 Jul 2018 19:26:36 +0100
REM compiler GCC version 4.8.5 20150623 (Red Hat 4.8.5-39)
REM options -cpp -mtune=generic -march=x86-64 -g -O0
REM seed 1486874910 -1635251811 566215309 563349301 -546188094 -472739341 758286079 -2118412315 1661726447 127867463 -1137229953 -1019618751
REM
REM C.POTCAR (d86ddea03c3ceb6dc662c8ad6801f873)
REM 
CELL 1.54180   15.00000   15.00000   15.00000   90.00000   90.00000   90.00000
LATT -1
SFAC C  
C      1  0.2770899411283  0.4339477991076  0.5691075371938 1.0
C      1  0.4359912226986  0.2295616370779  0.5724498828836 1.0
C      1  0.6570209374423  0.4522265056848  0.4975465921636 1.0
C      1  0.6037894437589  0.7418664773010  0.5810135040678 1.0
C      1  0.3564588865253  0.7484099574657  0.5858580321862 1.0
C      1  0.5106422421689  0.1593397957776  0.3706265512167 1.0
C      1  0.8218039638695  0.3764727686912  0.3849775385278 1.0
C      1  0.6991554703240  0.7712354595772  0.3689502139680 1.0
C      1  0.2705688387314  0.7540745500092  0.3793281976635 1.0
C      1  0.2116748482674  0.3845715916360  0.3631594824723 1.0
C      1  0.5304423326821  0.6681008513811  0.5698596682880 1.0
C      1  0.3701438537809  0.5952677636996  0.5765574911009 1.0
C      1  0.3771868257440  0.4167485672448  0.5640702379668 1.0
C      1  0.5294984226092  0.3555303671850  0.5623970940773 1.0
C      1  0.6324030126021  0.5322722915336  0.5494535474817 1.0
C      1  0.7509155069397  0.5879093534326  0.2063342801056 1.0
C      1  0.4634854350937  0.7196378962488  0.2787784100859 1.0
C      1  0.2237384091100  0.5419984381926  0.2559538355171 1.0
C      1  0.4067756987739  0.2676952553609  0.2465780528393 1.0
C      1  0.7287502490530  0.2371799362279  0.2596290934590 1.0
C      1  0.6103054823934  0.5127722921504  0.2143827991546 1.0
C      1  0.5440213353621  0.5863262062427  0.2039949827248 1.0
C      1  0.4568399787930  0.5497564939123  0.2215784193595 1.0
C      1  0.4706102541426  0.4640799980038  0.2504825157465 1.0
C      1  0.5616006240659  0.4397633232020  0.2466181288165 1.0
C      1  0.7915030743839  0.2930512964912  0.2523894193335 1.0
C      1  0.7363846664706  0.6668448110827  0.2321373942133 1.0
C      1  0.3663902479034  0.6807973507201  0.2765893460078 1.0
C      1  0.2766281810198  0.4702300798290  0.2665574953494 1.0
C      1  0.4928888589207  0.2605839014440  0.2710125393641 1.0
C      1  0.8200681075168  0.5465371845633  0.4413417447630 1.0
C      1  0.5366258893230  0.8334710755081  0.3900453684623 1.0
C      1  0.1960979075528  0.6444379767318  0.4796512484843 1.0
C      1  0.2676968203817  0.2500724907706  0.4429094783368 1.0
C      1  0.6298800855869  0.1957651391907  0.4743513359717 1.0
C      1  0.7006007942131  0.6329246187167  0.6851043115258 1.0
C      1  0.4253891710873  0.7406354551605  0.7307861867427 1.0
C      1  0.2568826895593  0.4960576089933  0.7190646056661 1.0
C      1  0.4014499795130  0.2841741117680  0.7155452533609 1.0
C      1  0.7006711787616  0.3577063443592  0.6644611104100 1.0
C      1  0.3420241579900  0.7551563272069  0.6791980556447 1.0
C      1  0.2363763190777  0.4201297813609  0.6620880857134 1.0
C      1  0.4538733026677  0.2155717256719  0.6656636880096 1.0
C      1  0.7621344028874  0.4045030742807  0.6033057222200 1.0
C      1  0.6800905390519  0.7213954537148  0.6522204865084 1.0
C      1  0.5610238027342  0.1920025325118  0.2994829657061 1.0
C      1  0.8181754158965  0.3770945033925  0.2860436266073 1.0
C      1  0.6879067981447  0.7149217829251  0.2925147710220 1.0
C      1  0.2730899347175  0.6976763922775  0.3075889275625 1.0
C      1  0.2647676552303  0.3712094343178  0.2893267189972 1.0
C      1  0.6867310432630  0.2685397852165  0.6740378741921 1.0
C      1  0.7734382706900  0.5798521202325  0.6645352516116 1.0
C      1  0.4925868772424  0.7991893920321  0.7431235551333 1.0
C      1  0.2102478121234  0.5694563383965  0.7397297672614 1.0
C      1  0.3114804668693  0.2776078983287  0.7152168029205 1.0
C      1  0.4391477489026  0.8296893345789  0.4022482620759 1.0
C      1  0.2102143928328  0.5766948315739  0.4109549278865 1.0
C      1  0.3296465596815  0.2335442198722  0.3794927957201 1.0
C      1  0.6794024665821  0.2405586036401  0.4110633484636 1.0
C      1  0.7823163249034  0.6322178811339  0.4509990549482 1.0
C      1  0.4825122637077  0.8034436995234  0.3215098512925 1.0
C      1  0.2195363008573  0.6136057291835  0.3107345303975 1.0
C      1  0.3301099420138  0.2916025424566  0.2916384664035 1.0
C      1  0.6568987185757  0.2142588004474  0.3157703181130 1.0
C      1  0.8739863527313  0.6252313461886  0.4293845691163 1.0
C      1  0.4251372049027  0.4947578945323  0.9039225393877 1.0
C      1  0.4862450239530  0.4192430195588  0.8945203353364 1.0
C      1  0.5814585482366  0.4485665229268  0.8905644781281 1.0
C      1  0.5811405992102  0.5440703354787  0.8949107365322 1.0
C      1  0.4851338931575  0.5710443743280  0.9013228084911 1.0
C      1  0.7294131823658  0.3333222623418  0.4168682734271 1.0
C      1  0.7018266597571  0.6933003504116  0.4450654688143 1.0
C      1  0.3541172858924  0.7826362053516  0.4303560843176 1.0
C      1  0.2104898966568  0.4712455875926  0.4205978087269 1.0
C      1  0.4250485099090  0.2065780575914  0.4103588531459 1.0
C      1  0.7376244480002  0.4345954240475  0.2770093378339 1.0
C      1  0.6099009435233  0.6608945455208  0.3269048795477 1.0
C      1  0.4280019704563  0.6565657769864  0.3586227882895 1.0
C      1  0.3466270821656  0.5109595244714  0.3337717150316 1.0
C      1  0.5182305387898  0.3287018811554  0.3473969903051 1.0
C      1  0.2998217976346  0.5213132124195  0.4253575811955 1.0
C      1  0.4522522347044  0.3065804655384  0.4327647074658 1.0
C      1  0.6793350154148  0.3909151818454  0.3418373280917 1.0
C      1  0.6186957411128  0.6378661295912  0.4164434043650 1.0
C      1  0.4095109612759  0.6971394351634  0.4416227525354 1.0
C      1  0.6052616346274  0.5049524276439  0.6462350833028 1.0
C      1  0.5241783680231  0.6166755382922  0.6561204811574 1.0
C      1  0.3766349496583  0.5926078570044  0.6684508081824 1.0
C      1  0.4192762705139  0.4486310744031  0.6521830911182 1.0
C      1  0.5412959317085  0.3617927188289  0.6527181432879 1.0
C      1  0.4606260045940  0.1746727393056  0.5006576225339 1.0
C      1  0.7410829030458  0.4032962235647  0.4996638644991 1.0
C      1  0.6465036657532  0.7631410364199  0.4976510412264 1.0
C      1  0.2996277784419  0.7739238628409  0.5154655937906 1.0
C      1  0.2159196953358  0.4059180674640  0.4971388959376 1.0
C      1  0.3947257741937  0.5884149189468  0.2889349718671 1.0
C      1  0.4177295003936  0.4471330538314  0.3275394865219 1.0
C      1  0.5925730979357  0.3824042340539  0.3150042784757 1.0
C      1  0.7053620217910  0.5073591368430  0.2227350932816 1.0
C      1  0.5438911558246  0.6638850954205  0.2550942680332 1.0
C      1  0.2291707953248  0.3340343413353  0.6898296022805 1.0
C      1  0.5380165981119  0.1885504048557  0.6888646749121 1.0
C      1  0.7987251872257  0.4857069649480  0.6308775938295 1.0
C      1  0.6252991522320  0.7897827366137  0.6678098276372 1.0
C      1  0.2616642939933  0.7283366697235  0.7158561412602 1.0
C      1  0.2257682990271  0.6556673272943  0.7422968710057 1.0
C      1  0.2242033477100  0.2453791863374  0.7084331377248 1.0
C      1  0.6189295927150  0.2164787096024  0.6929583464424 1.0
C      1  0.8605853929343  0.5531162773242  0.6452873651706 1.0
C      1  0.5728834789083  0.8254996825758  0.7368708597017 1.0
C      1  0.4167167399954  0.5006915226276  0.7985394475459 1.0
C      1  0.4799811268284  0.4191471823099  0.7932488211550 1.0
C      1  0.5800611625713  0.4486305740697  0.7861587144908 1.0
C      1  0.5779890889907  0.5520028457820  0.7915836177360 1.0
C      1  0.4772810890168  0.5829376532381  0.8012093742113 1.0
C      1  0.3353133299932  0.5122122190925  0.5249099504217 1.0
C      1  0.4385910842572  0.3272376407275  0.5324086446784 1.0
C      1  0.5702312720881  0.4245672700885  0.5063238827480 1.0
C      1  0.5740814191335  0.5995796736533  0.5014047303897 1.0
C      1  0.4236832301638  0.6796545895849  0.5400182899626 1.0
C      1  0.8120542079680  0.4501574673493  0.4431919999208 1.0
C      1  0.6279561744538  0.8142724069967  0.4206640750755 1.0
C      1  0.2267725576850  0.7297624855140  0.4662931852034 1.0
C      1  0.2168608367787  0.3287803341847  0.4447631083641 1.0
C      1  0.5470733207867  0.1531788941476  0.4614889366584 1.0
C      1  0.4482567018859  0.6441995454809  0.7201750921511 1.0
C      1  0.3584910635586  0.5067753665534  0.7142879251675 1.0
C      1  0.4564267167835  0.3682446341273  0.7081522426914 1.0
C      1  0.6181446089666  0.4144024845372  0.6915458926361 1.0
C      1  0.6133820098449  0.5873450830976  0.7030849849712 1.0
C      1  0.5047148188011  0.5169335986002  0.6243957580881 1.0
C      1  0.5245434953344  0.5130692074991  0.5231008676693 1.0
C      1  0.4406496793447  0.3766571962716  0.3729119933285 1.0
END
