TITL C-5887-279-2 -4.537 3375.00 -777.93819802 0 0 95 (C3) n - 1
REM
REM Run started: at 2020.12.17 17:36:13 in /gpfs/home/chem/mssmkc/CARBON/AIRSS/Generating-Clusters/Str-Search/Higher-Symm/C4-100
REM VASP from code version vasp.5.4.4.18Apr17-6-g9f103f2a35 (build Oct 11 2019 16:45:47) gamma-only
REM
REM
REM
REM
REM ./C.cell (6bd13a13d554368a30d355f37ece5b26)
REM AIRSS Version 0.9.1 bugfix July 2018 build 013d7b7c2542+ Fri, 06 Jul 2018 19:26:36 +0100
REM compiler GCC version 6.3.0
REM options -cpp -iprefix /gpfs/warwick/csc/orac/software/Core/GCCcore/6.3.0/bin/../lib/gcc/x86_64-pc-linux-gnu/6.3.0/ -mtune=generic -march=x86-64 -g -O0
REM seed -2068942980 1398318444 410400455 -1588709818 1244154672 529520124 479955318 -1329396417 657072280 -2110405465 1704767686 272594024
REM
REM C.POTCAR (d86ddea03c3ceb6dc662c8ad6801f873)
REM 
CELL 1.54180   15.00000   15.00000   15.00000   90.00000   90.00000   90.00000
LATT -1
SFAC C  
C      1  0.4732249668174  0.1935676315772  0.4085901737502 1.0
C      1  0.4351859960867  0.1939182583177  0.5684624642415 1.0
C      1  0.5926123376634  0.1934782720931  0.5216329607751 1.0
C      1  0.7302737645042  0.5855681991781  0.4772763453416 1.0
C      1  0.3664991300370  0.5863065920144  0.3120789718164 1.0
C      1  0.4056064162377  0.5858710242986  0.7097180779725 1.0
C      1  0.6492068678138  0.7391147583236  0.4412611877090 1.0
C      1  0.3761573477190  0.7395598848170  0.4002464119683 1.0
C      1  0.4771930432275  0.7391865135191  0.6571840906053 1.0
C      1  0.2069500509829  0.5989609718329  0.5488522175866 1.0
C      1  0.6903638285711  0.5985920387447  0.7297310959334 1.0
C      1  0.6050332765990  0.5988164009675  0.2203491586787 1.0
C      1  0.2256894680198  0.4189169102957  0.3985625766357 1.0
C      1  0.5508293247506  0.4184646376386  0.7883938908005 1.0
C      1  0.7247919759101  0.4183415521695  0.3121011651605 1.0
C      1  0.4628897395502  0.5543866148176  0.3133102367447 1.0
C      1  0.3586178255038  0.5542572926300  0.6254155638495 1.0
C      1  0.6809715479817  0.5539626326703  0.5602619637437 1.0
C      1  0.2860912098399  0.6347260204614  0.5011100739246 1.0
C      1  0.6094920995992  0.6343675093447  0.6850990426728 1.0
C      1  0.6068149413797  0.6345219428661  0.3127828994888 1.0
C      1  0.7005985925596  0.6199434235295  0.6337382851349 1.0
C      1  0.5168481515555  0.6203150094577  0.2597161615868 1.0
C      1  0.2850135585048  0.6201665468373  0.6056480436815 1.0
C      1  0.5165457154512  0.5144320828627  0.8044647397458 1.0
C      1  0.7561390801161  0.5142981808429  0.3338127887384 1.0
C      1  0.2291109311051  0.5147910127912  0.3609291738354 1.0
C      1  0.2031238805016  0.4467939075398  0.5995649670864 1.0
C      1  0.7358852212184  0.4464055043049  0.7072698843363 1.0
C      1  0.5627510147095  0.4468637546732  0.1912154227770 1.0
C      1  0.5202758072303  0.5108972766749  0.3801822968523 1.0
C      1  0.3876976100916  0.5110109484303  0.5422650700738 1.0
C      1  0.5943318108904  0.5106501102810  0.5766079928983 1.0
C      1  0.4009542606796  0.6869463543336  0.6933223736770 1.0
C      1  0.7186730103783  0.6867553617061  0.4892484797176 1.0
C      1  0.3828839319135  0.6874496401026  0.3159156343776 1.0
C      1  0.7817468320170  0.5031303531200  0.4338845368336 1.0
C      1  0.3031207873526  0.5039150918075  0.2889287409367 1.0
C      1  0.4172054487269  0.5034426672844  0.7764706560469 1.0
C      1  0.7048590058713  0.7032773915092  0.5807689270348 1.0
C      1  0.4690798418871  0.7038744539970  0.2821323082310 1.0
C      1  0.3284446725120  0.7036024031786  0.6358720052279 1.0
C      1  0.3176037761886  0.5508170129679  0.3860717613802 1.0
C      1  0.4940625146861  0.5503646025161  0.7152755147077 1.0
C      1  0.6903261341910  0.5501498717740  0.3981030022942 1.0
C      1  0.4873858891904  0.3681333987656  0.7444291835404 1.0
C      1  0.7187777443077  0.3680217934236  0.3890610327586 1.0
C      1  0.2955766164772  0.3686952654098  0.3657007881558 1.0
C      1  0.7168794092362  0.4803847518486  0.2467361611386 1.0
C      1  0.1732703140861  0.4809478147796  0.4385576460439 1.0
C      1  0.6116680320084  0.4804100011487  0.8138332820535 1.0
C      1  0.5054559678102  0.2670154283613  0.3538163778967 1.0
C      1  0.3716627052796  0.2673511063901  0.5680799045265 1.0
C      1  0.6243519462601  0.2667088786809  0.5769993853752 1.0
C      1  0.7551884659513  0.3695666140606  0.5489685157863 1.0
C      1  0.4161535280228  0.3703508498992  0.2543834934803 1.0
C      1  0.3305753730961  0.3703069961261  0.6957225081326 1.0
C      1  0.3959287814576  0.2417458714294  0.3726833418582 1.0
C      1  0.4427375294842  0.2417257539288  0.6535772762581 1.0
C      1  0.6624970541790  0.2412478270536  0.4725949402933 1.0
C      1  0.5631766602157  0.3378209328507  0.5999861379910 1.0
C      1  0.5560647324213  0.3379164059301  0.3954244109855 1.0
C      1  0.3824815064574  0.3382647516308  0.5034732710821 1.0
C      1  0.5169104941800  0.4258979446353  0.4398656661386 1.0
C      1  0.4408760188858  0.4259771354715  0.5153794561955 1.0
C      1  0.5443918208601  0.4257773652857  0.5437172637741 1.0
C      1  0.3265403575953  0.7233362884642  0.4786488839311 1.0
C      1  0.5698296212795  0.7229482086781  0.6611633537018 1.0
C      1  0.6062863574263  0.7231861385812  0.3589857978581 1.0
C      1  0.7547313623125  0.4132878260398  0.6333961471479 1.0
C      1  0.4893357652907  0.4140451024168  0.2124435357058 1.0
C      1  0.2578107267652  0.4143445789653  0.6531937092711 1.0
C      1  0.3552514496165  0.7598643876490  0.5625210687896 1.0
C      1  0.6279577791259  0.7594572596478  0.5942939542486 1.0
C      1  0.5192932790766  0.7599301735329  0.3420974754212 1.0
C      1  0.3379588957523  0.4118446809857  0.2886583095508 1.0
C      1  0.3994859415114  0.4113283798488  0.7465482599152 1.0
C      1  0.7646713284535  0.4110035541369  0.4641611633813 1.0
C      1  0.5951108755423  0.7858357688611  0.5089894093556 1.0
C      1  0.4618052025761  0.7862729238747  0.4132135846655 1.0
C      1  0.4456080008210  0.7860921234422  0.5766708813016 1.0
C      1  0.6891340475759  0.5096113536092  0.7613328749580 1.0
C      1  0.6329099713425  0.5098867754749  0.2054391538260 1.0
C      1  0.1801668573327  0.5100086626912  0.5319139457637 1.0
C      1  0.4342586626490  0.2821998827431  0.2912756007925 1.0
C      1  0.3532597681474  0.2823142469600  0.6611370930390 1.0
C      1  0.7141884248647  0.2814587444492  0.5463626160050 1.0
C      1  0.5998496179146  0.5565984401323  0.3750067256726 1.0
C      1  0.3432782391565  0.5567254743625  0.4759338743579 1.0
C      1  0.5591678402489  0.5563150361781  0.6482280127023 1.0
C      1  0.3461282589419  0.3091468426546  0.4199181123577 1.0
C      1  0.5088041552632  0.3088285940681  0.6732178701909 1.0
C      1  0.6464972280861  0.3087078463264  0.4060091678370 1.0
C      1  0.5003211513095  0.1841283320281  0.4995903504098 1.0
C      1  0.5008237950216  0.8007329649879  0.4996285877662 1.0
END
