TITL C-5887-279-141 -0.686 3375.00 -108.75484912 0 0 15 (C2) n - 1
REM
REM Run started: at 2020.12.18 19:59:23 in /gpfs/home/chem/mssmkc/CARBON/AIRSS/Generating-Clusters/Str-Search/Higher-Symm/C4-100
REM VASP from code version vasp.5.4.4.18Apr17-6-g9f103f2a35 (build Oct 11 2019 16:45:47) gamma-only
REM
REM
REM
REM
REM ./C.cell (6bd13a13d554368a30d355f37ece5b26)
REM AIRSS Version 0.9.1 bugfix July 2018 build 013d7b7c2542+ Fri, 06 Jul 2018 19:26:36 +0100
REM compiler GCC version 6.3.0
REM options -cpp -iprefix /gpfs/warwick/csc/orac/software/Core/GCCcore/6.3.0/bin/../lib/gcc/x86_64-pc-linux-gnu/6.3.0/ -mtune=generic -march=x86-64 -g -O0
REM seed 577003175 -946495101 1837264977 -1310546941 -970261059 1803141022 602025086 -186786581 1020782540 -578770471 1235726045 -1498654235
REM
REM C.POTCAR (d86ddea03c3ceb6dc662c8ad6801f873)
REM 
CELL 1.54180   15.00000   15.00000   15.00000   90.00000   90.00000   90.00000
LATT -1
SFAC C  
C      1  0.5589066810510  0.5914430303140  0.4807138273747 1.0
C      1  0.4541004805315  0.5914081411957  0.5117390272301 1.0
C      1  0.3687545063693  0.4432814593909  0.5133546259979 1.0
C      1  0.6451308508596  0.4443972789977  0.4782059748989 1.0
C      1  0.5304715005454  0.6077371031644  0.5719471545559 1.0
C      1  0.4826729502362  0.6079838918850  0.4205274867390 1.0
C      1  0.5950829412117  0.4707214383312  0.6303443576725 1.0
C      1  0.4184838824338  0.4707695598606  0.3603566146425 1.0
C      1  0.4418855724911  0.4972313167079  0.5518990292724 1.0
C      1  0.5709964537220  0.4973397015918  0.4400094590199 1.0
C      1  0.4199989012231  0.4194049340688  0.4370716049674 1.0
C      1  0.5929914362598  0.4190281866354  0.5536123980601 1.0
C      1  0.4915943003362  0.5264004763424  0.3642470198055 1.0
C      1  0.5217380885402  0.5258877319625  0.6278146437561 1.0
C      1  0.5063094541890  0.4392151495517  0.4960719760071 1.0
END
