TITL C-5887-279-94 -4.004 3375.00 -688.16327944 0 0 84 (D2) n - 1
REM
REM Run started: at 2020.12.18 10:25:43 in /gpfs/home/chem/mssmkc/CARBON/AIRSS/Generating-Clusters/Str-Search/Higher-Symm/C4-100
REM VASP from code version vasp.5.4.4.18Apr17-6-g9f103f2a35 (build Oct 11 2019 16:45:47) gamma-only
REM
REM
REM
REM
REM ./C.cell (6bd13a13d554368a30d355f37ece5b26)
REM AIRSS Version 0.9.1 bugfix July 2018 build 013d7b7c2542+ Fri, 06 Jul 2018 19:26:36 +0100
REM compiler GCC version 6.3.0
REM options -cpp -iprefix /gpfs/warwick/csc/orac/software/Core/GCCcore/6.3.0/bin/../lib/gcc/x86_64-pc-linux-gnu/6.3.0/ -mtune=generic -march=x86-64 -g -O0
REM seed -1488085646 -1749024411 -1242096849 -1585292757 -1350326564 885529574 257792675 1489585136 1504313800 -641134457 -1908457645 1582272762
REM
REM C.POTCAR (d86ddea03c3ceb6dc662c8ad6801f873)
REM 
CELL 1.54180   15.00000   15.00000   15.00000   90.00000   90.00000   90.00000
LATT -1
SFAC C  
C      1  0.7641153200901  0.5656301054353  0.4148031692873 1.0
C      1  0.7641152809418  0.4343698911657  0.5851967852404 1.0
C      1  0.2358846620267  0.4343700112133  0.4148029176392 1.0
C      1  0.2358847534308  0.5656301339162  0.5851966633225 1.0
C      1  0.6148215055192  0.5085363009513  0.6760370204476 1.0
C      1  0.6148216239294  0.4914637027698  0.3239629669375 1.0
C      1  0.3851784441443  0.4914638279072  0.6760369828483 1.0
C      1  0.3851784582398  0.5085361023038  0.3239629557137 1.0
C      1  0.5460031309719  0.2870278654786  0.6791636481620 1.0
C      1  0.5460032962181  0.7129721396438  0.3208363446906 1.0
C      1  0.4539967286556  0.7129722500884  0.6791635176321 1.0
C      1  0.4539968746939  0.2870277498730  0.3208365285913 1.0
C      1  0.4042408733362  0.2787772134440  0.5904983283481 1.0
C      1  0.4042409275329  0.7212227640080  0.4095015209710 1.0
C      1  0.5957590712595  0.7212228198621  0.5904983356865 1.0
C      1  0.5957591072549  0.2787772092110  0.4095018616734 1.0
C      1  0.4765080509382  0.3737819319202  0.2825367950840 1.0
C      1  0.4765078917376  0.6262180727158  0.7174632012165 1.0
C      1  0.5234921545450  0.6262179018455  0.2825367953350 1.0
C      1  0.5234919299518  0.3737821363960  0.7174631447088 1.0
C      1  0.4682012223764  0.2080868223594  0.4650256723836 1.0
C      1  0.4682012638727  0.7919131959583  0.5349743267945 1.0
C      1  0.5317988085344  0.7919131483544  0.4650255146429 1.0
C      1  0.5317987239423  0.2080868448884  0.5349745780903 1.0
C      1  0.4383599139389  0.5950134572378  0.3064909615599 1.0
C      1  0.4383596952834  0.4049865489203  0.6935090174619 1.0
C      1  0.5616402612974  0.4049863774422  0.3064909138669 1.0
C      1  0.5616401236957  0.5950136294664  0.6935090366536 1.0
C      1  0.1889715586589  0.5472399650843  0.4939440638630 1.0
C      1  0.1889714508719  0.4527602455121  0.5060557167382 1.0
C      1  0.8110284372457  0.4527601290114  0.4939442925186 1.0
C      1  0.8110285114023  0.5472398580622  0.5060560165116 1.0
C      1  0.3388236164171  0.2965859820897  0.4314266333469 1.0
C      1  0.3388235631413  0.7034138977903  0.5685731478378 1.0
C      1  0.6611764351690  0.7034138704234  0.4314266562337 1.0
C      1  0.6611763989186  0.2965862291131  0.5685733624377 1.0
C      1  0.3748534296568  0.6461564706238  0.3593605536384 1.0
C      1  0.3748533078993  0.3538435594748  0.6406393225363 1.0
C      1  0.6251466857035  0.3538434724700  0.3593607127573 1.0
C      1  0.6251465297961  0.6461566518307  0.6406393935103 1.0
C      1  0.3881001500526  0.7483071403160  0.5031369868383 1.0
C      1  0.3881001697960  0.2516928476492  0.4968628788364 1.0
C      1  0.6118998374083  0.2516928656458  0.5031372877581 1.0
C      1  0.6118998457759  0.7483071031110  0.4968628765867 1.0
C      1  0.4911306567132  0.7546657072678  0.3853915835000 1.0
C      1  0.4911305013657  0.2453342773185  0.6146083444683 1.0
C      1  0.5088694906017  0.2453342822392  0.3853918272897 1.0
C      1  0.5088693399314  0.7546657637942  0.6146082481132 1.0
C      1  0.5208145396173  0.5456083579357  0.4556538831386 1.0
C      1  0.5208160478017  0.4543913792178  0.5443476324290 1.0
C      1  0.4791838148865  0.4543914100317  0.4556524695971 1.0
C      1  0.4791855325354  0.5456084566059  0.5443461196782 1.0
C      1  0.2395877248769  0.4617259731570  0.5902888572176 1.0
C      1  0.2395876252801  0.5382740332091  0.4097110176654 1.0
C      1  0.7604123050157  0.5382742213605  0.5902890265307 1.0
C      1  0.7604123581010  0.4617259299807  0.4097112212362 1.0
C      1  0.6879092436595  0.4281916561756  0.3634511927695 1.0
C      1  0.6879089889535  0.5718085318591  0.6365489374480 1.0
C      1  0.3120909168752  0.5718083004824  0.3634509942844 1.0
C      1  0.3120908579659  0.4281917669845  0.6365488249096 1.0
C      1  0.2342855309172  0.6106354834536  0.6723960195636 1.0
C      1  0.2342861134122  0.3893639648481  0.3276045069792 1.0
C      1  0.7657141534955  0.3893642076681  0.6723960345528 1.0
C      1  0.7657140792833  0.6106356603180  0.3276045263589 1.0
C      1  0.6759792249024  0.6046325416841  0.4389684717039 1.0
C      1  0.6759794866119  0.3953674494343  0.5610314345147 1.0
C      1  0.3240204834392  0.3953672847461  0.4389685378909 1.0
C      1  0.3240208185557  0.6046325220171  0.5610313535133 1.0
C      1  0.3180511203107  0.3649949359617  0.2889148899456 1.0
C      1  0.3180511559453  0.6350048785373  0.7110850016173 1.0
C      1  0.6819489576934  0.6350048830272  0.2889148759254 1.0
C      1  0.6819488180571  0.3649950933483  0.7110853785432 1.0
C      1  0.3897099658406  0.5766375360066  0.7318391432067 1.0
C      1  0.3897100274793  0.4233623897331  0.2681607810302 1.0
C      1  0.6102899275270  0.4233626649855  0.7318392831347 1.0
C      1  0.6102901477249  0.5766374533188  0.2681607571078 1.0
C      1  0.6016919357104  0.4491845193207  0.5860928543179 1.0
C      1  0.6016936095699  0.5508157735030  0.4139064388981 1.0
C      1  0.3983064255568  0.5508159455616  0.5860934786029 1.0
C      1  0.3983080238156  0.4491844721646  0.4139070274881 1.0
C      1  0.3590118941248  0.7126960777962  0.6632900673494 1.0
C      1  0.3590120563623  0.2873037610801  0.3367096126862 1.0
C      1  0.6409880012024  0.2873039422767  0.6632903145019 1.0
C      1  0.6409880720091  0.7126960686057  0.3367096233530 1.0
END
