TITL C-5887-279-197 -0.755 3375.00 -109.53349741 0 0 15 (D5h) n - 1
REM
REM Run started: at 2020.12.19 05:23:37 in /gpfs/home/chem/mssmkc/CARBON/AIRSS/Generating-Clusters/Str-Search/Higher-Symm/C4-100
REM VASP from code version vasp.5.4.4.18Apr17-6-g9f103f2a35 (build Oct 11 2019 16:45:47) gamma-only
REM
REM
REM
REM
REM ./C.cell (6bd13a13d554368a30d355f37ece5b26)
REM AIRSS Version 0.9.1 bugfix July 2018 build 013d7b7c2542+ Fri, 06 Jul 2018 19:26:36 +0100
REM compiler GCC version 6.3.0
REM options -cpp -iprefix /gpfs/warwick/csc/orac/software/Core/GCCcore/6.3.0/bin/../lib/gcc/x86_64-pc-linux-gnu/6.3.0/ -mtune=generic -march=x86-64 -g -O0
REM seed -124056889 -1976434318 -1372805952 413445110 1298699638 1711119704 1260350392 485854963 1489489337 230052723 1093955572 1301296270
REM
REM C.POTCAR (d86ddea03c3ceb6dc662c8ad6801f873)
REM 
CELL 1.54180   15.00000   15.00000   15.00000   90.00000   90.00000   90.00000
LATT -1
SFAC C  
C      1  0.3348935957740  0.4443653083843  0.4993497395133 1.0
C      1  0.3956924674443  0.6396111466864  0.4998910906930 1.0
C      1  0.6006237957727  0.6417864953276  0.5001666762673 1.0
C      1  0.6660428670173  0.4486309515465  0.4994737864868 1.0
C      1  0.5013877579744  0.3261739690336  0.4992247654820 1.0
C      1  0.7473620651357  0.4217503504731  0.5008297081486 1.0
C      1  0.5013725045416  0.2405245057205  0.5002600262202 1.0
C      1  0.2529383497431  0.4195141898150  0.4997240730031 1.0
C      1  0.3460360657893  0.7093278533545  0.5018031378441 1.0
C      1  0.6551325455836  0.7077861911439  0.5019853016644 1.0
C      1  0.5793478244903  0.4753159734948  0.4993902270835 1.0
C      1  0.5007188689510  0.4167643962398  0.4992296579476 1.0
C      1  0.4207342725580  0.4733778446285  0.4993605504119 1.0
C      1  0.4498541948344  0.5669320178757  0.4996058252584 1.0
C      1  0.5478628243903  0.5681388062758  0.4997054339758 1.0
END
