TITL C-5887-279-55 -4.513 3375.00 -775.97472501 0 0 98 (C1) n - 1
REM
REM Run started: at 2020.12.18 04:02:53 in /gpfs/home/chem/mssmkc/CARBON/AIRSS/Generating-Clusters/Str-Search/Higher-Symm/C4-100
REM VASP from code version vasp.5.4.4.18Apr17-6-g9f103f2a35 (build Oct 11 2019 16:45:47) gamma-only
REM
REM
REM
REM
REM ./C.cell (6bd13a13d554368a30d355f37ece5b26)
REM AIRSS Version 0.9.1 bugfix July 2018 build 013d7b7c2542+ Fri, 06 Jul 2018 19:26:36 +0100
REM compiler GCC version 6.3.0
REM options -cpp -iprefix /gpfs/warwick/csc/orac/software/Core/GCCcore/6.3.0/bin/../lib/gcc/x86_64-pc-linux-gnu/6.3.0/ -mtune=generic -march=x86-64 -g -O0
REM seed 2000836596 317240085 -705237067 -1479639726 166077501 1286368473 -2066142043 -337671670 -221132962 397706666 936919229 1960650661
REM
REM C.POTCAR (d86ddea03c3ceb6dc662c8ad6801f873)
REM 
CELL 1.54180   15.00000   15.00000   15.00000   90.00000   90.00000   90.00000
LATT -1
SFAC C  
C      1  0.6796241120127  0.5507832653617  0.3827455654187 1.0
C      1  0.6584489033255  0.5509614028544  0.6367695771047 1.0
C      1  0.4159141588655  0.5527229644637  0.7024319571190 1.0
C      1  0.3004933217015  0.5507854292870  0.4875635445471 1.0
C      1  0.4451348161476  0.5522114135802  0.2849049653225 1.0
C      1  0.6727338786162  0.4465037384293  0.3864342505469 1.0
C      1  0.6549966817349  0.4451209321024  0.6332001834544 1.0
C      1  0.4142278799816  0.4421812088709  0.7078198747211 1.0
C      1  0.2983796052227  0.4423071636373  0.4886017281658 1.0
C      1  0.4432235946081  0.4499567839000  0.2846310176368 1.0
C      1  0.5488206068035  0.5753596160258  0.7933678045423 1.0
C      1  0.2334178638689  0.5652634612245  0.6277293365887 1.0
C      1  0.2835959723533  0.5641266013765  0.2974463286311 1.0
C      1  0.6309147858227  0.5608959001332  0.2279902524360 1.0
C      1  0.7898053303521  0.5638871531718  0.5423303867502 1.0
C      1  0.5536030299710  0.4216050259352  0.7952379226205 1.0
C      1  0.2289757089393  0.4336232854795  0.6295570222814 1.0
C      1  0.2827168775391  0.4375349760259  0.2943301028638 1.0
C      1  0.6268286303235  0.4289065327848  0.2427041372061 1.0
C      1  0.7835319787672  0.4342332629560  0.5475562655371 1.0
C      1  0.3622566259053  0.7005293204938  0.2126162724344 1.0
C      1  0.7093606442077  0.7045509770708  0.3004190475522 1.0
C      1  0.7365874091599  0.7105442190878  0.6200596940373 1.0
C      1  0.4994594955388  0.6613229614730  0.8056178798033 1.0
C      1  0.2065777716718  0.6887818049250  0.5172771412509 1.0
C      1  0.3640864718240  0.3056012507248  0.2022502737969 1.0
C      1  0.7121082510076  0.3036370522830  0.3101771590417 1.0
C      1  0.7371106252496  0.3005409077321  0.6228667904842 1.0
C      1  0.5019078760968  0.3379375564990  0.8114830511533 1.0
C      1  0.2032495879938  0.3069728698418  0.5208797699952 1.0
C      1  0.4011511077070  0.3032906855480  0.5653070180432 1.0
C      1  0.4630301328677  0.3071923359428  0.3807846654376 1.0
C      1  0.5509581317781  0.3234183973298  0.4261411293870 1.0
C      1  0.5721912502285  0.3235272864844  0.5315107574872 1.0
C      1  0.4954261575320  0.3103323098351  0.6047774848819 1.0
C      1  0.4083831695265  0.6847778451580  0.5552518626490 1.0
C      1  0.4675062751395  0.6903738146123  0.3861529229408 1.0
C      1  0.5613771975436  0.6758451092492  0.4220185635218 1.0
C      1  0.5817512119175  0.6727530519509  0.5274126000789 1.0
C      1  0.5013995289548  0.6799383234086  0.5963913102808 1.0
C      1  0.5464839326151  0.5531023811909  0.2895868440575 1.0
C      1  0.7051735557269  0.5508138176163  0.4812019674048 1.0
C      1  0.5737969446951  0.5504970098707  0.6938151065387 1.0
C      1  0.3374270331222  0.5482031311363  0.6368302321070 1.0
C      1  0.3299351754102  0.5507988737827  0.3915708911432 1.0
C      1  0.5433357439663  0.4514627850142  0.3013961407774 1.0
C      1  0.6999107248082  0.4479503365818  0.4847012838450 1.0
C      1  0.5728367944429  0.4442603797625  0.6945714454512 1.0
C      1  0.3334440116063  0.4455011887363  0.6407576998226 1.0
C      1  0.3281299587669  0.4448369938942  0.3913919440390 1.0
C      1  0.4905989829779  0.4075909780974  0.6459780689659 1.0
C      1  0.3694294299868  0.4040315831932  0.5539093864248 1.0
C      1  0.4032928042493  0.3880912231149  0.3556178587060 1.0
C      1  0.5699018481506  0.4242468276516  0.3967837069132 1.0
C      1  0.6183435129393  0.4208530211601  0.5399437655357 1.0
C      1  0.4960882174221  0.5825975125012  0.6385158571560 1.0
C      1  0.3763574523733  0.5847304143946  0.5479755522721 1.0
C      1  0.4073547426530  0.6099499045464  0.3589725300235 1.0
C      1  0.5960239986183  0.6026631760316  0.3632133321603 1.0
C      1  0.6484564679703  0.5996250596203  0.5487476236912 1.0
C      1  0.4431286306074  0.5936479388072  0.7872942091311 1.0
C      1  0.2253170573345  0.6025195473794  0.5360465323091 1.0
C      1  0.3621209463883  0.6184340114307  0.2651604839763 1.0
C      1  0.6810674834657  0.6138307900274  0.2996135558535 1.0
C      1  0.7339451627180  0.6164150465028  0.6110104837187 1.0
C      1  0.4454420711572  0.4079786897245  0.7967917270469 1.0
C      1  0.2207599221957  0.3937056994390  0.5378895646791 1.0
C      1  0.3627420926974  0.3854313337147  0.2601429334278 1.0
C      1  0.6942187157649  0.3919484964836  0.3032501247390 1.0
C      1  0.7420465755203  0.3907763576381  0.6273100298549 1.0
C      1  0.3466548816344  0.2352951311111  0.5447610334545 1.0
C      1  0.4535067923542  0.2351780532487  0.3248075608504 1.0
C      1  0.6256856228435  0.2492467153898  0.4249905352589 1.0
C      1  0.6362648234491  0.2486266138030  0.5172454412300 1.0
C      1  0.5162052723709  0.2466497089365  0.6774871896846 1.0
C      1  0.3546085350525  0.7543572556033  0.5362031227023 1.0
C      1  0.4550674340469  0.7662595203890  0.3351301314158 1.0
C      1  0.6284972354192  0.7594890194083  0.4247087226900 1.0
C      1  0.6369697145789  0.7595079809859  0.5159119186553 1.0
C      1  0.5164790252962  0.7454444983905  0.6688264031250 1.0
C      1  0.5048132892979  0.7356261619427  0.7500186342526 1.0
C      1  0.2713594742698  0.7455017823238  0.5123184388733 1.0
C      1  0.4105637772356  0.7534280058705  0.2607735700369 1.0
C      1  0.6923569018550  0.7646666445000  0.3557458024259 1.0
C      1  0.7012376106187  0.7771983238005  0.5838597346208 1.0
C      1  0.5050872575351  0.2628939965469  0.7581305545914 1.0
C      1  0.2639841261329  0.2461953110987  0.5186321889732 1.0
C      1  0.4086053483401  0.2500139387183  0.2506810171646 1.0
C      1  0.6928005664263  0.2376200577749  0.3596013054574 1.0
C      1  0.7030808021082  0.2347871687266  0.5817246445796 1.0
C      1  0.2361707097469  0.5024201083720  0.2452581127501 1.0
C      1  0.5403147788540  0.4982619085189  0.8505607945258 1.0
C      1  0.8518067896233  0.4970680883152  0.5666239713620 1.0
C      1  0.6674199238936  0.4874817531307  0.1810310323757 1.0
C      1  0.1655045037644  0.5017788674798  0.6451741181057 1.0
C      1  0.4614870019094  0.4437087323813  0.5557995349942 1.0
C      1  0.4703975764223  0.5384477610746  0.5502598307106 1.0
C      1  0.5360690757630  0.4665195858636  0.4931884556103 1.0
END
