TITL C-58442-1210-6 -4.798 3375.00 -825.59330427 0 0 101 (C1) n - 1
REM
REM Run started: at 2020.12.27 20:11:46 in /rds/project/t2_vol4/rds-t2-cs072/BORA/CARBON/AIRSS/Generating-Clusters/Str-Search/Higher-Symm/C100-200
REM VASP from code version vasp.5.4.4.18Apr17-6-g9f103f2a35 (build Oct 11 2019 16:45:47) gamma-only
REM
REM
REM
REM
REM ./C.cell (533062f00bc710175b3da973d35f2034)
REM AIRSS Version 0.9.1 bugfix July 2018 build 013d7b7c2542+ Fri, 06 Jul 2018 19:26:36 +0100
REM compiler GCC version 4.8.5 20150623 (Red Hat 4.8.5-39)
REM options -cpp -mtune=generic -march=x86-64 -g -O0
REM seed 1086500900 465396723 -1737857369 -664301512 -947520433 433282403 439760434 647138433 112003616 1862713635 -723586802 -1754359852
REM
REM C.POTCAR (d86ddea03c3ceb6dc662c8ad6801f873)
REM 
CELL 1.54180   15.00000   15.00000   15.00000   90.00000   90.00000   90.00000
LATT -1
SFAC C  
C      1  0.4869693961734  0.2402819634632  0.4549769255128 1.0
C      1  0.5099199559503  0.7773501875172  0.4223730049949 1.0
C      1  0.6329654507778  0.5488611379373  0.4260225327961 1.0
C      1  0.6366114632241  0.4593176283353  0.4244811579261 1.0
C      1  0.8411112567723  0.4101715084046  0.5310025501250 1.0
C      1  0.8375775595368  0.6049793055379  0.5409364236718 1.0
C      1  0.3907642256281  0.6698121565510  0.7009366889618 1.0
C      1  0.4157445796733  0.2916634019674  0.7251411888516 1.0
C      1  0.8883108888832  0.4656670612009  0.4653845930395 1.0
C      1  0.8847361484300  0.5574097069755  0.4692001744415 1.0
C      1  0.5948358576468  0.6813021767189  0.6962349007495 1.0
C      1  0.5971388097364  0.3106852947777  0.7096576925835 1.0
C      1  0.6544905309450  0.3904218054372  0.6600567992917 1.0
C      1  0.6523877309259  0.6025092790051  0.6597768057091 1.0
C      1  0.4696758263547  0.3415200917856  0.2321077877061 1.0
C      1  0.5034490446501  0.6620874633485  0.2101493170995 1.0
C      1  0.5712200092425  0.7531474522031  0.3523164147604 1.0
C      1  0.5500797967069  0.2609810509319  0.3757943738641 1.0
C      1  0.5236769279938  0.2242409551779  0.5467118378406 1.0
C      1  0.5482021755813  0.7584525234975  0.5146781422122 1.0
C      1  0.6481080098979  0.2928803847253  0.6353284161671 1.0
C      1  0.6571967392769  0.7006312934683  0.6339014898705 1.0
C      1  0.5857488345685  0.5505045321883  0.6007116271786 1.0
C      1  0.5888099045884  0.4458757981408  0.6010530907773 1.0
C      1  0.2828473923467  0.3428127376484  0.4047403526275 1.0
C      1  0.3071985254162  0.6685409973571  0.3858030593400 1.0
C      1  0.2987779208873  0.4241202516200  0.7189656243642 1.0
C      1  0.2943997843747  0.5222471954734  0.7138173150152 1.0
C      1  0.5013888482868  0.2794348090296  0.2992122650566 1.0
C      1  0.5297041334044  0.7301694671794  0.2704959470475 1.0
C      1  0.6109082539048  0.2608241382107  0.5555403845382 1.0
C      1  0.6549730653413  0.7371756317488  0.5436895398049 1.0
C      1  0.7958351829369  0.6672034495558  0.4710652263170 1.0
C      1  0.8048550999958  0.3542219741272  0.4544216176757 1.0
C      1  0.4937676022536  0.5843829144272  0.6328916828732 1.0
C      1  0.4967249535166  0.4125755625545  0.6270842862646 1.0
C      1  0.8110521453130  0.4519625463631  0.6075193989034 1.0
C      1  0.8100619016028  0.5526259333891  0.6123892393449 1.0
C      1  0.3236490700649  0.3186628519846  0.4954940083137 1.0
C      1  0.3593531975108  0.6981784581121  0.4607644759998 1.0
C      1  0.8404316744204  0.6091537100950  0.4001891855641 1.0
C      1  0.8523680961254  0.4141466519833  0.3907648531638 1.0
C      1  0.5948203825151  0.4165076572876  0.5005728365135 1.0
C      1  0.5815798676789  0.5828934649216  0.5013502190023 1.0
C      1  0.5963491745134  0.6769815668660  0.4873650692324 1.0
C      1  0.6372820059532  0.3248102797879  0.4884462253652 1.0
C      1  0.2446280716857  0.6071812916661  0.4146036444084 1.0
C      1  0.2502596122755  0.4318342744258  0.4127901951378 1.0
C      1  0.4946760970490  0.6828745938073  0.6685462234334 1.0
C      1  0.5097246336719  0.2743809635345  0.7047377658953 1.0
C      1  0.3227362581841  0.8054222975211  0.6266990435436 1.0
C      1  0.3047968014910  0.2302006041167  0.6235053349218 1.0
C      1  0.1963720270861  0.5721864880071  0.5812939473951 1.0
C      1  0.1875486199811  0.3555155764086  0.5973577044683 1.0
C      1  0.7243371479127  0.3107691453515  0.4465665367483 1.0
C      1  0.7205559941457  0.7212622817853  0.4675309797763 1.0
C      1  0.4414302163559  0.4122480344302  0.5544499360584 1.0
C      1  0.4354457569007  0.5889006607178  0.5491171687733 1.0
C      1  0.8146350526833  0.4628998164003  0.3207637549912 1.0
C      1  0.8112891493354  0.5630013008171  0.3244738998935 1.0
C      1  0.4045919391990  0.7948523540880  0.5943271840992 1.0
C      1  0.3865774509835  0.2230935587514  0.6596767005790 1.0
C      1  0.3511336581430  0.4100368077854  0.5274974417758 1.0
C      1  0.3522372803152  0.6414355324303  0.5409399294336 1.0
C      1  0.4541437979704  0.4414788378135  0.7101802355036 1.0
C      1  0.4507163918842  0.5315982568779  0.7090285900018 1.0
C      1  0.4870216473914  0.4148654682863  0.1847683139771 1.0
C      1  0.5190564927187  0.5821173424362  0.1722160834066 1.0
C      1  0.1294526453082  0.3812215155744  0.5287291300780 1.0
C      1  0.1207012769956  0.5949718064824  0.5351010210706 1.0
C      1  0.3954665012952  0.2640873581966  0.4431226505558 1.0
C      1  0.4189121749170  0.7522919684670  0.4103622003166 1.0
C      1  0.7312426996267  0.5448163490399  0.6718083460349 1.0
C      1  0.7334070341336  0.4496494881767  0.6693990127638 1.0
C      1  0.2147189898243  0.5175923133624  0.6590146322424 1.0
C      1  0.2145283932233  0.4179053000770  0.6636645369775 1.0
C      1  0.4880124282662  0.5425649357726  0.4821842026249 1.0
C      1  0.4986129488052  0.4508497328088  0.4863177761083 1.0
C      1  0.1106928514651  0.4156927816217  0.4548560018734 1.0
C      1  0.0942138510783  0.6061119858755  0.4547838821858 1.0
C      1  0.7184525588769  0.4595189969290  0.2977414903776 1.0
C      1  0.7157138907830  0.5579640772739  0.2998536509656 1.0
C      1  0.1572387213315  0.5621051837923  0.3957594217602 1.0
C      1  0.1611163061059  0.4694593860043  0.3924536354360 1.0
C      1  0.4801598763129  0.2134946864273  0.6314648581902 1.0
C      1  0.4864198694839  0.7523305916412  0.5922993072642 1.0
C      1  0.3757858970556  0.7190114363491  0.3284328740598 1.0
C      1  0.3526111805162  0.2936864844217  0.3615033467330 1.0
C      1  0.3438985087345  0.7076923143061  0.6241975744282 1.0
C      1  0.2600880290407  0.2882360146183  0.5749378689584 1.0
C      1  0.6454800266598  0.6982991835733  0.3967032337690 1.0
C      1  0.6419171551915  0.3083088452751  0.3869527491447 1.0
C      1  0.6587234501328  0.4052473594236  0.3526132965994 1.0
C      1  0.6589918405072  0.6059823689391  0.3585327758686 1.0
C      1  0.3700598588001  0.5810875863847  0.7257049578528 1.0
C      1  0.3814493095933  0.3798559016670  0.7335206362634 1.0
C      1  0.2734667515827  0.5749081188387  0.5111127196512 1.0
C      1  0.2978646029673  0.4760295012103  0.4868620872807 1.0
C      1  0.4087899598744  0.2918058381084  0.2855836810570 1.0
C      1  0.4363371146003  0.7107359458365  0.2602653905081 1.0
C      1  0.4994233980203  0.4984037470481  0.1710235883195 1.0
END
