TITL C-5887-279-56 -0.856 3375.00 -123.45703237 0 0 16 (C3v) n - 1
REM
REM Run started: at 2020.12.18 04:04:41 in /gpfs/home/chem/mssmkc/CARBON/AIRSS/Generating-Clusters/Str-Search/Higher-Symm/C4-100
REM VASP from code version vasp.5.4.4.18Apr17-6-g9f103f2a35 (build Oct 11 2019 16:45:47) gamma-only
REM
REM
REM
REM
REM ./C.cell (6bd13a13d554368a30d355f37ece5b26)
REM AIRSS Version 0.9.1 bugfix July 2018 build 013d7b7c2542+ Fri, 06 Jul 2018 19:26:36 +0100
REM compiler GCC version 6.3.0
REM options -cpp -iprefix /gpfs/warwick/csc/orac/software/Core/GCCcore/6.3.0/bin/../lib/gcc/x86_64-pc-linux-gnu/6.3.0/ -mtune=generic -march=x86-64 -g -O0
REM seed 586289464 18828817 570212769 295397751 -11496570 -170766083 1920281193 931247909 -983529427 1720241026 -342187863 -753366576
REM
REM C.POTCAR (d86ddea03c3ceb6dc662c8ad6801f873)
REM 
CELL 1.54180   15.00000   15.00000   15.00000   90.00000   90.00000   90.00000
LATT -1
SFAC C  
C      1  0.5342314893806  0.3678290779098  0.4728954362675 1.0
C      1  0.4741624217317  0.5412252049553  0.3562006945491 1.0
C      1  0.3716657435448  0.4820721354660  0.5296703500798 1.0
C      1  0.4746231024935  0.3658602766101  0.5320588303582 1.0
C      1  0.5316567050775  0.6411823636193  0.5304872629432 1.0
C      1  0.4733907430061  0.6577673467517  0.4721789889044 1.0
C      1  0.4745492744647  0.4782446550057  0.6471518149503 1.0
C      1  0.5319080978335  0.4823084965350  0.3706594165417 1.0
C      1  0.6497186352847  0.4788685393300  0.4729861217343 1.0
C      1  0.3570469313749  0.5409751239423  0.4721612276467 1.0
C      1  0.6467271186621  0.5378992845657  0.5319168985325 1.0
C      1  0.5335164624256  0.5375007438314  0.6433767803207 1.0
C      1  0.5874755537823  0.4269554857042  0.4240053939469 1.0
C      1  0.4266687408302  0.4269582673198  0.5841901988039 1.0
C      1  0.4303334516272  0.5850041594044  0.4287378991240 1.0
C      1  0.5872573284806  0.5881728390494  0.5852148852967 1.0
END
