TITL C-5887-279-81 -1.007 3375.00 -150.38495210 0 0 20 (C3) n - 1
REM
REM Run started: at 2020.12.18 08:08:14 in /gpfs/home/chem/mssmkc/CARBON/AIRSS/Generating-Clusters/Str-Search/Higher-Symm/C4-100
REM VASP from code version vasp.5.4.4.18Apr17-6-g9f103f2a35 (build Oct 11 2019 16:45:47) gamma-only
REM
REM
REM
REM
REM ./C.cell (6bd13a13d554368a30d355f37ece5b26)
REM AIRSS Version 0.9.1 bugfix July 2018 build 013d7b7c2542+ Fri, 06 Jul 2018 19:26:36 +0100
REM compiler GCC version 6.3.0
REM options -cpp -iprefix /gpfs/warwick/csc/orac/software/Core/GCCcore/6.3.0/bin/../lib/gcc/x86_64-pc-linux-gnu/6.3.0/ -mtune=generic -march=x86-64 -g -O0
REM seed -2113872832 -479246547 -1588709818 -6068025 1568457434 -1793910978 911810093 1344288570 -1946497225 1188950857 1488763418 -1369255026
REM
REM C.POTCAR (d86ddea03c3ceb6dc662c8ad6801f873)
REM 
CELL 1.54180   15.00000   15.00000   15.00000   90.00000   90.00000   90.00000
LATT -1
SFAC C  
C      1  0.6859754787171  0.5101328219050  0.3992386245330 1.0
C      1  0.3305272356341  0.5098959773477  0.3755467128523 1.0
C      1  0.4882218387817  0.5081785990595  0.6934004305143 1.0
C      1  0.4124891210122  0.6078398785768  0.5886552893941 1.0
C      1  0.6321694368157  0.6083856709111  0.5173487079137 1.0
C      1  0.4603984492373  0.6085938821321  0.3625390060927 1.0
C      1  0.4116649650358  0.5735167972221  0.5065228978866 1.0
C      1  0.5617488169180  0.5734127953182  0.5590002168467 1.0
C      1  0.5319157283087  0.5742010058743  0.4028071328915 1.0
C      1  0.6400341889100  0.4345283339881  0.4089250572666 1.0
C      1  0.3629593779281  0.4343529553730  0.4096367240785 1.0
C      1  0.5018375623393  0.4330935917634  0.6477929462889 1.0
C      1  0.4929047191241  0.5780501274112  0.6313605578207 1.0
C      1  0.6291109666776  0.5793433014855  0.4260510927383 1.0
C      1  0.3831509354718  0.5788453721518  0.4106701337168 1.0
C      1  0.4220916890334  0.3794859282113  0.4374602440876 1.0
C      1  0.4972137627810  0.3785948566675  0.5822648065959 1.0
C      1  0.5859415215174  0.3795428982732  0.4453809901878 1.0
C      1  0.5017992833336  0.5203864604895  0.4890480390284 1.0
C      1  0.5017365224235  0.4143087458387  0.4882386892657 1.0
END
