TITL C-5887-279-238 -1.295 3375.00 -200.59152088 0 0 26 (C1) n - 1
REM
REM Run started: at 2020.12.19 14:39:26 in /gpfs/home/chem/mssmkc/CARBON/AIRSS/Generating-Clusters/Str-Search/Higher-Symm/C4-100
REM VASP from code version vasp.5.4.4.18Apr17-6-g9f103f2a35 (build Oct 11 2019 16:45:47) gamma-only
REM
REM
REM
REM
REM ./C.cell (6bd13a13d554368a30d355f37ece5b26)
REM AIRSS Version 0.9.1 bugfix July 2018 build 013d7b7c2542+ Fri, 06 Jul 2018 19:26:36 +0100
REM compiler GCC version 6.3.0
REM options -cpp -iprefix /gpfs/warwick/csc/orac/software/Core/GCCcore/6.3.0/bin/../lib/gcc/x86_64-pc-linux-gnu/6.3.0/ -mtune=generic -march=x86-64 -g -O0
REM seed 1433831876 2077652434 421751706 96082909 1293742773 908976505 -955856331 1611924424 -982383285 -521204778 1204201941 1117239499
REM
REM C.POTCAR (d86ddea03c3ceb6dc662c8ad6801f873)
REM 
CELL 1.54180   15.00000   15.00000   15.00000   90.00000   90.00000   90.00000
LATT -1
SFAC C  
C      1  0.4174239895419  0.4941912303395  0.6368762139049 1.0
C      1  0.6845046265835  0.4818505368244  0.5466813839278 1.0
C      1  0.3924049115395  0.5098911947633  0.3408756780751 1.0
C      1  0.4081404626801  0.4033015720241  0.6221035906986 1.0
C      1  0.6767389236964  0.3915970933612  0.5452087216720 1.0
C      1  0.4054910122670  0.4268431444306  0.3315419495254 1.0
C      1  0.6764666209707  0.5627202164233  0.5272679764882 1.0
C      1  0.3957927625529  0.5893902925161  0.3872750199511 1.0
C      1  0.3805873071974  0.5679182255719  0.5809454224674 1.0
C      1  0.4513849975523  0.6373165287228  0.5925662097983 1.0
C      1  0.6214926387149  0.6248607819379  0.4866169285876 1.0
C      1  0.4796143245189  0.6451334986424  0.3913721616542 1.0
C      1  0.4854453226532  0.3117382181637  0.4269712597638 1.0
C      1  0.4506354953317  0.3325161423634  0.5779110808418 1.0
C      1  0.6126279628295  0.3254956790997  0.5304498492421 1.0
C      1  0.4905414433803  0.5474372601740  0.5987555627875 1.0
C      1  0.5520502923972  0.5867231332499  0.4299212450521 1.0
C      1  0.4035186175406  0.5563634299565  0.4794883100584 1.0
C      1  0.4881549898054  0.7103892352991  0.5457669575872 1.0
C      1  0.5747112706492  0.7054066990757  0.5062355662331 1.0
C      1  0.4938227224343  0.7177526235384  0.4488663129213 1.0
C      1  0.3629223989251  0.3203613326022  0.6107614214863 1.0
C      1  0.7028504557820  0.2993754207330  0.5355225816444 1.0
C      1  0.4465232677127  0.3574577043037  0.3680640701801 1.0
C      1  0.4965422078174  0.5394088057139  0.4938035058153 1.0
C      1  0.5183522749259  0.3137939001694  0.5139101196360 1.0
END
