TITL C-5887-279-83 -1.988 3375.00 -308.09189639 0 0 39 (C1) n - 1
REM
REM Run started: at 2020.12.18 08:18:25 in /gpfs/home/chem/mssmkc/CARBON/AIRSS/Generating-Clusters/Str-Search/Higher-Symm/C4-100
REM VASP from code version vasp.5.4.4.18Apr17-6-g9f103f2a35 (build Oct 11 2019 16:45:47) gamma-only
REM
REM
REM
REM
REM ./C.cell (6bd13a13d554368a30d355f37ece5b26)
REM AIRSS Version 0.9.1 bugfix July 2018 build 013d7b7c2542+ Fri, 06 Jul 2018 19:26:36 +0100
REM compiler GCC version 6.3.0
REM options -cpp -iprefix /gpfs/warwick/csc/orac/software/Core/GCCcore/6.3.0/bin/../lib/gcc/x86_64-pc-linux-gnu/6.3.0/ -mtune=generic -march=x86-64 -g -O0
REM seed -1524338008 1076194817 -866293151 -31009427 1208650908 -803978953 -706693562 -1975396626 866631731 1634712357 -342412848 -1967423617
REM
REM C.POTCAR (d86ddea03c3ceb6dc662c8ad6801f873)
REM 
CELL 1.54180   15.00000   15.00000   15.00000   90.00000   90.00000   90.00000
LATT -1
SFAC C  
C      1  0.4101848944605  0.3531973040779  0.6109859689796 1.0
C      1  0.5573212061323  0.3156351888146  0.5869666896352 1.0
C      1  0.6340304218433  0.3063255021609  0.4738930562797 1.0
C      1  0.5076787439609  0.3213796222933  0.4170574075489 1.0
C      1  0.3474885126966  0.3688668310002  0.4562787455938 1.0
C      1  0.3993410570099  0.6702486125082  0.3815031337263 1.0
C      1  0.5603309576484  0.6706520951068  0.4314866010698 1.0
C      1  0.6518958978207  0.6380937770297  0.5554256423419 1.0
C      1  0.4887992367316  0.6881628921169  0.5934560284585 1.0
C      1  0.3390787680871  0.6557229991743  0.5510280223712 1.0
C      1  0.4998974073938  0.3683681647520  0.6393403618403 1.0
C      1  0.6475906240111  0.3470217952701  0.5627290542898 1.0
C      1  0.6011692390814  0.3465491270097  0.3895498199040 1.0
C      1  0.4239276082867  0.3676821343272  0.3960888222696 1.0
C      1  0.3632469125420  0.3380808055019  0.5450746220128 1.0
C      1  0.4959709246792  0.6721899765675  0.3615279972745 1.0
C      1  0.6504492872002  0.6417021761752  0.4579061312853 1.0
C      1  0.5777049535236  0.6600493022373  0.6133635155620 1.0
C      1  0.4018593488891  0.6513526906690  0.6221502892523 1.0
C      1  0.3411202618546  0.6674895115828  0.4548810201571 1.0
C      1  0.6809928235946  0.5739268460310  0.4047052994496 1.0
C      1  0.4360526493289  0.6085834488071  0.3200715447537 1.0
C      1  0.2833985722443  0.6027798033983  0.4935280186557 1.0
C      1  0.4128498307628  0.5785504395214  0.6810204064783 1.0
C      1  0.6305445451026  0.5806094146629  0.6264126347351 1.0
C      1  0.6745047722508  0.4260752424469  0.5979729179943 1.0
C      1  0.5292037462356  0.4536656345131  0.6732464675718 1.0
C      1  0.2855531994596  0.4379243691790  0.4524131312206 1.0
C      1  0.4256813947696  0.4395001261444  0.3350983910896 1.0
C      1  0.6352152042155  0.4226357315570  0.3567076403477 1.0
C      1  0.4286796745445  0.5179119387332  0.3072195530884 1.0
C      1  0.4641311712664  0.5162281605074  0.7001381642941 1.0
C      1  0.6735479173067  0.4998982276121  0.3631261093853 1.0
C      1  0.6174327212611  0.4859919644966  0.6422341835989 1.0
C      1  0.2658244152145  0.5157070102046  0.4744435627850 1.0
C      1  0.5421614718895  0.2804843704828  0.4971957406320 1.0
C      1  0.5011881122881  0.6501726968530  0.5070333089996 1.0
C      1  0.4816476472811  0.5596929492325  0.4950123295318 1.0
C      1  0.5128671671308  0.4823581172412  0.4861763655360 1.0
END
