TITL C-5887-279-208 -2.495 3375.00 -410.47065047 0 0 52 (Cs) n - 1
REM
REM Run started: at 2020.12.19 07:48:00 in /gpfs/home/chem/mssmkc/CARBON/AIRSS/Generating-Clusters/Str-Search/Higher-Symm/C4-100
REM VASP from code version vasp.5.4.4.18Apr17-6-g9f103f2a35 (build Oct 11 2019 16:45:47) gamma-only
REM
REM
REM
REM
REM ./C.cell (6bd13a13d554368a30d355f37ece5b26)
REM AIRSS Version 0.9.1 bugfix July 2018 build 013d7b7c2542+ Fri, 06 Jul 2018 19:26:36 +0100
REM compiler GCC version 6.3.0
REM options -cpp -iprefix /gpfs/warwick/csc/orac/software/Core/GCCcore/6.3.0/bin/../lib/gcc/x86_64-pc-linux-gnu/6.3.0/ -mtune=generic -march=x86-64 -g -O0
REM seed 751953211 -1279760638 1703718676 -451185996 881028185 640980829 400717216 1297123572 -1011895296 865380637 -299867835 -1413480146
REM
REM C.POTCAR (d86ddea03c3ceb6dc662c8ad6801f873)
REM 
CELL 1.54180   15.00000   15.00000   15.00000   90.00000   90.00000   90.00000
LATT -1
SFAC C  
C      1  0.5918265684103  0.3525028856349  0.4090957433196 1.0
C      1  0.4081730331674  0.3525032257123  0.4090954492591 1.0
C      1  0.4025387405532  0.6441937081355  0.3278537474395 1.0
C      1  0.5974623346658  0.6441937989534  0.3278541433485 1.0
C      1  0.6237651319621  0.7133263280556  0.5324755520465 1.0
C      1  0.3762406695007  0.7133331328690  0.5324548306173 1.0
C      1  0.4073751730910  0.7353089354026  0.4581343752835 1.0
C      1  0.5926199717815  0.7353144238584  0.4581171733719 1.0
C      1  0.8387648867557  0.5272006982939  0.5479296867676 1.0
C      1  0.1612339846767  0.5272003299486  0.5479287113462 1.0
C      1  0.4095860198573  0.3604231911493  0.6747322122343 1.0
C      1  0.5904126063425  0.3604233086637  0.6747323848455 1.0
C      1  0.5485154314972  0.5716122945086  0.3801789026680 1.0
C      1  0.4514843480045  0.5716125194404  0.3801775251008 1.0
C      1  0.6276835460734  0.2723928901297  0.6589371894583 1.0
C      1  0.3723162204951  0.2723926968311  0.6589365546677 1.0
C      1  0.3723441863167  0.4597623645105  0.3163507434842 1.0
C      1  0.6276560281152  0.4597618694820  0.3163508103963 1.0
C      1  0.3243296403977  0.5719832010756  0.6203385923326 1.0
C      1  0.6756684253929  0.5719841858052  0.6203392230804 1.0
C      1  0.6169864693648  0.5581546039856  0.3125009266481 1.0
C      1  0.3830145978594  0.5581547486239  0.3125008356627 1.0
C      1  0.4131934950959  0.5178868370398  0.6358761880532 1.0
C      1  0.5868061680606  0.5178866062443  0.6358766153667 1.0
C      1  0.4582664410929  0.2680203809669  0.4174206989936 1.0
C      1  0.5417329175247  0.2680203005617  0.4174211398664 1.0
C      1  0.2934671340172  0.4257299209471  0.4692980264264 1.0
C      1  0.7065321959244  0.4257292593305  0.4692981117657 1.0
C      1  0.4429025004294  0.4767962331284  0.5417635273294 1.0
C      1  0.5570972667189  0.4767961466388  0.5417636180325 1.0
C      1  0.5454282551939  0.5478782814006  0.4741600131133 1.0
C      1  0.4545719553717  0.5478783652500  0.4741599003561 1.0
C      1  0.6238821179083  0.6523508877883  0.6035380223435 1.0
C      1  0.3761183962982  0.6523488348405  0.6035404323743 1.0
C      1  0.3852949696754  0.3954029556920  0.5102652031507 1.0
C      1  0.6147046271002  0.3954027811125  0.5102653894723 1.0
C      1  0.7660645367065  0.4801733560667  0.5098234301957 1.0
C      1  0.2339354615158  0.4801724122522  0.5098219966584 1.0
C      1  0.2460484091594  0.5452503287870  0.5809332567564 1.0
C      1  0.7539523069371  0.5452489327169  0.5809331952761 1.0
C      1  0.6753631062061  0.4056090382747  0.3806442603461 1.0
C      1  0.3246370030717  0.4056097980638  0.3806434004243 1.0
C      1  0.4525458812557  0.4436793872380  0.6956407834228 1.0
C      1  0.5474536158884  0.4436794340208  0.6956409648646 1.0
C      1  0.5450285509501  0.4084492008429  0.3376089066401 1.0
C      1  0.4549714502074  0.4084492645455  0.3376087967386 1.0
C      1  0.4502406373973  0.7182284643487  0.3761097319093 1.0
C      1  0.5497628932546  0.7182293504317  0.3761131464457 1.0
C      1  0.3806874986063  0.3377244358660  0.5906149314188 1.0
C      1  0.6193117816290  0.3377243514466  0.5906152932517 1.0
C      1  0.4552525831721  0.6099543936372  0.6377933107156 1.0
C      1  0.5447478293496  0.6099549194500  0.6377925949131 1.0
END
