TITL C-5887-279-124 -2.192 3375.00 -369.30633513 0 0 47 (C1) n - 1
REM
REM Run started: at 2020.12.18 16:53:33 in /gpfs/home/chem/mssmkc/CARBON/AIRSS/Generating-Clusters/Str-Search/Higher-Symm/C4-100
REM VASP from code version vasp.5.4.4.18Apr17-6-g9f103f2a35 (build Oct 11 2019 16:45:47) gamma-only
REM
REM
REM
REM
REM ./C.cell (6bd13a13d554368a30d355f37ece5b26)
REM AIRSS Version 0.9.1 bugfix July 2018 build 013d7b7c2542+ Fri, 06 Jul 2018 19:26:36 +0100
REM compiler GCC version 6.3.0
REM options -cpp -iprefix /gpfs/warwick/csc/orac/software/Core/GCCcore/6.3.0/bin/../lib/gcc/x86_64-pc-linux-gnu/6.3.0/ -mtune=generic -march=x86-64 -g -O0
REM seed 1301552291 39678031 -1607669097 1071381249 -766501304 9234668 -1458331948 -1612286067 946747738 1007108600 -1176349717 1049404864
REM
REM C.POTCAR (d86ddea03c3ceb6dc662c8ad6801f873)
REM 
CELL 1.54180   15.00000   15.00000   15.00000   90.00000   90.00000   90.00000
LATT -1
SFAC C  
C      1  0.2758949194986  0.4478521251471  0.3680710569284 1.0
C      1  0.3794386139045  0.6647689525573  0.3577351327502 1.0
C      1  0.6208733661847  0.6573837522866  0.3612748086549 1.0
C      1  0.6916277866600  0.4219868659845  0.3602927017503 1.0
C      1  0.4643071817419  0.3044487155780  0.3893637377610 1.0
C      1  0.2828037748939  0.5628727890642  0.6139685205723 1.0
C      1  0.3920846059132  0.3369332844675  0.5987592174273 1.0
C      1  0.6813221762503  0.3729695761055  0.6795687062583 1.0
C      1  0.6470770397950  0.5642137622607  0.6329721449045 1.0
C      1  0.4849649828601  0.6945989822053  0.6104555423516 1.0
C      1  0.5478142572519  0.5481767281910  0.7494436271904 1.0
C      1  0.5521536378703  0.4519290018779  0.7638007339967 1.0
C      1  0.4696810903803  0.4148401115146  0.7253446843603 1.0
C      1  0.4085159833741  0.4847046407859  0.7141563726754 1.0
C      1  0.4555437081105  0.5699469351416  0.7253954245698 1.0
C      1  0.5432971255837  0.4370029047105  0.2674416906486 1.0
C      1  0.5645608021381  0.5295839198582  0.2575182894876 1.0
C      1  0.4788779480628  0.5779844235041  0.2577379828456 1.0
C      1  0.4102210054712  0.5114034818832  0.2691311751973 1.0
C      1  0.4490114348878  0.4222911244419  0.2662900499784 1.0
C      1  0.3619910443248  0.4276150258837  0.4003347531095 1.0
C      1  0.3651577200086  0.5900044482273  0.4073344951340 1.0
C      1  0.5341151415431  0.6528959655224  0.3918079988658 1.0
C      1  0.6335358359626  0.4894392996843  0.3938280208861 1.0
C      1  0.5342673993436  0.3623013412576  0.4108480127130 1.0
C      1  0.3746576879235  0.5802922143779  0.5860477486989 1.0
C      1  0.3706377062318  0.4194095472954  0.5692425199365 1.0
C      1  0.5445279111332  0.3801978714510  0.5804921463576 1.0
C      1  0.6389324204882  0.5020523080637  0.5660756500879 1.0
C      1  0.5290171499113  0.6621571754423  0.5466536059456 1.0
C      1  0.3455052102884  0.5164431749550  0.3429682471959 1.0
C      1  0.4663762904681  0.6474363086338  0.3233129691073 1.0
C      1  0.6946544066132  0.6395653931784  0.3186989663917 1.0
C      1  0.5935102305962  0.4025885077692  0.3448263716129 1.0
C      1  0.4193982622550  0.3666566424656  0.3380535663778 1.0
C      1  0.3495387279566  0.4915331531428  0.6341184805609 1.0
C      1  0.4758623424245  0.3594909749362  0.6427119248741 1.0
C      1  0.6292820285934  0.4097414917647  0.7364399337278 1.0
C      1  0.6245785806350  0.5885726882587  0.7113094707767 1.0
C      1  0.4355273605518  0.6268371110304  0.6529942056537 1.0
C      1  0.5804126851368  0.5079703970400  0.4821973870514 1.0
C      1  0.4144511092755  0.5591024104095  0.4902431781379 1.0
C      1  0.4149134207087  0.4557551390033  0.4860214100611 1.0
C      1  0.5177539415223  0.5961602567499  0.4772131346615 1.0
C      1  0.5179195019292  0.4217614614977  0.4920716176107 1.0
C      1  0.6371454428156  0.5579050596644  0.3168268371704 1.0
C      1  0.6307923005258  0.4133157547293  0.6058683469844 1.0
END
