TITL C-5887-279-134 -3.677 3375.00 -624.79442687 0 0 77 (C1) n - 1
REM
REM Run started: at 2020.12.18 18:22:55 in /gpfs/home/chem/mssmkc/CARBON/AIRSS/Generating-Clusters/Str-Search/Higher-Symm/C4-100
REM VASP from code version vasp.5.4.4.18Apr17-6-g9f103f2a35 (build Oct 11 2019 16:45:47) gamma-only
REM
REM
REM
REM
REM ./C.cell (6bd13a13d554368a30d355f37ece5b26)
REM AIRSS Version 0.9.1 bugfix July 2018 build 013d7b7c2542+ Fri, 06 Jul 2018 19:26:36 +0100
REM compiler GCC version 6.3.0
REM options -cpp -iprefix /gpfs/warwick/csc/orac/software/Core/GCCcore/6.3.0/bin/../lib/gcc/x86_64-pc-linux-gnu/6.3.0/ -mtune=generic -march=x86-64 -g -O0
REM seed -338355671 -1923901976 2006552323 -378284983 2059416865 -1590470760 540041198 -317518890 670624660 968146619 1610312040 -64517936
REM
REM C.POTCAR (d86ddea03c3ceb6dc662c8ad6801f873)
REM 
CELL 1.54180   15.00000   15.00000   15.00000   90.00000   90.00000   90.00000
LATT -1
SFAC C  
C      1  0.3283909708879  0.5745259032824  0.6614493870475 1.0
C      1  0.3310720959140  0.6502547558740  0.6033856960348 1.0
C      1  0.3268427156545  0.6846436011101  0.5056532798333 1.0
C      1  0.3323713633572  0.6543439348127  0.4151901505068 1.0
C      1  0.3300874155166  0.5757129196548  0.3487175373926 1.0
C      1  0.3395536012300  0.4821730649513  0.3375200637809 1.0
C      1  0.3376615064585  0.3883515374009  0.3762553071811 1.0
C      1  0.3306500976684  0.3230955947200  0.4494733959803 1.0
C      1  0.3326797016839  0.3227573963634  0.5477930305174 1.0
C      1  0.3304854796274  0.3814847390868  0.6344613415738 1.0
C      1  0.3304868721432  0.4690486613477  0.6734076461844 1.0
C      1  0.4752243865627  0.7502653244213  0.6549875004848 1.0
C      1  0.4662774091675  0.7988593388644  0.5047555219224 1.0
C      1  0.4721208558008  0.7459324052789  0.3497754830949 1.0
C      1  0.4680823284334  0.6190790250170  0.2485578029932 1.0
C      1  0.4789976502496  0.4622745248023  0.2222433471858 1.0
C      1  0.4773990426628  0.3141573741412  0.2788377850735 1.0
C      1  0.4574873490310  0.2183119804415  0.4108066076001 1.0
C      1  0.4701806398712  0.2162121852642  0.5872061292383 1.0
C      1  0.4684995803531  0.3017521721704  0.7202234243189 1.0
C      1  0.4743481770678  0.4538871306846  0.7809452491156 1.0
C      1  0.4686552586004  0.6154584600007  0.7598406665130 1.0
C      1  0.5154959762690  0.7823841236610  0.4239687510513 1.0
C      1  0.5283453885779  0.6776406971105  0.3021373311747 1.0
C      1  0.5203328213222  0.5473376112157  0.2159056361314 1.0
C      1  0.5320536368290  0.3803178598136  0.2329229427546 1.0
C      1  0.5182658318836  0.2541984777204  0.3426870762398 1.0
C      1  0.5093846091113  0.2321165103455  0.4980757715008 1.0
C      1  0.5247133945800  0.2495140049020  0.6590216995239 1.0
C      1  0.5192481251578  0.3739533460275  0.7584244357619 1.0
C      1  0.5292920145808  0.5354009966983  0.7628391382362 1.0
C      1  0.5209745384635  0.6748518673324  0.6979356095550 1.0
C      1  0.5252346279817  0.7854275607542  0.5812916196288 1.0
C      1  0.6671629062016  0.6750282840032  0.4427911323728 1.0
C      1  0.6811021136599  0.6278323673478  0.3612967246119 1.0
C      1  0.6581816791137  0.5215507129286  0.3266531715274 1.0
C      1  0.6721130158197  0.4143181661194  0.3273104011272 1.0
C      1  0.6689724367920  0.3472779356177  0.3986676565550 1.0
C      1  0.6656933013015  0.3240934081768  0.4982529613988 1.0
C      1  0.6652381404267  0.3490974577713  0.5905072765472 1.0
C      1  0.6681255921537  0.4277675952792  0.6582716137564 1.0
C      1  0.6761207773706  0.5218215118314  0.6688493157912 1.0
C      1  0.6752110453824  0.6174847698340  0.6253209282307 1.0
C      1  0.6680087672012  0.6703667321134  0.5475584708115 1.0
C      1  0.4942739061456  0.3861734510586  0.5665025824914 1.0
C      1  0.4997634990286  0.4540650513597  0.6103866705959 1.0
C      1  0.5171463950047  0.5249744066027  0.6575488318657 1.0
C      1  0.5097655147421  0.6072899212490  0.6201829050504 1.0
C      1  0.4874341847002  0.6139334381481  0.5354181309539 1.0
C      1  0.4733245661761  0.6117580660696  0.4537108961753 1.0
C      1  0.5194996697856  0.6042340070370  0.3764879278857 1.0
C      1  0.5725261455124  0.5274611983053  0.3760748278568 1.0
C      1  0.5324526568549  0.4552491334143  0.4050486201676 1.0
C      1  0.4940866909741  0.3848963884829  0.4233320029101 1.0
C      1  0.4933487837248  0.3322927406401  0.4965749255192 1.0
C      1  0.6076753923985  0.2673435360704  0.3802796003472 1.0
C      1  0.6057563328222  0.2477010048170  0.4728668143566 1.0
C      1  0.6090426194910  0.2976455810751  0.6550545797367 1.0
C      1  0.6076488902105  0.3708124035492  0.7175024710580 1.0
C      1  0.6244044126257  0.5630515616394  0.7456043566633 1.0
C      1  0.6210432715106  0.6483975868785  0.7062120873953 1.0
C      1  0.6094327971252  0.7534903380016  0.5465069900023 1.0
C      1  0.6065684543731  0.7545323017858  0.4514787412363 1.0
C      1  0.6240899851386  0.6523005202242  0.2837797723148 1.0
C      1  0.6143312846071  0.5665463902374  0.2433443482678 1.0
C      1  0.6205544668914  0.3767439633274  0.2588867798415 1.0
C      1  0.3800819595396  0.6329259457680  0.2851771699447 1.0
C      1  0.3928513990919  0.4452210385024  0.2602209006355 1.0
C      1  0.3911846446262  0.3561158629493  0.2972661446245 1.0
C      1  0.3702458160475  0.2460081016921  0.4033591426682 1.0
C      1  0.3818360473733  0.2534018475711  0.5992532066461 1.0
C      1  0.3824766624440  0.3084675485721  0.6785883488346 1.0
C      1  0.3856828347006  0.4827495029495  0.7564891035874 1.0
C      1  0.3836130555652  0.5790944051570  0.7442539718527 1.0
C      1  0.3866315021498  0.7330485471035  0.6232463581916 1.0
C      1  0.3808682316975  0.7625648106769  0.5312381994187 1.0
C      1  0.3835337887998  0.7071456727903  0.3459461730421 1.0
END
