TITL C-5887-279-166 -4.001 3375.00 -696.01626268 0 0 87 (D3h) n - 1
REM
REM Run started: at 2020.12.18 23:35:16 in /gpfs/home/chem/mssmkc/CARBON/AIRSS/Generating-Clusters/Str-Search/Higher-Symm/C4-100
REM VASP from code version vasp.5.4.4.18Apr17-6-g9f103f2a35 (build Oct 11 2019 16:45:47) gamma-only
REM
REM
REM
REM
REM ./C.cell (6bd13a13d554368a30d355f37ece5b26)
REM AIRSS Version 0.9.1 bugfix July 2018 build 013d7b7c2542+ Fri, 06 Jul 2018 19:26:36 +0100
REM compiler GCC version 6.3.0
REM options -cpp -iprefix /gpfs/warwick/csc/orac/software/Core/GCCcore/6.3.0/bin/../lib/gcc/x86_64-pc-linux-gnu/6.3.0/ -mtune=generic -march=x86-64 -g -O0
REM seed 1427811459 -521976349 2063204696 -1284704915 47204846 -681567160 -882908806 637518789 27220900 1663230748 1068985523 1804880549
REM
REM C.POTCAR (d86ddea03c3ceb6dc662c8ad6801f873)
REM 
CELL 1.54180   15.00000   15.00000   15.00000   90.00000   90.00000   90.00000
LATT -1
SFAC C  
C      1  0.3093261521825  0.5516716431785  0.7252804779736 1.0
C      1  0.6401184384215  0.6389981920369  0.7253288025523 1.0
C      1  0.5504663586230  0.3092660925225  0.7253378134321 1.0
C      1  0.3094944371639  0.5516582874834  0.2798450250930 1.0
C      1  0.6400201286878  0.6388883205340  0.2797874201220 1.0
C      1  0.5504085372698  0.3093647617478  0.2799874640985 1.0
C      1  0.6906737991664  0.5516717269156  0.7252804999717 1.0
C      1  0.3598814672266  0.6389981312443  0.7253287892889 1.0
C      1  0.4495337216219  0.3092660333887  0.7253377738319 1.0
C      1  0.6905055119424  0.5516583972871  0.2798450047341 1.0
C      1  0.3599797831954  0.6388882444897  0.2797874579897 1.0
C      1  0.4495915537074  0.3093647419769  0.2799874324746 1.0
C      1  0.4542781576356  0.6160235643810  0.7025225272711 1.0
C      1  0.6236541806412  0.4814493052719  0.7025538412709 1.0
C      1  0.4222179726997  0.4024120437350  0.7025771901266 1.0
C      1  0.4542994324595  0.6159140525117  0.3028607723898 1.0
C      1  0.6234959402017  0.4814762843356  0.3029233401876 1.0
C      1  0.4223271900608  0.4024614030680  0.3029696925193 1.0
C      1  0.5457217672907  0.6160235914092  0.7025224977229 1.0
C      1  0.3763458143612  0.4814492415016  0.7025538783157 1.0
C      1  0.5777820149501  0.4024121184708  0.7025772058784 1.0
C      1  0.5457004894088  0.6159140823670  0.3028607341282 1.0
C      1  0.3765040466260  0.4814762207676  0.3029233982589 1.0
C      1  0.5776728379821  0.4024614454162  0.3029696898676 1.0
C      1  0.5537105861627  0.8057809711818  0.4556342209131 1.0
C      1  0.7380577961175  0.3008822330690  0.4557720736698 1.0
C      1  0.2077922328434  0.3937220033555  0.4556923055719 1.0
C      1  0.5535718855975  0.8056753946313  0.5487772065754 1.0
C      1  0.7380707215130  0.3010260402834  0.5488730434673 1.0
C      1  0.2078710171971  0.3936762101885  0.5488558003988 1.0
C      1  0.4462893072244  0.8057809180155  0.4556342467708 1.0
C      1  0.2619423197467  0.3008820023240  0.4557720654550 1.0
C      1  0.7922079222762  0.3937222371373  0.4556923088731 1.0
C      1  0.4464280185596  0.8056753629876  0.5487772313371 1.0
C      1  0.2619293754384  0.3010257690261  0.5488730369806 1.0
C      1  0.7921290845171  0.3936764625329  0.5488558024009 1.0
C      1  0.6439116392973  0.7198864574330  0.6813066735457 1.0
C      1  0.6188628366777  0.2654431682208  0.6815713598648 1.0
C      1  0.2370911868531  0.5149327977724  0.6812765921976 1.0
C      1  0.6440649156599  0.7197308899133  0.3237551458911 1.0
C      1  0.6185484414924  0.2653565458060  0.3238165405667 1.0
C      1  0.2372575281341  0.5150625638623  0.3238365345681 1.0
C      1  0.3560882308335  0.7198863834664  0.6813066339277 1.0
C      1  0.3811373506171  0.2654430092731  0.6815712659431 1.0
C      1  0.7629087672728  0.5149329805529  0.6812765482463 1.0
C      1  0.3559349871523  0.7197308323167  0.3237551489138 1.0
C      1  0.3814516627574  0.2653564741836  0.3238164708436 1.0
C      1  0.7627424964138  0.5150627307883  0.3238364672870 1.0
C      1  0.3989945155444  0.5004002793738  0.4019005013085 1.0
C      1  0.5508184827638  0.5869818614611  0.4018205048856 1.0
C      1  0.5500370025754  0.4124400898285  0.4019470522833 1.0
C      1  0.3989705234103  0.5003524688181  0.6035972119497 1.0
C      1  0.5508338600020  0.5869605622116  0.6036131896562 1.0
C      1  0.5500392538703  0.4123789063914  0.6036657883987 1.0
C      1  0.6010054827786  0.5004003429567  0.4019004464257 1.0
C      1  0.4491814752959  0.5869818268744  0.4018205278461 1.0
C      1  0.4499630310742  0.4124400490804  0.4019470393473 1.0
C      1  0.6010294533374  0.5003525115294  0.6035971676962 1.0
C      1  0.4491660725580  0.5869605331832  0.6036132057476 1.0
C      1  0.4499607413375  0.4123788802003  0.6036657730819 1.0
C      1  0.5811868587641  0.3338891128797  0.4556236836799 1.0
C      1  0.3154275924817  0.5126824665175  0.4555486240684 1.0
C      1  0.6031604014296  0.6532879839825  0.4555133941187 1.0
C      1  0.5812248938422  0.3339025745245  0.5497184746260 1.0
C      1  0.3154547300708  0.5125150701479  0.5496689225077 1.0
C      1  0.6031145991498  0.6532554842437  0.5496209772542 1.0
C      1  0.4188132145324  0.3338890428802  0.4556236475518 1.0
C      1  0.6845724012035  0.5126825593080  0.4555485509771 1.0
C      1  0.3968395242138  0.6532879353590  0.4555133886973 1.0
C      1  0.4187751661931  0.3339025344390  0.5497184290355 1.0
C      1  0.6845452337944  0.5125151861584  0.5496688676112 1.0
C      1  0.3968853196453  0.6532554245271  0.5496209675142 1.0
C      1  0.6554319603789  0.2844064782861  0.4044593811868 1.0
C      1  0.2351451652218  0.4735102940179  0.4044064765054 1.0
C      1  0.6092184816250  0.7422358278921  0.4044201857539 1.0
C      1  0.6556250531143  0.2844949685838  0.6007758306089 1.0
C      1  0.2351188858240  0.4733352194629  0.6006403646485 1.0
C      1  0.6090252703265  0.7423078421790  0.6005856224008 1.0
C      1  0.3445681509871  0.2844063429172  0.4044593411428 1.0
C      1  0.7648549067283  0.4735105465129  0.4044064607534 1.0
C      1  0.3907814283015  0.7422357640728  0.4044201982383 1.0
C      1  0.3443750766530  0.2844948067946  0.6007757877053 1.0
C      1  0.7648811335612  0.4733354215746  0.6006403492348 1.0
C      1  0.3909746445927  0.7423077902569  0.6005856194757 1.0
C      1  0.3094732776699  0.6098898132433  0.5025849287679 1.0
C      1  0.6905266463538  0.6098899147175  0.5025849583742 1.0
C      1  0.5000000449122  0.2800273182493  0.5026732052257 1.0
END
