TITL C-5887-279-12 -4.047 3375.00 -715.59637908 0 0 85 (C1) n - 1
REM
REM Run started: at 2020.12.17 19:33:07 in /gpfs/home/chem/mssmkc/CARBON/AIRSS/Generating-Clusters/Str-Search/Higher-Symm/C4-100
REM VASP from code version vasp.5.4.4.18Apr17-6-g9f103f2a35 (build Oct 11 2019 16:45:47) gamma-only
REM
REM
REM
REM
REM ./C.cell (6bd13a13d554368a30d355f37ece5b26)
REM AIRSS Version 0.9.1 bugfix July 2018 build 013d7b7c2542+ Fri, 06 Jul 2018 19:26:36 +0100
REM compiler GCC version 6.3.0
REM options -cpp -iprefix /gpfs/warwick/csc/orac/software/Core/GCCcore/6.3.0/bin/../lib/gcc/x86_64-pc-linux-gnu/6.3.0/ -mtune=generic -march=x86-64 -g -O0
REM seed 410147099 -2002231969 -1333984633 -1694458849 1629268848 204459845 1529365535 1063494499 -420020696 294666250 494047118 -1463153958
REM
REM C.POTCAR (d86ddea03c3ceb6dc662c8ad6801f873)
REM 
CELL 1.54180   15.00000   15.00000   15.00000   90.00000   90.00000   90.00000
LATT -1
SFAC C  
C      1  0.4073054365642  0.2861312618955  0.4770979977006 1.0
C      1  0.5702463942514  0.2850299727307  0.4354930476666 1.0
C      1  0.5288211773061  0.2875906181066  0.5990788711647 1.0
C      1  0.4990432605407  0.5965798916512  0.5722791492055 1.0
C      1  0.4486236919698  0.6027100152532  0.4814458234411 1.0
C      1  0.5485381903140  0.6028132104963  0.4816944886846 1.0
C      1  0.6591446547943  0.4390377302319  0.2724966110592 1.0
C      1  0.6224620432477  0.4490962390021  0.7490794750003 1.0
C      1  0.2175883312922  0.4398182839949  0.4755484371208 1.0
C      1  0.2172221210698  0.4211977380987  0.3802912102327 1.0
C      1  0.7439511845474  0.4221289459219  0.3172688780400 1.0
C      1  0.5317177843864  0.4445156489562  0.7822157955527 1.0
C      1  0.3670627144705  0.5289721430752  0.7683458922936 1.0
C      1  0.3298810158843  0.5001718319969  0.2627506032565 1.0
C      1  0.7943471689400  0.5003060784279  0.4707652150043 1.0
C      1  0.4578008011658  0.6058747913147  0.2715835936697 1.0
C      1  0.7291908042649  0.6084576508154  0.5791768361858 1.0
C      1  0.2968422964167  0.6159083937130  0.6520081333196 1.0
C      1  0.4899114865659  0.4981811862644  0.5903654753163 1.0
C      1  0.4244641302903  0.5083103129576  0.4577116038381 1.0
C      1  0.5751067625827  0.5081180386668  0.4640209099648 1.0
C      1  0.4760321699518  0.2829878413561  0.4084210064668 1.0
C      1  0.5967850570497  0.2844572812992  0.5296877883312 1.0
C      1  0.4343238371766  0.2910697773414  0.5703788130602 1.0
C      1  0.5531846704556  0.3194620568977  0.6874615071764 1.0
C      1  0.3211358459542  0.3223382964693  0.4533004339484 1.0
C      1  0.6335171668788  0.3189368471786  0.3719369102253 1.0
C      1  0.6546087751395  0.5115193172510  0.4263368889186 1.0
C      1  0.4545388985333  0.4716648050128  0.6662780246204 1.0
C      1  0.3537446944053  0.5121548119467  0.4057477291530 1.0
C      1  0.4687050899410  0.5223188482342  0.7569778578650 1.0
C      1  0.2911321613816  0.4679449793225  0.3477041889464 1.0
C      1  0.7365829004546  0.4684005009069  0.3977350915105 1.0
C      1  0.7007487198356  0.3648470703541  0.6334522055270 1.0
C      1  0.2913240406310  0.3720429297113  0.6050362495285 1.0
C      1  0.5157442578372  0.3627976672303  0.2686169679770 1.0
C      1  0.7484449508595  0.3484761658668  0.4869330797688 1.0
C      1  0.4062892651085  0.3867364984503  0.7043365507782 1.0
C      1  0.3652047967216  0.3489143819756  0.2956770137788 1.0
C      1  0.3273682104681  0.6058544816675  0.3815097954784 1.0
C      1  0.6897747283190  0.6052105696401  0.4147989941441 1.0
C      1  0.5130056273142  0.6068980656110  0.7353266108995 1.0
C      1  0.7553042579674  0.4433385007187  0.6145904309321 1.0
C      1  0.2718127816205  0.4514492180944  0.6581751371143 1.0
C      1  0.4761809335850  0.4421654506680  0.2303995144204 1.0
C      1  0.6153844985352  0.5274730247016  0.2644953272450 1.0
C      1  0.6611509336632  0.5304555232835  0.7167070191240 1.0
C      1  0.2287812428607  0.5301716034980  0.5159671004306 1.0
C      1  0.4513558570744  0.3141214173052  0.3209847241919 1.0
C      1  0.6859295026343  0.3150432733920  0.5509629422365 1.0
C      1  0.3734125383278  0.3327425896863  0.6296649110510 1.0
C      1  0.3827456627516  0.4271758876535  0.2369128956705 1.0
C      1  0.7924947769124  0.4278003920411  0.5292503521226 1.0
C      1  0.3303396878258  0.4485330060547  0.7325201785047 1.0
C      1  0.4646612892217  0.7837303252435  0.5503479586925 1.0
C      1  0.4805564117830  0.7873093710407  0.4549774944182 1.0
C      1  0.5544278335885  0.7885705117152  0.5159556400843 1.0
C      1  0.6371013513374  0.3668465150732  0.6991885586734 1.0
C      1  0.2648074906759  0.3668763581600  0.5164975444567 1.0
C      1  0.6041471945111  0.3627966440772  0.2920000115413 1.0
C      1  0.3625782059928  0.5864431817854  0.2830915673111 1.0
C      1  0.7611370423216  0.5878141874881  0.4902137793534 1.0
C      1  0.3325980852850  0.6091665853905  0.7390669154048 1.0
C      1  0.3101058962888  0.6776178692843  0.5043647313837 1.0
C      1  0.5890033864500  0.6745088069901  0.3410617669455 1.0
C      1  0.6049776901584  0.6792472782304  0.6598830987745 1.0
C      1  0.4457116787001  0.7314772619541  0.3883987188268 1.0
C      1  0.6308198937021  0.7349385998174  0.5133356720953 1.0
C      1  0.4238405183663  0.7263096522831  0.6132284068083 1.0
C      1  0.2547892842275  0.5347124741023  0.6104986366125 1.0
C      1  0.5178821462187  0.5290484928432  0.2452346415264 1.0
C      1  0.7253160277847  0.5311697572719  0.6424607506236 1.0
C      1  0.4959744914704  0.6810495626181  0.3208715914616 1.0
C      1  0.6655943232278  0.6853811644693  0.5902165553830 1.0
C      1  0.3342601786646  0.6856091840247  0.5957640062112 1.0
C      1  0.3840350611158  0.6688359149500  0.4356156327073 1.0
C      1  0.6164959464673  0.6692235410122  0.4394548329524 1.0
C      1  0.4994763804886  0.6647667706412  0.6502280090464 1.0
C      1  0.2566182646151  0.6100886030698  0.4635443032523 1.0
C      1  0.6491423750421  0.6074383221829  0.3135365458241 1.0
C      1  0.6059840693853  0.6095360077061  0.7247719619212 1.0
C      1  0.2963130645338  0.3542415242105  0.3640106828852 1.0
C      1  0.7221247642353  0.3532073852927  0.3938320512897 1.0
C      1  0.4920659891094  0.3635162724694  0.7477273697577 1.0
C      1  0.4972790759910  0.4567780102109  0.4994172749123 1.0
END
