TITL C-5887-279-170 -3.556 3375.00 -611.69577297 0 0 76 (C1) n - 1
REM
REM Run started: at 2020.12.19 00:38:09 in /gpfs/home/chem/mssmkc/CARBON/AIRSS/Generating-Clusters/Str-Search/Higher-Symm/C4-100
REM VASP from code version vasp.5.4.4.18Apr17-6-g9f103f2a35 (build Oct 11 2019 16:45:47) gamma-only
REM
REM
REM
REM
REM ./C.cell (6bd13a13d554368a30d355f37ece5b26)
REM AIRSS Version 0.9.1 bugfix July 2018 build 013d7b7c2542+ Fri, 06 Jul 2018 19:26:36 +0100
REM compiler GCC version 6.3.0
REM options -cpp -iprefix /gpfs/warwick/csc/orac/software/Core/GCCcore/6.3.0/bin/../lib/gcc/x86_64-pc-linux-gnu/6.3.0/ -mtune=generic -march=x86-64 -g -O0
REM seed 232186171 -1602692362 -1255154271 1086929591 -1211319161 1668430937 -1541528509 -306148858 2121422350 442659373 253471718 183280845
REM
REM C.POTCAR (d86ddea03c3ceb6dc662c8ad6801f873)
REM 
CELL 1.54180   15.00000   15.00000   15.00000   90.00000   90.00000   90.00000
LATT -1
SFAC C  
C      1  0.5138381230554  0.7474351866323  0.5818015293076 1.0
C      1  0.4532171704092  0.1760216349257  0.4010490588959 1.0
C      1  0.3026202419884  0.3936072985489  0.5869426653912 1.0
C      1  0.5455757151876  0.7318826577253  0.3789583702488 1.0
C      1  0.7679455793590  0.5759217509544  0.4820618917698 1.0
C      1  0.6766518963458  0.4561821314207  0.6587399501205 1.0
C      1  0.2924150359104  0.6173072757577  0.5883266183625 1.0
C      1  0.3269909847826  0.2307845993332  0.3091830437067 1.0
C      1  0.7338849701368  0.5266849213391  0.6303598495948 1.0
C      1  0.2429092578977  0.4591314299776  0.6309134378616 1.0
C      1  0.4665839189529  0.7615612882115  0.4246233953544 1.0
C      1  0.2877196265737  0.5434854167985  0.6475776753186 1.0
C      1  0.4201824444223  0.4361404616888  0.7207629417847 1.0
C      1  0.4351870537202  0.3798996426930  0.5028520045124 1.0
C      1  0.5526112109560  0.3581737903903  0.6598133964769 1.0
C      1  0.5825788314647  0.5460127493766  0.5071478148986 1.0
C      1  0.3938190554859  0.3635956024115  0.5851931379204 1.0
C      1  0.5679266575575  0.4375051943754  0.2642856779844 1.0
C      1  0.6638821293901  0.4089422942732  0.5756067225172 1.0
C      1  0.3967519555896  0.4481607832283  0.4414595278994 1.0
C      1  0.6047142725477  0.4324566995409  0.7115820793398 1.0
C      1  0.2746687281653  0.5949000489812  0.4895011139358 1.0
C      1  0.4693855391227  0.4915679071408  0.7800557511647 1.0
C      1  0.2554269357187  0.5056386891854  0.4615280920526 1.0
C      1  0.5632850329879  0.4998931555955  0.7683839666000 1.0
C      1  0.3733165613169  0.7331457287607  0.3999723007324 1.0
C      1  0.5292299511349  0.3922652194527  0.4585567505840 1.0
C      1  0.3126746264756  0.7539300517215  0.4670386358748 1.0
C      1  0.6378279852664  0.2878653779658  0.4993218468306 1.0
C      1  0.4406806307201  0.5349833252193  0.5964826599982 1.0
C      1  0.7453761459284  0.4009825598947  0.4239515478403 1.0
C      1  0.2975981466889  0.1429871158825  0.3124143037140 1.0
C      1  0.4336725126160  0.5271489874239  0.4983817917040 1.0
C      1  0.6119747501345  0.3263798808483  0.5870349479061 1.0
C      1  0.2994116162534  0.6691722595851  0.4314122218910 1.0
C      1  0.5972778329646  0.6126813061751  0.5858342685416 1.0
C      1  0.3753021079156  0.1588708889736  0.3595153213851 1.0
C      1  0.2343028011912  0.4348799440521  0.5275255531317 1.0
C      1  0.7299067606274  0.5627876067654  0.3939974438599 1.0
C      1  0.5299383560239  0.6641180272460  0.3108438339815 1.0
C      1  0.4870075866177  0.6356111161944  0.7271124372205 1.0
C      1  0.4907542539082  0.2567427241037  0.3929305263528 1.0
C      1  0.7539948976098  0.4127175084935  0.5219755363798 1.0
C      1  0.2942321782310  0.3878000366366  0.3353405882972 1.0
C      1  0.1565205701773  0.4475572970989  0.5850234382086 1.0
C      1  0.4544310297573  0.7869524109661  0.5177960210099 1.0
C      1  0.4585700696569  0.6880455022348  0.6436662523597 1.0
C      1  0.4538943232702  0.3312734066195  0.3283977223500 1.0
C      1  0.3049734039551  0.4536410049486  0.3944099561179 1.0
C      1  0.6679116732803  0.7141848734024  0.4971270675944 1.0
C      1  0.6035714767955  0.6108995196199  0.2999690255131 1.0
C      1  0.7152556831947  0.4666016713116  0.3636376969057 1.0
C      1  0.4675939484832  0.4225109636575  0.3751717952102 1.0
C      1  0.6943595811037  0.6096315770373  0.6136914970312 1.0
C      1  0.5775153312224  0.5929772070471  0.7458950265121 1.0
C      1  0.5752782151704  0.3030716578249  0.4215987066423 1.0
C      1  0.6753809307562  0.6341082232292  0.3579008056428 1.0
C      1  0.4210507050313  0.5717566761253  0.7577536872821 1.0
C      1  0.3778603384623  0.5214548239948  0.6793513660272 1.0
C      1  0.5053913221015  0.5682797614159  0.4503847056451 1.0
C      1  0.3608348960242  0.6921074064615  0.6055288818070 1.0
C      1  0.5930399480406  0.7089204436193  0.5580992951596 1.0
C      1  0.6105302270978  0.3343847516694  0.3292169947178 1.0
C      1  0.5038784400824  0.4875444113429  0.3124138914193 1.0
C      1  0.6398793519020  0.7126626063796  0.4071054117531 1.0
C      1  0.7319439276555  0.6512497741991  0.5310922582334 1.0
C      1  0.6538019457261  0.4227753270844  0.3064699561845 1.0
C      1  0.5953193329893  0.4555138519281  0.5100730493547 1.0
C      1  0.7808214167746  0.5018104280327  0.5479546793316 1.0
C      1  0.3540518279944  0.3189249769112  0.3098078147979 1.0
C      1  0.7237366707251  0.3258172930449  0.4729745198661 1.0
C      1  0.5375347285567  0.3407233277996  0.2691147530895 1.0
C      1  0.5074187203067  0.5973393933287  0.6297627718143 1.0
C      1  0.4550220731922  0.3696032078337  0.6632198974036 1.0
C      1  0.3629063859410  0.7657541958369  0.5475859665681 1.0
C      1  0.5144691352203  0.5739596520937  0.3494527592022 1.0
END
