TITL C-5887-279-156 -2.995 3375.00 -509.67267824 0 0 63 (C1) n - 1
REM
REM Run started: at 2020.12.18 22:25:38 in /gpfs/home/chem/mssmkc/CARBON/AIRSS/Generating-Clusters/Str-Search/Higher-Symm/C4-100
REM VASP from code version vasp.5.4.4.18Apr17-6-g9f103f2a35 (build Oct 11 2019 16:45:47) gamma-only
REM
REM
REM
REM
REM ./C.cell (6bd13a13d554368a30d355f37ece5b26)
REM AIRSS Version 0.9.1 bugfix July 2018 build 013d7b7c2542+ Fri, 06 Jul 2018 19:26:36 +0100
REM compiler GCC version 6.3.0
REM options -cpp -iprefix /gpfs/warwick/csc/orac/software/Core/GCCcore/6.3.0/bin/../lib/gcc/x86_64-pc-linux-gnu/6.3.0/ -mtune=generic -march=x86-64 -g -O0
REM seed 169775027 -1733530411 -841580317 -1096592008 -1971409255 318812953 1094247113 -1024992820 -1268981469 -1010780046 -110161935 1146580807
REM
REM C.POTCAR (d86ddea03c3ceb6dc662c8ad6801f873)
REM 
CELL 1.54180   15.00000   15.00000   15.00000   90.00000   90.00000   90.00000
LATT -1
SFAC C  
C      1  0.4183574250506  0.4703662821209  0.3525241456250 1.0
C      1  0.5460457267937  0.6738589657306  0.6417950502762 1.0
C      1  0.7207876745946  0.3805026697040  0.2955924547917 1.0
C      1  0.2821189800254  0.5505966817909  0.5381366474621 1.0
C      1  0.4883044433109  0.3288772080651  0.3703575692951 1.0
C      1  0.6498345039707  0.5598536616478  0.6725333194269 1.0
C      1  0.4009760929990  0.5610888108701  0.3512886200177 1.0
C      1  0.6375671064649  0.6450580349406  0.6294279753846 1.0
C      1  0.6644163955576  0.3205016998741  0.6172353904294 1.0
C      1  0.7117014359086  0.3551010401670  0.3885918913201 1.0
C      1  0.7004433980739  0.4005907251580  0.6267088122841 1.0
C      1  0.3503806853006  0.3235046559581  0.6155714463395 1.0
C      1  0.3439914798634  0.2887328710298  0.5222293238321 1.0
C      1  0.4817773411964  0.6898970284969  0.5669771809003 1.0
C      1  0.5231297572372  0.4593325013358  0.7218214290079 1.0
C      1  0.2879159241682  0.3959884854451  0.5930139167187 1.0
C      1  0.6533107176079  0.3185448627830  0.4448227547599 1.0
C      1  0.5066811686303  0.4289282234327  0.3856646657937 1.0
C      1  0.5159705041710  0.3182264827650  0.6402480259767 1.0
C      1  0.7056830586959  0.6113894242162  0.3979961638946 1.0
C      1  0.2376325354890  0.5643312139987  0.3774037405767 1.0
C      1  0.5422718932115  0.6480960621821  0.4106260033626 1.0
C      1  0.3038609996244  0.4880951775511  0.6099527685770 1.0
C      1  0.6622508019798  0.4570816667316  0.5421266959344 1.0
C      1  0.5006178560386  0.5212490224493  0.5274012431886 1.0
C      1  0.6851021350798  0.6834207560102  0.5566650940872 1.0
C      1  0.3259013013608  0.6376924888777  0.5354456820621 1.0
C      1  0.5826740262398  0.2646150845565  0.4877694608656 1.0
C      1  0.6575241566410  0.4497794396286  0.2899468677414 1.0
C      1  0.4901422426339  0.7681189232172  0.4980553533242 1.0
C      1  0.4254263981122  0.3421480583340  0.6647874397008 1.0
C      1  0.5533160777796  0.4045840009661  0.6510895017108 1.0
C      1  0.4407872563032  0.6277989843090  0.4123382942984 1.0
C      1  0.7199744229276  0.6688498707300  0.4704459535231 1.0
C      1  0.7081228364896  0.5189245652936  0.2525323031929 1.0
C      1  0.5036937172951  0.6132182899049  0.7000991380704 1.0
C      1  0.4023771421240  0.2650909351003  0.4551252499172 1.0
C      1  0.2790459459281  0.3618525879171  0.5045085681737 1.0
C      1  0.4120346477966  0.5951720913130  0.6736014913729 1.0
C      1  0.4990608963294  0.4434141293847  0.4860294768317 1.0
C      1  0.5642839692490  0.4536806207555  0.5616587407675 1.0
C      1  0.6517870534468  0.7355350422191  0.4850049951841 1.0
C      1  0.3479129737506  0.4036776202264  0.3649557142262 1.0
C      1  0.4062383043503  0.7645104572198  0.4665462021910 1.0
C      1  0.5026604989461  0.2634573584005  0.4405851498704 1.0
C      1  0.2784883254024  0.4217045404929  0.4321200595261 1.0
C      1  0.6648431496619  0.4224677293198  0.4474955454140 1.0
C      1  0.2507792650858  0.5117838303841  0.4546493065379 1.0
C      1  0.6904106260989  0.5916514754270  0.3125887960382 1.0
C      1  0.2263185482130  0.6106883631840  0.2964158334600 1.0
C      1  0.5695861756958  0.7455789608375  0.4437068697351 1.0
C      1  0.7068566976322  0.4933667846784  0.6251910611596 1.0
C      1  0.3619152729771  0.6876343776158  0.4533982033752 1.0
C      1  0.3723545092727  0.5082182651916  0.6760774173757 1.0
C      1  0.3906508518938  0.6547870866052  0.6015942927654 1.0
C      1  0.4312298021672  0.4358463407992  0.7061949475114 1.0
C      1  0.5658152895753  0.5433229006891  0.7216632658102 1.0
C      1  0.6003919753274  0.4731051028050  0.3748944202897 1.0
C      1  0.5860581369355  0.2784422894871  0.5843355137167 1.0
C      1  0.4954517598592  0.6107037643628  0.4965666522237 1.0
C      1  0.3126799229134  0.5865422554995  0.3252751199172 1.0
C      1  0.6086156516877  0.5778920158590  0.3765703318384 1.0
C      1  0.3934600308528  0.3209292539530  0.3740243510187 1.0
END
