TITL C-5887-279-79 -3.574 3375.00 -580.01120314 0 0 72 (C1) n - 1
REM
REM Run started: at 2020.12.18 07:55:42 in /gpfs/home/chem/mssmkc/CARBON/AIRSS/Generating-Clusters/Str-Search/Higher-Symm/C4-100
REM VASP from code version vasp.5.4.4.18Apr17-6-g9f103f2a35 (build Oct 11 2019 16:45:47) gamma-only
REM
REM
REM
REM
REM ./C.cell (6bd13a13d554368a30d355f37ece5b26)
REM AIRSS Version 0.9.1 bugfix July 2018 build 013d7b7c2542+ Fri, 06 Jul 2018 19:26:36 +0100
REM compiler GCC version 6.3.0
REM options -cpp -iprefix /gpfs/warwick/csc/orac/software/Core/GCCcore/6.3.0/bin/../lib/gcc/x86_64-pc-linux-gnu/6.3.0/ -mtune=generic -march=x86-64 -g -O0
REM seed 1909070309 -1784105396 446182513 22230703 -426594952 -719938405 1067227919 163298861 -1336222615 1955712980 67401548 1597724033
REM
REM C.POTCAR (d86ddea03c3ceb6dc662c8ad6801f873)
REM 
CELL 1.54180   15.00000   15.00000   15.00000   90.00000   90.00000   90.00000
LATT -1
SFAC C  
C      1  0.2818519034870  0.3386967714058  0.5012811922568 1.0
C      1  0.7789154060636  0.2903870158625  0.3909405647486 1.0
C      1  0.7857176021794  0.5603716196819  0.4840839940229 1.0
C      1  0.2074556289808  0.4884559568411  0.4622828132751 1.0
C      1  0.6391590351826  0.6180512248677  0.5520651067695 1.0
C      1  0.3073971112707  0.6185638960242  0.4636632461496 1.0
C      1  0.5747156967825  0.7186504872445  0.4198010344809 1.0
C      1  0.4257022238385  0.7365686069643  0.4096326710935 1.0
C      1  0.6226873045603  0.5135558261111  0.3392523565806 1.0
C      1  0.3138796036997  0.5981548595454  0.2787398819019 1.0
C      1  0.6026888281142  0.5942503615297  0.2970060956851 1.0
C      1  0.3514947029792  0.6720001183719  0.2782386961488 1.0
C      1  0.2685276152862  0.4827157792979  0.6842181801179 1.0
C      1  0.7006281337721  0.4207134413054  0.6399015149185 1.0
C      1  0.4237011720204  0.7191313349003  0.3110975521518 1.0
C      1  0.5837117151835  0.6843930879396  0.3348725205693 1.0
C      1  0.6978807604293  0.5812189188453  0.4791952280596 1.0
C      1  0.2686275397727  0.5440834239005  0.4175538195366 1.0
C      1  0.4255826532709  0.5255745529378  0.6560457400323 1.0
C      1  0.5838917363200  0.5254896575004  0.5794221571374 1.0
C      1  0.6505987399529  0.4931489427634  0.6540053775078 1.0
C      1  0.3290961795704  0.5512285217311  0.6682502588038 1.0
C      1  0.7210037976068  0.3181273032865  0.3280109752501 1.0
C      1  0.3386385522523  0.3186334472450  0.4319183948292 1.0
C      1  0.2084702120242  0.3984083025967  0.4873798639335 1.0
C      1  0.8540655806587  0.5149127882869  0.5061007097992 1.0
C      1  0.1928075720717  0.4503453342760  0.6370354534662 1.0
C      1  0.7753712672137  0.3900954343985  0.6050194962054 1.0
C      1  0.5159477128166  0.4432768008885  0.2369764357575 1.0
C      1  0.4250477479535  0.4598721949683  0.2404147218683 1.0
C      1  0.2766607286025  0.6471569031497  0.5457951688268 1.0
C      1  0.6782887799025  0.6402311505655  0.6407185993757 1.0
C      1  0.6418820046030  0.5170019916698  0.4322515378159 1.0
C      1  0.3045686318299  0.5199463314935  0.3273092714343 1.0
C      1  0.8141555265943  0.2928336822577  0.4656807204810 1.0
C      1  0.3233073517755  0.3472768302598  0.5916034310038 1.0
C      1  0.5682279225451  0.6752129622083  0.5089775489146 1.0
C      1  0.4015808121926  0.6572926122414  0.4602619075307 1.0
C      1  0.3692111222150  0.3594156792907  0.3500254552159 1.0
C      1  0.6609035808650  0.3601162875289  0.2901380217196 1.0
C      1  0.1694706965140  0.4591769952548  0.5466611510310 1.0
C      1  0.8453933051683  0.4339811439605  0.5488694173385 1.0
C      1  0.5856256945072  0.4221306941159  0.3062368321078 1.0
C      1  0.3528983246586  0.4407525812990  0.2997182740600 1.0
C      1  0.6814713286102  0.5764028321145  0.6949264047731 1.0
C      1  0.2934339781071  0.6230896920454  0.6239576943924 1.0
C      1  0.8309714804129  0.3431770589541  0.5423896300953 1.0
C      1  0.2678487053274  0.3929398692108  0.6519130284117 1.0
C      1  0.4292334759141  0.2809090126493  0.4544739875884 1.0
C      1  0.5418917764960  0.3914229784780  0.4749014031307 1.0
C      1  0.4981579425224  0.7024183881573  0.7028632155796 1.0
C      1  0.5024740428430  0.7770712717038  0.4524765189134 1.0
C      1  0.5076919487994  0.6917665882744  0.2748965854213 1.0
C      1  0.4579655285362  0.3243892832034  0.3668390853524 1.0
C      1  0.4849770501871  0.5570251526040  0.5808443968658 1.0
C      1  0.4650714055928  0.1061913959906  0.4760732736632 1.0
C      1  0.4966919109666  0.6312796688369  0.7540550705856 1.0
C      1  0.5492279902556  0.3487813351402  0.8900095318877 1.0
C      1  0.4712154971651  0.3438405807472  0.5236055732576 1.0
C      1  0.5353540916920  0.3737915531379  0.3803507528597 1.0
C      1  0.4774623053567  0.5443078354818  0.7436679661578 1.0
C      1  0.5306233406142  0.6076569173289  0.2306309203034 1.0
C      1  0.4877250467288  0.4454131456245  0.7557464176735 1.0
C      1  0.4451270737797  0.4275530417361  0.6725411676130 1.0
C      1  0.4736727187929  0.6211851091393  0.5142898005749 1.0
C      1  0.5214057228580  0.7574666147919  0.5479920536031 1.0
C      1  0.4861607373984  0.5282740710445  0.2113355455032 1.0
C      1  0.4426643157210  0.1866451770740  0.4688181420214 1.0
C      1  0.5248529622635  0.3950642253484  0.8236748049813 1.0
C      1  0.5903851446339  0.4689297543326  0.4967332780979 1.0
C      1  0.5020456105961  0.7570515717206  0.6363687389139 1.0
C      1  0.4208559505410  0.3624523183159  0.6009306218650 1.0
END
