TITL C-5887-279-127 -2.377 3375.00 -407.86171080 0 0 49 (C1) n - 1
REM
REM Run started: at 2020.12.18 17:02:38 in /gpfs/home/chem/mssmkc/CARBON/AIRSS/Generating-Clusters/Str-Search/Higher-Symm/C4-100
REM VASP from code version vasp.5.4.4.18Apr17-6-g9f103f2a35 (build Oct 11 2019 16:45:47) gamma-only
REM
REM
REM
REM
REM ./C.cell (6bd13a13d554368a30d355f37ece5b26)
REM AIRSS Version 0.9.1 bugfix July 2018 build 013d7b7c2542+ Fri, 06 Jul 2018 19:26:36 +0100
REM compiler GCC version 6.3.0
REM options -cpp -iprefix /gpfs/warwick/csc/orac/software/Core/GCCcore/6.3.0/bin/../lib/gcc/x86_64-pc-linux-gnu/6.3.0/ -mtune=generic -march=x86-64 -g -O0
REM seed -1507856329 -975488877 -1681375844 1706540652 -1452896963 -639030841 -1249003355 1913664815 1511112445 592022288 147876177 581584190
REM
REM C.POTCAR (d86ddea03c3ceb6dc662c8ad6801f873)
REM 
CELL 1.54180   15.00000   15.00000   15.00000   90.00000   90.00000   90.00000
LATT -1
SFAC C  
C      1  0.7043121943814  0.5071472149911  0.5874178168562 1.0
C      1  0.6351263075126  0.3432623453972  0.5942047807948 1.0
C      1  0.4600722755855  0.2984454941109  0.5922698102344 1.0
C      1  0.3175642180901  0.4030275749738  0.5929943403594 1.0
C      1  0.3114512022654  0.5843496138245  0.5926499126191 1.0
C      1  0.4462458985870  0.6987148006249  0.5921796254210 1.0
C      1  0.6239504288920  0.6662182208923  0.5949630045534 1.0
C      1  0.3106938826516  0.6533789817740  0.5231043574983 1.0
C      1  0.5036916852408  0.7586350305083  0.5429169549118 1.0
C      1  0.6945629472260  0.6540326120725  0.5291284470737 1.0
C      1  0.7427107254920  0.4406295458299  0.5286480207106 1.0
C      1  0.6084739509652  0.2645245993583  0.5442504303876 1.0
C      1  0.3933029802143  0.2826523673465  0.5223321651613 1.0
C      1  0.2471940387644  0.4460378557342  0.5426260361261 1.0
C      1  0.5014187396609  0.3031207259435  0.3959056470468 1.0
C      1  0.3099647158526  0.4435326444671  0.3940007421952 1.0
C      1  0.3064202784397  0.5430173712741  0.3938011881925 1.0
C      1  0.4883646204761  0.6958330220895  0.3964401150482 1.0
C      1  0.5856700878315  0.6750474387831  0.3964357455551 1.0
C      1  0.7015789514765  0.5068954598355  0.3943611412210 1.0
C      1  0.5972947321038  0.3298153645719  0.3954377908409 1.0
C      1  0.7385374036396  0.5765392747523  0.5295226454893 1.0
C      1  0.7041019502781  0.3602312541506  0.5278567224138 1.0
C      1  0.5214805415827  0.2426853636677  0.5428870856374 1.0
C      1  0.3213182357360  0.3338507029952  0.5236129689962 1.0
C      1  0.2441319664923  0.5364804264276  0.5424837922151 1.0
C      1  0.3787287075947  0.7096435397307  0.5219641698656 1.0
C      1  0.5919654643786  0.7426842531452  0.5445166881659 1.0
C      1  0.3971579617718  0.4467153369692  0.6255849737235 1.0
C      1  0.3937173453191  0.5464882340205  0.6254718040325 1.0
C      1  0.4702403066338  0.6117336050806  0.6254292515581 1.0
C      1  0.5685239547042  0.5929310269142  0.6261585303014 1.0
C      1  0.6141307052520  0.5041049396059  0.6225299663734 1.0
C      1  0.5748690818748  0.4123611120225  0.6258815846811 1.0
C      1  0.4781585624217  0.3868767710231  0.6254564042265 1.0
C      1  0.4771529643261  0.3921950202297  0.3581656277480 1.0
C      1  0.4024187825659  0.4463019903201  0.3579965073321 1.0
C      1  0.3987802700348  0.5468099690114  0.3579212387384 1.0
C      1  0.4697996778568  0.6055237467210  0.3586283050572 1.0
C      1  0.5675727634134  0.5869356608842  0.3564178479134 1.0
C      1  0.6164543337473  0.5034475902766  0.3567652236029 1.0
C      1  0.5735978859498  0.4167726966321  0.3557132220647 1.0
C      1  0.2719342853427  0.3939791034648  0.4635961519318 1.0
C      1  0.2652597514762  0.5899892397545  0.4633466021365 1.0
C      1  0.4476246854276  0.7464608017352  0.4622897224347 1.0
C      1  0.6409855617478  0.7067691958308  0.4668520179883 1.0
C      1  0.7621783546431  0.5096531058960  0.4583417744210 1.0
C      1  0.6547411965445  0.3028706581504  0.4660677700934 1.0
C      1  0.4643726375348  0.2506472961848  0.4624733280508 1.0
END
