TITL C-5887-279-256 -2.443 3375.00 -401.28261138 0 0 51 (C1) n - 1
REM
REM Run started: at 2020.12.19 17:19:28 in /gpfs/home/chem/mssmkc/CARBON/AIRSS/Generating-Clusters/Str-Search/Higher-Symm/C4-100
REM VASP from code version vasp.5.4.4.18Apr17-6-g9f103f2a35 (build Oct 11 2019 16:45:47) gamma-only
REM
REM
REM
REM
REM ./C.cell (6bd13a13d554368a30d355f37ece5b26)
REM AIRSS Version 0.9.1 bugfix July 2018 build 013d7b7c2542+ Fri, 06 Jul 2018 19:26:36 +0100
REM compiler GCC version 6.3.0
REM options -cpp -iprefix /gpfs/warwick/csc/orac/software/Core/GCCcore/6.3.0/bin/../lib/gcc/x86_64-pc-linux-gnu/6.3.0/ -mtune=generic -march=x86-64 -g -O0
REM seed -1555946819 -1004085755 -111719574 -1479510651 1941064325 -2054142098 -1010932017 -1308784858 -2103821917 -76323072 -28180597 1440322307
REM
REM C.POTCAR (d86ddea03c3ceb6dc662c8ad6801f873)
REM 
CELL 1.54180   15.00000   15.00000   15.00000   90.00000   90.00000   90.00000
LATT -1
SFAC C  
C      1  0.3868174349442  0.4002569997580  0.5364780002369 1.0
C      1  0.6302812576071  0.5409846692522  0.6231742519958 1.0
C      1  0.3872330502660  0.5980798707118  0.4745106205131 1.0
C      1  0.6298150892616  0.4571773672972  0.3886483673850 1.0
C      1  0.4553355180479  0.5720063391095  0.3440351365224 1.0
C      1  0.5366022336629  0.3334308346811  0.4248940755582 1.0
C      1  0.4548903909928  0.4269764365079  0.6673444458264 1.0
C      1  0.5377288230220  0.6649561125597  0.5865469652837 1.0
C      1  0.6282122882483  0.4571499835626  0.6654021958667 1.0
C      1  0.3632282592012  0.6537101617348  0.5475250439777 1.0
C      1  0.6276031820422  0.5407039109917  0.3461245725581 1.0
C      1  0.3662711495317  0.3446890506729  0.4640809567741 1.0
C      1  0.4534509325847  0.4549254085950  0.5702225128654 1.0
C      1  0.5787142661915  0.5760607335944  0.5463797001487 1.0
C      1  0.4537341843056  0.5434344183716  0.4414702467281 1.0
C      1  0.5779787033905  0.4224204802619  0.4652688972524 1.0
C      1  0.5109898900599  0.4241634205584  0.2834294928734 1.0
C      1  0.4764340887360  0.2767751936923  0.5790865536665 1.0
C      1  0.5114734008850  0.5745320169323  0.7269589567857 1.0
C      1  0.4770335652585  0.7217285972057  0.4332281197605 1.0
C      1  0.3922995896088  0.6921924910288  0.4670259006685 1.0
C      1  0.5987884009037  0.4572293563812  0.3027937691552 1.0
C      1  0.3916799645395  0.3057066997343  0.5454722802166 1.0
C      1  0.5999479973374  0.5412942571917  0.7090640946812 1.0
C      1  0.6437313337956  0.3713066657022  0.5303376618415 1.0
C      1  0.3285827278264  0.5484659582993  0.6552187708180 1.0
C      1  0.6446310656110  0.6272315545192  0.4811592025449 1.0
C      1  0.3283612438697  0.4526545100005  0.3571858110235 1.0
C      1  0.7350618906403  0.5844694230389  0.4855929884062 1.0
C      1  0.2681958812595  0.4772013775284  0.4244028267352 1.0
C      1  0.7339751317146  0.4140563254954  0.5237448041364 1.0
C      1  0.2670939874068  0.5305334740541  0.5866161039344 1.0
C      1  0.6121745937380  0.2863167782692  0.4768289312180 1.0
C      1  0.3752541736008  0.4790318334672  0.7073163695843 1.0
C      1  0.6135122100534  0.7121029806761  0.5345068563360 1.0
C      1  0.3759736966934  0.5202821504193  0.3039200224264 1.0
C      1  0.3829712632935  0.3708923349684  0.3726819871153 1.0
C      1  0.6035172016102  0.3765358078047  0.6266030396787 1.0
C      1  0.3839979393501  0.6284674468286  0.6387431919171 1.0
C      1  0.6034896738120  0.6220786049003  0.3849611152628 1.0
C      1  0.4758492467661  0.3594943007383  0.3458163836789 1.0
C      1  0.5123201424012  0.3435764136469  0.6403503129545 1.0
C      1  0.4771226255985  0.6396450521771  0.6652005808150 1.0
C      1  0.5131163146763  0.6557828510710  0.3711293964479 1.0
C      1  0.5290070281584  0.2598314596989  0.4998845043732 1.0
C      1  0.4574416487511  0.4977805275853  0.7403368659757 1.0
C      1  0.5301495869564  0.7382824846250  0.5119792742060 1.0
C      1  0.4577444485943  0.5016613136846  0.2702820584139 1.0
C      1  0.2520563830038  0.5002970987811  0.5063428425949 1.0
C      1  0.7398991723216  0.4993170272382  0.5053824159412 1.0
C      1  0.5171057278679  0.4992473343948  0.5059744243198 1.0
END
