TITL C-5887-279-91 -4.484 3375.00 -774.93026108 0 0 95 (C1) n - 1
REM
REM Run started: at 2020.12.18 09:52:26 in /gpfs/home/chem/mssmkc/CARBON/AIRSS/Generating-Clusters/Str-Search/Higher-Symm/C4-100
REM VASP from code version vasp.5.4.4.18Apr17-6-g9f103f2a35 (build Oct 11 2019 16:45:47) gamma-only
REM
REM
REM
REM
REM ./C.cell (6bd13a13d554368a30d355f37ece5b26)
REM AIRSS Version 0.9.1 bugfix July 2018 build 013d7b7c2542+ Fri, 06 Jul 2018 19:26:36 +0100
REM compiler GCC version 6.3.0
REM options -cpp -iprefix /gpfs/warwick/csc/orac/software/Core/GCCcore/6.3.0/bin/../lib/gcc/x86_64-pc-linux-gnu/6.3.0/ -mtune=generic -march=x86-64 -g -O0
REM seed -605250805 1342452057 -251008172 624142992 1428083624 -2135989213 -73978034 1308768156 -1091631111 -109397235 -1659706332 1041096506
REM
REM C.POTCAR (d86ddea03c3ceb6dc662c8ad6801f873)
REM 
CELL 1.54180   15.00000   15.00000   15.00000   90.00000   90.00000   90.00000
LATT -1
SFAC C  
C      1  0.3436027281215  0.3154809836330  0.5409526717545 1.0
C      1  0.3540200697671  0.5947918104501  0.3240007443955 1.0
C      1  0.3590590541499  0.6028002270840  0.6741838486410 1.0
C      1  0.7659195773573  0.5213530904326  0.3380681651491 1.0
C      1  0.7607952243993  0.6315544276062  0.6009905287797 1.0
C      1  0.7682733402559  0.3499501287446  0.5596944219142 1.0
C      1  0.5421531490638  0.6531810902622  0.2889387802922 1.0
C      1  0.5361101917500  0.5979004209983  0.7335004489297 1.0
C      1  0.5488827803357  0.2390158344216  0.4663100764773 1.0
C      1  0.6439867566263  0.2634485808176  0.4751496449453 1.0
C      1  0.6376065868307  0.6340021253469  0.3024715994188 1.0
C      1  0.6325716743324  0.6015195976276  0.7162594183784 1.0
C      1  0.4921134660816  0.4571894413647  0.4167633956325 1.0
C      1  0.5013097573065  0.5847296707281  0.5077719492382 1.0
C      1  0.4972419205583  0.4463024993643  0.5751810614089 1.0
C      1  0.5429989961234  0.5319705594389  0.5777516489403 1.0
C      1  0.5416896697088  0.4187072934037  0.4917707480563 1.0
C      1  0.5458641011980  0.5362474453731  0.4349218687218 1.0
C      1  0.3153208847864  0.7728082080509  0.4568668552276 1.0
C      1  0.3222423933442  0.3872879611764  0.7301879912656 1.0
C      1  0.3327032145848  0.3367866635048  0.3057041244408 1.0
C      1  0.6190972229219  0.3266182205624  0.6357450936226 1.0
C      1  0.6160405131185  0.4617354693798  0.2812481355409 1.0
C      1  0.6078236411504  0.7040594512910  0.5767564073942 1.0
C      1  0.5097591087095  0.2487404193467  0.3771750409771 1.0
C      1  0.5008256811408  0.7281597138382  0.3436133708978 1.0
C      1  0.4997753989390  0.5109860783937  0.7735785727829 1.0
C      1  0.2759746761740  0.6450932416928  0.3610770288848 1.0
C      1  0.2752305974550  0.5572515727316  0.6762277295811 1.0
C      1  0.2723672567456  0.3327944772601  0.4699677078088 1.0
C      1  0.3840665866297  0.5134958020917  0.6655826585793 1.0
C      1  0.3685309661900  0.3615450469808  0.4551018776977 1.0
C      1  0.3940348725582  0.6027936693397  0.4026441770929 1.0
C      1  0.4020917219534  0.4341008239070  0.3996205997832 1.0
C      1  0.4180793814207  0.6098578689171  0.4856952636242 1.0
C      1  0.4170339844124  0.4372444552340  0.6175014777521 1.0
C      1  0.2461523865561  0.6380224901601  0.5289102981683 1.0
C      1  0.2043715141979  0.4879988592795  0.5420588646501 1.0
C      1  0.2100526170464  0.5101918899121  0.4478010474788 1.0
C      1  0.6428908958420  0.5333576020618  0.5893466302715 1.0
C      1  0.6436306286414  0.4056737781658  0.4855672318518 1.0
C      1  0.6434463092021  0.5552119647333  0.4243067545655 1.0
C      1  0.6721719029885  0.3295621697786  0.5507283019231 1.0
C      1  0.6693925767933  0.5362112538835  0.3237100634374 1.0
C      1  0.6642562702617  0.6325337869823  0.6216701328740 1.0
C      1  0.4823927381955  0.3314213780787  0.2397865215255 1.0
C      1  0.4762590472666  0.8035557826948  0.4857404977471 1.0
C      1  0.4841132331060  0.3482115165492  0.7662931403907 1.0
C      1  0.5444792309405  0.7606657530814  0.4318275144460 1.0
C      1  0.5480325189693  0.4192390115028  0.7587537948540 1.0
C      1  0.5505598095044  0.3078801976061  0.3030815529247 1.0
C      1  0.3030140683471  0.7225771771962  0.5380124391917 1.0
C      1  0.3555887948933  0.3548328769743  0.6389791916143 1.0
C      1  0.3526403109523  0.4280530908753  0.3130309473675 1.0
C      1  0.8140940672997  0.5092279935201  0.4034360375977 1.0
C      1  0.8105032792551  0.5847550452555  0.5553873035845 1.0
C      1  0.8147343726751  0.4156399413019  0.5438093968404 1.0
C      1  0.6677028430524  0.6589193115722  0.4243926818979 1.0
C      1  0.6718164127580  0.4818200561794  0.6782975372073 1.0
C      1  0.6723015814479  0.3541032230867  0.3977353681395 1.0
C      1  0.3994259076151  0.6836236334694  0.6762131541333 1.0
C      1  0.4081089696279  0.2408132117085  0.5681808229992 1.0
C      1  0.4043213323787  0.5630097305474  0.2472012839106 1.0
C      1  0.4848013625804  0.2768080673509  0.7041882695888 1.0
C      1  0.4750301423677  0.4230420386497  0.2131172494388 1.0
C      1  0.4617949312770  0.7783036582124  0.5758780687321 1.0
C      1  0.5418779682442  0.4893732366607  0.2304951403727 1.0
C      1  0.5320416100315  0.7324251350598  0.6240561958810 1.0
C      1  0.5490839613731  0.2640683308629  0.6356731565876 1.0
C      1  0.4920314536105  0.6747311038024  0.6928501565276 1.0
C      1  0.5033248102823  0.2342788515821  0.5490713349272 1.0
C      1  0.4986531216651  0.5804029703625  0.2454446803120 1.0
C      1  0.4027992323305  0.2685366093534  0.6570333396264 1.0
C      1  0.3935087223855  0.4703249474445  0.2372160907885 1.0
C      1  0.3756076689323  0.7424709236708  0.6026808832910 1.0
C      1  0.6840301276256  0.5337224460243  0.7567777366488 1.0
C      1  0.7009148281065  0.2621171384691  0.3984165808413 1.0
C      1  0.6892234022275  0.7024576500358  0.3424023092708 1.0
C      1  0.4027106098658  0.2848222362628  0.2684774369803 1.0
C      1  0.4000321378904  0.8121353223557  0.4340378155063 1.0
C      1  0.3987549634489  0.3870933999798  0.7871226227652 1.0
C      1  0.4070354766298  0.4846586005266  0.7972046616015 1.0
C      1  0.4170400143108  0.2386269353721  0.3535511775892 1.0
C      1  0.4095774910763  0.7627362821790  0.3505065644440 1.0
C      1  0.3159022363084  0.4865360342918  0.7356299447598 1.0
C      1  0.3308148530867  0.2919303228225  0.3933161751317 1.0
C      1  0.3108669203036  0.7314567928293  0.3692940346401 1.0
C      1  0.6197350960855  0.3725583882776  0.3169900054997 1.0
C      1  0.6129303072434  0.7166149198033  0.4810893502040 1.0
C      1  0.6206007657417  0.4009529365877  0.6973536967866 1.0
C      1  0.2253456548464  0.5641671189210  0.5935716077427 1.0
C      1  0.2204596741021  0.4211647285731  0.4781155779411 1.0
C      1  0.2297334947358  0.6034204387100  0.4376676924812 1.0
C      1  0.7966711915858  0.5030426674922  0.5008240135428 1.0
C      1  0.6856661036834  0.4995527705209  0.5002667839295 1.0
END
