TITL C-5887-279-109 -0.204 3375.00 -30.98392333 0 0 5 (C4v) n - 1
REM
REM Run started: at 2020.12.18 13:57:56 in /gpfs/home/chem/mssmkc/CARBON/AIRSS/Generating-Clusters/Str-Search/Higher-Symm/C4-100
REM VASP from code version vasp.5.4.4.18Apr17-6-g9f103f2a35 (build Oct 11 2019 16:45:47) gamma-only
REM
REM
REM
REM
REM ./C.cell (6bd13a13d554368a30d355f37ece5b26)
REM AIRSS Version 0.9.1 bugfix July 2018 build 013d7b7c2542+ Fri, 06 Jul 2018 19:26:36 +0100
REM compiler GCC version 6.3.0
REM options -cpp -iprefix /gpfs/warwick/csc/orac/software/Core/GCCcore/6.3.0/bin/../lib/gcc/x86_64-pc-linux-gnu/6.3.0/ -mtune=generic -march=x86-64 -g -O0
REM seed 1983303928 191476235 1703125664 -1628375225 -343787616 438363671 30010228 354695382 -1582689518 1551130051 -1220882940 78385945
REM
REM C.POTCAR (d86ddea03c3ceb6dc662c8ad6801f873)
REM 
CELL 1.54180   15.00000   15.00000   15.00000   90.00000   90.00000   90.00000
LATT -1
SFAC C  
C      1  0.4650761716760  0.5786497288486  0.4969098606673 1.0
C      1  0.4650830233065  0.4408087953197  0.4969331765135 1.0
C      1  0.4650815069535  0.5098008079952  0.5657210417555 1.0
C      1  0.4650801098795  0.5097816812418  0.4279619479662 1.0
C      1  0.5528674881845  0.5097943865946  0.4969273730975 1.0
END
