TITL C-58242-7500-5 -6.601 3375.00 -1204.94429038 0 0 147 (C1) n - 1
REM
REM Run started: at 2020.12.23 08:18:59 in /rds/project/t2_vol4/rds-t2-cs072/BORA/CARBON/AIRSS/Generating-Clusters/Str-Search/Higher-Symm/C100-200
REM VASP from code version vasp.5.4.4.18Apr17-6-g9f103f2a35 (build Oct 11 2019 16:45:47) gamma-only
REM
REM
REM
REM
REM ./C.cell (533062f00bc710175b3da973d35f2034)
REM AIRSS Version 0.9.1 bugfix July 2018 build 013d7b7c2542+ Fri, 06 Jul 2018 19:26:36 +0100
REM compiler GCC version 4.8.5 20150623 (Red Hat 4.8.5-39)
REM options -cpp -mtune=generic -march=x86-64 -g -O0
REM seed 441470101 1556090816 -1725582096 1903612374 -1013433795 1519059474 855951868 2073784073 1960129053 1755234416 181208982 -219117543
REM
REM C.POTCAR (d86ddea03c3ceb6dc662c8ad6801f873)
REM 
CELL 1.54180   15.00000   15.00000   15.00000   90.00000   90.00000   90.00000
LATT -1
SFAC C  
C      1  0.3410105133183  0.2501610788862  0.3875014322708 1.0
C      1  0.3110036174513  0.2292279715221  0.5754921937492 1.0
C      1  0.4404954507810  0.2185360736005  0.6997384932662 1.0
C      1  0.6245199630001  0.2230676838304  0.6661694969205 1.0
C      1  0.7242093546139  0.2035879240580  0.5043932667458 1.0
C      1  0.6682443467301  0.1902433026606  0.3356360091449 1.0
C      1  0.4983188879587  0.2228682412735  0.2802480671842 1.0
C      1  0.6657971456245  0.2813352790591  0.7220667122929 1.0
C      1  0.7915836640274  0.2688503725854  0.5006547593071 1.0
C      1  0.7163930622752  0.2530064921629  0.2854893139544 1.0
C      1  0.4924889587556  0.2814220744228  0.2100897505921 1.0
C      1  0.2753382760366  0.3046415441018  0.3538954656361 1.0
C      1  0.2455793909277  0.2878510679355  0.6047118002931 1.0
C      1  0.4253296106627  0.2838129715432  0.7650842042978 1.0
C      1  0.7159154631293  0.4281577375739  0.7406699185166 1.0
C      1  0.8296646902259  0.4301444756996  0.4840098428892 1.0
C      1  0.7185514747880  0.4138782297942  0.2424138494706 1.0
C      1  0.4228087523187  0.4263648814666  0.1694867676015 1.0
C      1  0.1972877534005  0.4471892017368  0.3676392746834 1.0
C      1  0.2013964552258  0.4376300632125  0.6560159634199 1.0
C      1  0.4247557637173  0.4427879291250  0.8206906625920 1.0
C      1  0.5650029344300  0.7492877252651  0.2239169216128 1.0
C      1  0.2794198774325  0.7735113305403  0.2538109023746 1.0
C      1  0.2075046052698  0.7814620448976  0.5369171111483 1.0
C      1  0.3003232189120  0.7667815939316  0.7976797197977 1.0
C      1  0.5969830888989  0.7766992429187  0.8020044283533 1.0
C      1  0.8014201583288  0.7262161192910  0.6176689080888 1.0
C      1  0.6883728794310  0.7560300025437  0.3445932822572 1.0
C      1  0.5409801338657  0.1140721783144  0.3869610538089 1.0
C      1  0.4612922102534  0.1601224450088  0.4140014177213 1.0
C      1  0.4121701924962  0.1579098372654  0.4891975779151 1.0
C      1  0.4276894468608  0.1142320642544  0.5756904823818 1.0
C      1  0.5211407820058  0.1306824037539  0.6004837192156 1.0
C      1  0.5965322813443  0.1288858551311  0.5480710652605 1.0
C      1  0.6126620079854  0.0974299979377  0.4573235827945 1.0
C      1  0.5627340721250  0.8024573978797  0.4502104231335 1.0
C      1  0.4780377052794  0.8118902104998  0.4206454872899 1.0
C      1  0.3931502574588  0.8198037069557  0.4686576610462 1.0
C      1  0.3877917140717  0.8283285234048  0.5601635488950 1.0
C      1  0.4672012292850  0.8524558988620  0.6274644079121 1.0
C      1  0.5614637341337  0.8194267391020  0.6226206796866 1.0
C      1  0.5993508635666  0.8458964062137  0.5328120067590 1.0
C      1  0.5758063888697  0.1726182452221  0.3155182481777 1.0
C      1  0.4247324746120  0.2155668504592  0.3479065817339 1.0
C      1  0.3395822093221  0.2164650516272  0.4828690770342 1.0
C      1  0.3776303977365  0.1829101568081  0.6344244605006 1.0
C      1  0.5315000777042  0.1899678457757  0.6722768136834 1.0
C      1  0.6625427833346  0.1867825382333  0.5808670897814 1.0
C      1  0.6888836715989  0.1566025027956  0.4267262570448 1.0
C      1  0.3679811792385  0.5932392188771  0.6346076526138 1.0
C      1  0.5542674308678  0.5845736095177  0.6876201959527 1.0
C      1  0.6994603348373  0.5965831389080  0.5617283505154 1.0
C      1  0.6699200735527  0.5775342603985  0.3939879703050 1.0
C      1  0.5409932818914  0.5579302310212  0.2948062866523 1.0
C      1  0.3626947578669  0.5727899527298  0.3438093220528 1.0
C      1  0.3128809809860  0.5917494669940  0.5384431838996 1.0
C      1  0.7973574004607  0.6115296135170  0.5141458945042 1.0
C      1  0.7306042846987  0.5987863444152  0.2456590446404 1.0
C      1  0.4504768795274  0.6043482521474  0.1819486164043 1.0
C      1  0.2139109761046  0.6249269917490  0.3416301908268 1.0
C      1  0.1875296191838  0.6258959420896  0.6282456439716 1.0
C      1  0.4023395864143  0.6244578473096  0.8029673677351 1.0
C      1  0.6762255006422  0.6104480811891  0.7727001334919 1.0
C      1  0.3992541303873  0.9950345378643  0.4693084196396 1.0
C      1  0.4169256342652  0.0133554151527  0.5572093235887 1.0
C      1  0.4885684555146  0.9477403561718  0.5824295439811 1.0
C      1  0.5655772187867  0.9411627472409  0.5299540237430 1.0
C      1  0.5847591890694  0.9976702773216  0.4526351677660 1.0
C      1  0.5186931449617  0.0142862976812  0.3885153473958 1.0
C      1  0.4291921647142  0.9811076422222  0.3896712529846 1.0
C      1  0.5536679297624  0.4658089781511  0.3098123818960 1.0
C      1  0.3749621648569  0.4814249273287  0.3330464478203 1.0
C      1  0.3003300741861  0.4988910854226  0.4994708966742 1.0
C      1  0.3761979123543  0.4899570152716  0.6572676910007 1.0
C      1  0.5272939386043  0.4952464118436  0.6847301829967 1.0
C      1  0.6877291692029  0.4918489421361  0.5670646695955 1.0
C      1  0.6688438264696  0.4772635563771  0.4069078727628 1.0
C      1  0.2205334151158  0.6349021266301  0.5374055118498 1.0
C      1  0.3376547025632  0.6288109913070  0.7295058243875 1.0
C      1  0.5799221968790  0.6229580642061  0.7729427615291 1.0
C      1  0.7848580906012  0.6263222546407  0.6116638579165 1.0
C      1  0.7398446078154  0.6154424879240  0.3415201273949 1.0
C      1  0.5454921546233  0.5922926987955  0.2015586202528 1.0
C      1  0.2954740970491  0.6196034555919  0.2898930546906 1.0
C      1  0.4458790669978  0.6310179977968  0.5789579933101 1.0
C      1  0.5404979641994  0.6302570683541  0.5984790240169 1.0
C      1  0.6096124468902  0.6342553599448  0.5360804228666 1.0
C      1  0.6017298843038  0.6416551108959  0.4332175231770 1.0
C      1  0.5165744538966  0.6129149308788  0.3786564924385 1.0
C      1  0.4282681755395  0.6148028950164  0.4079893295172 1.0
C      1  0.3991773018107  0.6293737497388  0.4985209900439 1.0
C      1  0.7394813441669  0.4661840539954  0.4800208939780 1.0
C      1  0.6551123282013  0.4547096450021  0.3057896145142 1.0
C      1  0.3716145167637  0.4640660963666  0.2401190953804 1.0
C      1  0.2271396880845  0.4910714884266  0.4463707763904 1.0
C      1  0.2799091431422  0.4827931106301  0.6794971660245 1.0
C      1  0.4428730377763  0.4843736778181  0.7333121057240 1.0
C      1  0.7182318390188  0.4766598898842  0.6607805948474 1.0
C      1  0.7253243243713  0.6904187394782  0.7575411262748 1.0
C      1  0.7846132341680  0.7027345788910  0.4671803717297 1.0
C      1  0.6908704612587  0.6745632025071  0.2043935563009 1.0
C      1  0.4139527698880  0.6879342432111  0.2079689643388 1.0
C      1  0.2070145998882  0.7096529034270  0.3862023532897 1.0
C      1  0.2071929305951  0.7041679925807  0.6782389633850 1.0
C      1  0.4462577053951  0.7081368259247  0.8180152413010 1.0
C      1  0.5181321682225  0.4527157886195  0.6003127082443 1.0
C      1  0.5939777608254  0.4530419480934  0.5442855554435 1.0
C      1  0.5883824365690  0.4408532978665  0.4532223196931 1.0
C      1  0.5164142736589  0.4313129741969  0.3925305458106 1.0
C      1  0.4228690395223  0.4361178993083  0.4083008206551 1.0
C      1  0.3821806593094  0.4450729797782  0.4952204296001 1.0
C      1  0.4248487039234  0.4432406980096  0.5798334943342 1.0
C      1  0.6476460989539  0.8083854306731  0.6597158572569 1.0
C      1  0.6886575115052  0.8148634139142  0.5700120158227 1.0
C      1  0.6181342203840  0.7385980069669  0.4070475808919 1.0
C      1  0.4349754968757  0.7942587856345  0.3345853661649 1.0
C      1  0.3481792562329  0.8036619547242  0.3817835887537 1.0
C      1  0.3262823205146  0.8190323958682  0.6338634049731 1.0
C      1  0.3973461505165  0.8277847239740  0.6990788768484 1.0
C      1  0.8381654618496  0.3373677162940  0.4935487750420 1.0
C      1  0.7347456676445  0.3227363558094  0.2449458925085 1.0
C      1  0.4695796867320  0.3484406685101  0.1667844328917 1.0
C      1  0.2164444319608  0.3621240681986  0.3386520750817 1.0
C      1  0.1953966711664  0.3503602759985  0.6273193694804 1.0
C      1  0.4219067375671  0.3504740682723  0.8147667430884 1.0
C      1  0.7042124975886  0.3411433050014  0.7670678463581 1.0
C      1  0.7632134994990  0.7024457914681  0.3778458459788 1.0
C      1  0.5969949252586  0.6676375269550  0.1823742154379 1.0
C      1  0.3205278590041  0.6923878331390  0.2335474311264 1.0
C      1  0.1954464970193  0.7098060754181  0.4821940264453 1.0
C      1  0.2691211239305  0.6924867947483  0.7511315046895 1.0
C      1  0.5422293129279  0.7044024893102  0.8124566627852 1.0
C      1  0.7971230248747  0.6828449488653  0.6943042922957 1.0
C      1  0.7098448577042  0.5029683589707  0.2365730674742 1.0
C      1  0.4046506343885  0.5193888011785  0.1722349857031 1.0
C      1  0.1843390030045  0.5395718182341  0.3773585516783 1.0
C      1  0.2042268995319  0.5334489285107  0.6614908959691 1.0
C      1  0.4278284870165  0.5327487783865  0.8180196516065 1.0
C      1  0.7104837718830  0.5228291949029  0.7402343609499 1.0
C      1  0.8218132788296  0.5205280791905  0.4776335940555 1.0
C      1  0.7654959722032  0.7688536915722  0.5412430019503 1.0
C      1  0.6601791161766  0.7560031715051  0.2557649819850 1.0
C      1  0.4721613401159  0.7554282081912  0.2520067631719 1.0
C      1  0.2615271206017  0.7793521945238  0.3453638212115 1.0
C      1  0.2355806710853  0.7829139355065  0.6253729854875 1.0
C      1  0.3914550351044  0.7838603353056  0.7858424758813 1.0
C      1  0.6709426063262  0.7715799963496  0.7484035926552 1.0
END
