TITL C-5887-279-52 -4.189 3375.00 -755.79722524 0 0 91 (C1) n - 1
REM
REM Run started: at 2020.12.18 03:05:07 in /gpfs/home/chem/mssmkc/CARBON/AIRSS/Generating-Clusters/Str-Search/Higher-Symm/C4-100
REM VASP from code version vasp.5.4.4.18Apr17-6-g9f103f2a35 (build Oct 11 2019 16:45:47) gamma-only
REM
REM
REM
REM
REM ./C.cell (6bd13a13d554368a30d355f37ece5b26)
REM AIRSS Version 0.9.1 bugfix July 2018 build 013d7b7c2542+ Fri, 06 Jul 2018 19:26:36 +0100
REM compiler GCC version 6.3.0
REM options -cpp -iprefix /gpfs/warwick/csc/orac/software/Core/GCCcore/6.3.0/bin/../lib/gcc/x86_64-pc-linux-gnu/6.3.0/ -mtune=generic -march=x86-64 -g -O0
REM seed 1899544808 1235547438 -1273361145 1526209019 -1516565699 1652998310 -1828416375 521841361 1790564183 460974327 1974040347 1283127842
REM
REM C.POTCAR (d86ddea03c3ceb6dc662c8ad6801f873)
REM 
CELL 1.54180   15.00000   15.00000   15.00000   90.00000   90.00000   90.00000
LATT -1
SFAC C  
C      1  0.6719304810927  0.2860057913198  0.4662591978043 1.0
C      1  0.6688854100276  0.4691674485968  0.2901793355774 1.0
C      1  0.6718436250410  0.6896517608841  0.4051802059365 1.0
C      1  0.6743855065605  0.6498631839885  0.6505259448194 1.0
C      1  0.6710823339013  0.4054259609891  0.6968707437738 1.0
C      1  0.5443613765995  0.5782954642867  0.5078505082197 1.0
C      1  0.5492202905755  0.5200643400618  0.5803153154171 1.0
C      1  0.5202072364944  0.4311364113125  0.5498431108574 1.0
C      1  0.5150919205583  0.4353306262946  0.4472174696773 1.0
C      1  0.5348860839884  0.5304771832280  0.4267801292986 1.0
C      1  0.5904167869035  0.6231760302208  0.2863982223589 1.0
C      1  0.5952144326575  0.7422020881554  0.5507730268615 1.0
C      1  0.5916201339209  0.5286573285973  0.7506557598749 1.0
C      1  0.5986354873988  0.2548330328190  0.6011169858242 1.0
C      1  0.5928790924603  0.3319041992427  0.2983157690639 1.0
C      1  0.2242379343219  0.5164259591008  0.6623935572538 1.0
C      1  0.2492478390004  0.3628606222547  0.5252629143904 1.0
C      1  0.2463106154634  0.3731875382199  0.4223889974370 1.0
C      1  0.2124388084211  0.5960493566563  0.3524981236022 1.0
C      1  0.2306710563131  0.6639365105326  0.5278445381948 1.0
C      1  0.4985794411766  0.7706927710830  0.5380499255044 1.0
C      1  0.4904355709241  0.5467128065578  0.7623871044164 1.0
C      1  0.5033630325633  0.2547102749340  0.6252555439619 1.0
C      1  0.5000402324258  0.2959700961310  0.3000689623069 1.0
C      1  0.4915019595220  0.6151492641355  0.2576360295855 1.0
C      1  0.6523106443643  0.3345689010507  0.3800658000311 1.0
C      1  0.6730337694314  0.5674726561054  0.2968492255604 1.0
C      1  0.6762261380303  0.7141506741675  0.4985297678941 1.0
C      1  0.6761403802685  0.5677417869291  0.7059940972771 1.0
C      1  0.6519723527777  0.3375368656288  0.6247436190147 1.0
C      1  0.5983346525434  0.4151228964206  0.2483494216512 1.0
C      1  0.5958851070611  0.7022823726890  0.3459700399740 1.0
C      1  0.6019038949402  0.7121809337667  0.6462486245490 1.0
C      1  0.5974556770674  0.4294966725888  0.7511231153496 1.0
C      1  0.6063928783621  0.2313907028557  0.5052378765801 1.0
C      1  0.1884388782588  0.4360394520352  0.5297768076028 1.0
C      1  0.1819996218057  0.4497752292632  0.4346810552141 1.0
C      1  0.1746905745030  0.5443883787624  0.4199704499131 1.0
C      1  0.1820773127652  0.5875086023106  0.5111203404372 1.0
C      1  0.1858381585783  0.5176978031338  0.5785553014014 1.0
C      1  0.3763524848145  0.2742791368471  0.5202415914792 1.0
C      1  0.3660915559566  0.3962264418549  0.2966290812270 1.0
C      1  0.3568917353761  0.6784899727256  0.3466440811985 1.0
C      1  0.3693164966400  0.7041389292498  0.6071723691761 1.0
C      1  0.3610167383700  0.4398070488686  0.7222164841975 1.0
C      1  0.3733768915317  0.5020252935492  0.4123906230830 1.0
C      1  0.3741663994695  0.5735755239630  0.4711386970066 1.0
C      1  0.3875490282805  0.5463955529249  0.5636413855102 1.0
C      1  0.4163769527471  0.4465775005495  0.5635624115155 1.0
C      1  0.4126264222249  0.4221132463963  0.4617609806949 1.0
C      1  0.7055247775552  0.4173556466860  0.3600993005156 1.0
C      1  0.7170410207191  0.6087787113559  0.3738880113559 1.0
C      1  0.7197652121973  0.6543760298418  0.5630488316248 1.0
C      1  0.7165966596824  0.4879339380007  0.6704331654967 1.0
C      1  0.7027993320210  0.3506769381940  0.5363469741029 1.0
C      1  0.5072889409607  0.7305978280513  0.3614682852660 1.0
C      1  0.5132705250937  0.7129390492122  0.6833258363332 1.0
C      1  0.5104444936534  0.3911254958791  0.7546893298679 1.0
C      1  0.5172159917964  0.2171975255257  0.4715420594277 1.0
C      1  0.5076660292480  0.4338398813830  0.2270615025195 1.0
C      1  0.4550291388181  0.2294955483580  0.5437484552364 1.0
C      1  0.4483629434787  0.3614712984886  0.2536023120519 1.0
C      1  0.4427880837216  0.6859020776469  0.3051007389504 1.0
C      1  0.4518271375950  0.7530596287889  0.6211955634683 1.0
C      1  0.4440064722073  0.4594440191499  0.7652402393267 1.0
C      1  0.5325096433712  0.6731189515843  0.5090849661796 1.0
C      1  0.5347598675231  0.5499467907877  0.6684887456765 1.0
C      1  0.5488827523246  0.3546257502143  0.6042026834049 1.0
C      1  0.5517449028277  0.3584189642371  0.3959123460642 1.0
C      1  0.5282884859474  0.5555019048501  0.3376767113223 1.0
C      1  0.7655562567117  0.5789447003944  0.5302415553865 1.0
C      1  0.7547072513169  0.4932817220787  0.5799353092969 1.0
C      1  0.7852120301680  0.4125327012662  0.5234512683524 1.0
C      1  0.7505883611038  0.4594638114275  0.4351118511837 1.0
C      1  0.7637568076914  0.5571392292634  0.4381137227752 1.0
C      1  0.4844758905283  0.2806237358907  0.3988790307382 1.0
C      1  0.4681050370895  0.5170846361913  0.2678575417342 1.0
C      1  0.4697646407035  0.7236514286400  0.4534349691627 1.0
C      1  0.4726046624077  0.6211459158245  0.6968265267476 1.0
C      1  0.4779704851506  0.3366314799891  0.6759048525795 1.0
C      1  0.3830558613693  0.4859852759146  0.3160180994952 1.0
C      1  0.3748142173186  0.6756064009979  0.4477573433299 1.0
C      1  0.3933648794085  0.6152282875992  0.6315031385901 1.0
C      1  0.3842814277827  0.3796503314279  0.6420051352980 1.0
C      1  0.3935243675876  0.3197864343313  0.4325830107580 1.0
C      1  0.3109354626003  0.7037771113778  0.5265951214226 1.0
C      1  0.2823981268500  0.4862056205167  0.7138990367741 1.0
C      1  0.3200309446203  0.3265530054107  0.5772122914694 1.0
C      1  0.3185736022590  0.3481501683647  0.3692997778201 1.0
C      1  0.2741356196343  0.6442556802152  0.3237452870370 1.0
C      1  0.6879236224763  0.4473048204042  0.5139125023008 1.0
END
