TITL C-5887-279-122 -4.287 3375.00 -721.76739128 0 0 91 (C1) n - 1
REM
REM Run started: at 2020.12.18 16:12:06 in /gpfs/home/chem/mssmkc/CARBON/AIRSS/Generating-Clusters/Str-Search/Higher-Symm/C4-100
REM VASP from code version vasp.5.4.4.18Apr17-6-g9f103f2a35 (build Oct 11 2019 16:45:47) gamma-only
REM
REM
REM
REM
REM ./C.cell (6bd13a13d554368a30d355f37ece5b26)
REM AIRSS Version 0.9.1 bugfix July 2018 build 013d7b7c2542+ Fri, 06 Jul 2018 19:26:36 +0100
REM compiler GCC version 6.3.0
REM options -cpp -iprefix /gpfs/warwick/csc/orac/software/Core/GCCcore/6.3.0/bin/../lib/gcc/x86_64-pc-linux-gnu/6.3.0/ -mtune=generic -march=x86-64 -g -O0
REM seed -399833575 -1078864087 -298584472 -56120368 -1605209343 -1053316041 734953226 1524999910 1470105446 -1039753934 -2108515683 1616413339
REM
REM C.POTCAR (d86ddea03c3ceb6dc662c8ad6801f873)
REM 
CELL 1.54180   15.00000   15.00000   15.00000   90.00000   90.00000   90.00000
LATT -1
SFAC C  
C      1  0.4545038690839  0.2481232478304  0.4798209979344 1.0
C      1  0.4775656706428  0.7513980621862  0.5474148669094 1.0
C      1  0.5459154568396  0.2480665397659  0.5256162425511 1.0
C      1  0.5233122080346  0.7513467441062  0.4559773730221 1.0
C      1  0.5428076625132  0.2886404074113  0.6167137485888 1.0
C      1  0.6145202273209  0.7108748687909  0.4591852049694 1.0
C      1  0.4575091212332  0.2883991052921  0.3885478324246 1.0
C      1  0.3863767891994  0.7109336020590  0.5445171930691 1.0
C      1  0.6200769719126  0.7179100248917  0.6284546637104 1.0
C      1  0.6269986381941  0.2815068891094  0.3832473112502 1.0
C      1  0.3808622644007  0.7176221638166  0.3750186745821 1.0
C      1  0.3734705954691  0.2818938094127  0.6223023922453 1.0
C      1  0.6899089833067  0.5484515922381  0.4423109321227 1.0
C      1  0.4405345211911  0.4507265669939  0.3128744177713 1.0
C      1  0.3108679062680  0.5486291008862  0.5619136112896 1.0
C      1  0.5601409240067  0.4510851490331  0.6918708299336 1.0
C      1  0.7926499394356  0.3856946688492  0.5612113053536 1.0
C      1  0.5595535215710  0.6133158057875  0.2099694492196 1.0
C      1  0.2079988158154  0.3858436346009  0.4434653747427 1.0
C      1  0.4412360238374  0.6140115964422  0.7943569880022 1.0
C      1  0.6655117803413  0.7249044738888  0.5466689253270 1.0
C      1  0.5451916323295  0.2744381952109  0.3376921530072 1.0
C      1  0.3353731510124  0.7246640604308  0.4568714246669 1.0
C      1  0.4552572552494  0.2749284864177  0.6677615413547 1.0
C      1  0.5230623289008  0.3904363605350  0.7611195201077 1.0
C      1  0.7590563370885  0.6091554182593  0.4795558800177 1.0
C      1  0.4778416643251  0.3899383585526  0.2439828267708 1.0
C      1  0.2418148248347  0.6094557931766  0.5249296657635 1.0
C      1  0.5201805052958  0.7038683714876  0.6261556129557 1.0
C      1  0.6246427698965  0.2956397816607  0.4830607845934 1.0
C      1  0.4807445809728  0.7035845739275  0.3773789854322 1.0
C      1  0.3758757176567  0.2958206167315  0.5224418279901 1.0
C      1  0.6352642595112  0.2505485271442  0.6339728842708 1.0
C      1  0.6313761950943  0.7491357576315  0.3668259291553 1.0
C      1  0.3650349942684  0.2502322517598  0.3719215461272 1.0
C      1  0.3695048238897  0.7491531287234  0.6369118218749 1.0
C      1  0.3386344174926  0.4862807781445  0.4821661591480 1.0
C      1  0.4803866205486  0.5134097315995  0.6638857072389 1.0
C      1  0.6620508462898  0.4861776934192  0.5222227615302 1.0
C      1  0.5204187103571  0.5130081391911  0.3405345794003 1.0
C      1  0.2636310147331  0.4594645235727  0.4169130720844 1.0
C      1  0.4149997829820  0.5401893201581  0.7387978238218 1.0
C      1  0.7370070607138  0.4594165237329  0.5875716909124 1.0
C      1  0.5857647888701  0.5395255162849  0.2654720474323 1.0
C      1  0.2502861027939  0.6854414279236  0.4741198308149 1.0
C      1  0.4724035823829  0.3143744196261  0.7527418141841 1.0
C      1  0.7505625881486  0.6853550901608  0.5299382135909 1.0
C      1  0.5284603766450  0.3138343323945  0.2525643448810 1.0
C      1  0.6541863887262  0.6706976464307  0.7030085544217 1.0
C      1  0.7014251706149  0.3287977548481  0.3489174760394 1.0
C      1  0.3466555532626  0.6701898723532  0.3006556461837 1.0
C      1  0.2988629982967  0.3291544675435  0.6561845872236 1.0
C      1  0.7717830320278  0.3055769981593  0.5610110940599 1.0
C      1  0.5590125715581  0.6935517023232  0.2302682141307 1.0
C      1  0.2286001142078  0.3056877491775  0.4445678269277 1.0
C      1  0.4421049191242  0.6940794726415  0.7734159088311 1.0
C      1  0.2825163716560  0.4767828198544  0.3327607951786 1.0
C      1  0.3309506951377  0.5225865225289  0.7198156298529 1.0
C      1  0.7180284512500  0.4770596065495  0.6715944037848 1.0
C      1  0.6698651273128  0.5220202086705  0.2843455908618 1.0
C      1  0.7352462689194  0.4038969898954  0.3556958069730 1.0
C      1  0.3536425680829  0.5950304847972  0.2669867443370 1.0
C      1  0.2652469633150  0.4043150308607  0.6492159920077 1.0
C      1  0.6471764701533  0.5955808286760  0.7367244330332 1.0
C      1  0.6869454272918  0.2646767218806  0.5583157201312 1.0
C      1  0.5559160154424  0.7345939081940  0.3149971576553 1.0
C      1  0.3134009681122  0.2647434277911  0.4475394615578 1.0
C      1  0.4451274813206  0.7349398592570  0.6885633028223 1.0
C      1  0.4957521100696  0.3461529023699  0.8404830887707 1.0
C      1  0.8383910013130  0.6531226718922  0.5075571879836 1.0
C      1  0.5056462375201  0.3457787775066  0.1647962159650 1.0
C      1  0.1625582976222  0.6539685825480  0.4978341482606 1.0
C      1  0.4057062533205  0.6088885789931  0.5527750591321 1.0
C      1  0.5510046559011  0.3906972551504  0.5971401598614 1.0
C      1  0.5951581584523  0.6088040345287  0.4512667284194 1.0
C      1  0.4495148113716  0.3905020590555  0.4076501397910 1.0
C      1  0.4658617430091  0.4404176874510  0.5732852009624 1.0
C      1  0.5713868438347  0.5592120329428  0.5365251571963 1.0
C      1  0.5347892933944  0.4400764490456  0.4313824689141 1.0
C      1  0.4294458689489  0.5591824983851  0.4675856176049 1.0
C      1  0.5012161901109  0.5998950590770  0.6067683188376 1.0
C      1  0.6050717122725  0.3995816265260  0.5016426225373 1.0
C      1  0.4996639175536  0.5996558592760  0.3972656895279 1.0
C      1  0.3955172118830  0.3997444489428  0.5031552225626 1.0
C      1  0.3552352778814  0.5026754012882  0.2889517522318 1.0
C      1  0.2869289189753  0.4967053675701  0.6472548303260 1.0
C      1  0.6454703632838  0.5030633552712  0.7156040090167 1.0
C      1  0.7137727672856  0.4963421295957  0.3570622128914 1.0
C      1  0.5002115677251  0.8337924623185  0.5015324245075 1.0
C      1  0.5003072462654  0.1656523817876  0.5024246507547 1.0
C      1  0.5003640732929  0.4997269747963  0.5021578637852 1.0
END
