TITL C-5887-279-163 -4.16 3375.00 -727.53149158 0 0 90 (C2v) n - 1
REM
REM Run started: at 2020.12.18 23:15:18 in /gpfs/home/chem/mssmkc/CARBON/AIRSS/Generating-Clusters/Str-Search/Higher-Symm/C4-100
REM VASP from code version vasp.5.4.4.18Apr17-6-g9f103f2a35 (build Oct 11 2019 16:45:47) gamma-only
REM
REM
REM
REM
REM ./C.cell (6bd13a13d554368a30d355f37ece5b26)
REM AIRSS Version 0.9.1 bugfix July 2018 build 013d7b7c2542+ Fri, 06 Jul 2018 19:26:36 +0100
REM compiler GCC version 6.3.0
REM options -cpp -iprefix /gpfs/warwick/csc/orac/software/Core/GCCcore/6.3.0/bin/../lib/gcc/x86_64-pc-linux-gnu/6.3.0/ -mtune=generic -march=x86-64 -g -O0
REM seed 889819293 -1902367265 -1754335792 2081608731 2018785066 129361701 -1013457903 762457341 1791868076 675905482 -1978176705 -203892945
REM
REM C.POTCAR (d86ddea03c3ceb6dc662c8ad6801f873)
REM 
CELL 1.54180   15.00000   15.00000   15.00000   90.00000   90.00000   90.00000
LATT -1
SFAC C  
C      1  0.6068614019154  0.6049394986683  0.2375438884894 1.0
C      1  0.6068555271113  0.3950653814679  0.7624526615943 1.0
C      1  0.6068580142636  0.6049411781281  0.7624565235856 1.0
C      1  0.6068591339317  0.3950669605827  0.2375482348387 1.0
C      1  0.6638690595775  0.3558560824809  0.7006553118490 1.0
C      1  0.6638715380165  0.6441505160175  0.2993389036488 1.0
C      1  0.6638719783936  0.3558592025387  0.2993444354698 1.0
C      1  0.6638700271278  0.6441522920364  0.7006603147782 1.0
C      1  0.5415102357785  0.7265477396010  0.6259015599932 1.0
C      1  0.5415096297219  0.2734521065159  0.3740966318816 1.0
C      1  0.5415095022365  0.7265480561674  0.3740976967056 1.0
C      1  0.5415094180290  0.2734524932242  0.6259029535586 1.0
C      1  0.3710227377899  0.4509935704545  0.4333634589158 1.0
C      1  0.3710251781887  0.5490075322269  0.5666331624041 1.0
C      1  0.3710228018780  0.4509930320330  0.5666359146220 1.0
C      1  0.3710251353110  0.5490071044165  0.4333663409988 1.0
C      1  0.3992716894884  0.6778089917180  0.6753321114067 1.0
C      1  0.3992727735810  0.3221908148970  0.3246668655833 1.0
C      1  0.3992724194886  0.6778086418892  0.3246674813097 1.0
C      1  0.3992719286401  0.3221905735611  0.6753330924309 1.0
C      1  0.5161568136162  0.6171958297537  0.7571822573687 1.0
C      1  0.5161566298036  0.3828056220529  0.2428147650854 1.0
C      1  0.5161569229877  0.6171958116827  0.2428168018384 1.0
C      1  0.5161564086054  0.3828055253235  0.7571847394530 1.0
C      1  0.8154832747331  0.4536198900205  0.4470320901047 1.0
C      1  0.8154850827441  0.5463885425557  0.5529764886874 1.0
C      1  0.8154845989092  0.4536200895933  0.5529694486721 1.0
C      1  0.8154857208229  0.5463890833773  0.4470249217044 1.0
C      1  0.3518915716063  0.6018911361542  0.7294731904436 1.0
C      1  0.3518947279395  0.3981074063200  0.2705254579435 1.0
C      1  0.3518936182505  0.6018925210855  0.2705249373679 1.0
C      1  0.3518924231825  0.3981091150614  0.7294728721118 1.0
C      1  0.7283856200711  0.5948647670692  0.5558393765282 1.0
C      1  0.7283795717577  0.4051369137086  0.4441755287425 1.0
C      1  0.7283863074580  0.5948652421217  0.4441650135175 1.0
C      1  0.7283805543021  0.4051362930531  0.5558273937977 1.0
C      1  0.6362634152136  0.7021369922839  0.6260297174918 1.0
C      1  0.6362626638384  0.2978690494484  0.3739700408359 1.0
C      1  0.6362648201384  0.7021361879805  0.3739705642894 1.0
C      1  0.6362620087064  0.2978680723353  0.6260301998253 1.0
C      1  0.4928022561731  0.6905907450339  0.7004577242667 1.0
C      1  0.4928024522792  0.3094082103644  0.2995409832144 1.0
C      1  0.4928020567001  0.6905920594102  0.2995408681688 1.0
C      1  0.4928021076041  0.3094099334132  0.7004580838048 1.0
C      1  0.3850075576287  0.2738674117624  0.4085602845409 1.0
C      1  0.3850065895394  0.7261338974183  0.5914375562716 1.0
C      1  0.3850072378823  0.2738661603608  0.5914379199676 1.0
C      1  0.3850069165818  0.7261327554527  0.4085603001247 1.0
C      1  0.6424881389801  0.4529427144436  0.4259082018074 1.0
C      1  0.6424966715275  0.5470535502453  0.5741235916824 1.0
C      1  0.6424884008946  0.4529417052279  0.5740950255608 1.0
C      1  0.6424966794499  0.5470538774534  0.4258807259774 1.0
C      1  0.2786146062354  0.4014081301721  0.5531216762049 1.0
C      1  0.2786159360118  0.5985909035202  0.4468773161927 1.0
C      1  0.2786153644031  0.4014085812127  0.4468777921948 1.0
C      1  0.2786152320610  0.5985915430469  0.5531216613046 1.0
C      1  0.2723358572447  0.5500297050948  0.2867162180055 1.0
C      1  0.2723307024800  0.4499695367998  0.7132867083902 1.0
C      1  0.2723329705671  0.5500294090110  0.7132833518070 1.0
C      1  0.2723331411372  0.4499685078546  0.2867119117328 1.0
C      1  0.4719204039011  0.2552395309623  0.4495464428610 1.0
C      1  0.4719184617459  0.7447612010648  0.5504513906591 1.0
C      1  0.4719187220768  0.2552396777003  0.5504516244045 1.0
C      1  0.4719202159063  0.7447612017231  0.4495466601102 1.0
C      1  0.2306071480243  0.4508026223753  0.6240032970388 1.0
C      1  0.2306027861655  0.5492000738737  0.3759952029435 1.0
C      1  0.2306087242178  0.4508026883026  0.3759955445019 1.0
C      1  0.2306024923018  0.5491999859760  0.6240035792588 1.0
C      1  0.3090993686956  0.3037837103725  0.4538031985842 1.0
C      1  0.3090984934174  0.6962167503388  0.5461954416653 1.0
C      1  0.3090985165909  0.3037832470406  0.5461956706551 1.0
C      1  0.3090991651671  0.6962160252727  0.4538029652144 1.0
C      1  0.6768779852798  0.5463491026748  0.7372032729566 1.0
C      1  0.6768795448547  0.4536552798277  0.2627973440337 1.0
C      1  0.6768790190283  0.5463499780086  0.2627985715898 1.0
C      1  0.6768786805090  0.4536559158559  0.7372044546773 1.0
C      1  0.4134239588027  0.4180908135462  0.3549035268248 1.0
C      1  0.4134215348433  0.5819094867328  0.6450954384524 1.0
C      1  0.4134225079816  0.4180902498040  0.6450962721423 1.0
C      1  0.4134225906860  0.5819087354648  0.3549040447126 1.0
C      1  0.4418479034776  0.4491905180701  0.2614520169698 1.0
C      1  0.4418465544362  0.5508096073588  0.7385461887439 1.0
C      1  0.4418462132058  0.4491910875602  0.7385466527771 1.0
C      1  0.4418480968888  0.5508098333495  0.2614523011186 1.0
C      1  0.6923192462008  0.6887365224279  0.5471666689982 1.0
C      1  0.6923177020647  0.3112635895724  0.4528350511191 1.0
C      1  0.6923188239038  0.6887361477253  0.4528344975628 1.0
C      1  0.6923184568871  0.3112624174749  0.5471664175199 1.0
C      1  0.5807520637219  0.4484557014381  0.5000020938054 1.0
C      1  0.5808222584810  0.5514731012006  0.5000029170059 1.0
END
