TITL C-5887-279-32 -0.909 3375.00 -130.70909384 0 0 17 (C1) n - 1
REM
REM Run started: at 2020.12.17 23:12:27 in /gpfs/home/chem/mssmkc/CARBON/AIRSS/Generating-Clusters/Str-Search/Higher-Symm/C4-100
REM VASP from code version vasp.5.4.4.18Apr17-6-g9f103f2a35 (build Oct 11 2019 16:45:47) gamma-only
REM
REM
REM
REM
REM ./C.cell (6bd13a13d554368a30d355f37ece5b26)
REM AIRSS Version 0.9.1 bugfix July 2018 build 013d7b7c2542+ Fri, 06 Jul 2018 19:26:36 +0100
REM compiler GCC version 6.3.0
REM options -cpp -iprefix /gpfs/warwick/csc/orac/software/Core/GCCcore/6.3.0/bin/../lib/gcc/x86_64-pc-linux-gnu/6.3.0/ -mtune=generic -march=x86-64 -g -O0
REM seed -1598184259 -1547631825 554687306 177533850 -1953014440 1930448068 1878695658 754220610 837513772 -1253703984 -1384591853 -2042750109
REM
REM C.POTCAR (d86ddea03c3ceb6dc662c8ad6801f873)
REM 
CELL 1.54180   15.00000   15.00000   15.00000   90.00000   90.00000   90.00000
LATT -1
SFAC C  
C      1  0.4750515337344  0.5147024284090  0.6308293731328 1.0
C      1  0.3529422652237  0.5081348001332  0.5242146108561 1.0
C      1  0.4240653720832  0.5099214372115  0.3043136284100 1.0
C      1  0.6527678034208  0.5149389741475  0.3627652214487 1.0
C      1  0.6517663691343  0.5147817941206  0.6087389197305 1.0
C      1  0.5649997987751  0.5155396964626  0.6544944255401 1.0
C      1  0.6847137963676  0.5150701234071  0.5260689074542 1.0
C      1  0.5942894350853  0.5127405288156  0.3012024831563 1.0
C      1  0.3598807205656  0.5067774880243  0.3639707076771 1.0
C      1  0.3280196029007  0.4940289784036  0.6139100145965 1.0
C      1  0.3188747520064  0.5018207232552  0.4380648499569 1.0
C      1  0.6901063495072  0.5133524648995  0.4416660607365 1.0
C      1  0.3914084937947  0.4951936366153  0.6719546542043 1.0
C      1  0.6432611664423  0.5040113912014  0.7025224095385 1.0
C      1  0.5074839935136  0.5136532357525  0.2896051976236 1.0
C      1  0.5043372937047  0.5832347619751  0.4858229533701 1.0
C      1  0.4514724537405  0.5317884371661  0.5361091825679 1.0
END
