TITL C-5887-279-184 -1.271 3375.00 -198.67720970 0 0 25 (C1) n - 1
REM
REM Run started: at 2020.12.19 02:55:55 in /gpfs/home/chem/mssmkc/CARBON/AIRSS/Generating-Clusters/Str-Search/Higher-Symm/C4-100
REM VASP from code version vasp.5.4.4.18Apr17-6-g9f103f2a35 (build Oct 11 2019 16:45:47) gamma-only
REM
REM
REM
REM
REM ./C.cell (6bd13a13d554368a30d355f37ece5b26)
REM AIRSS Version 0.9.1 bugfix July 2018 build 013d7b7c2542+ Fri, 06 Jul 2018 19:26:36 +0100
REM compiler GCC version 6.3.0
REM options -cpp -iprefix /gpfs/warwick/csc/orac/software/Core/GCCcore/6.3.0/bin/../lib/gcc/x86_64-pc-linux-gnu/6.3.0/ -mtune=generic -march=x86-64 -g -O0
REM seed 2120326100 1397570916 2077633465 -501114809 -1189994979 816743868 1945812258 96232527 534408820 -1572351208 -566182035 1258822437
REM
REM C.POTCAR (d86ddea03c3ceb6dc662c8ad6801f873)
REM 
CELL 1.54180   15.00000   15.00000   15.00000   90.00000   90.00000   90.00000
LATT -1
SFAC C  
C      1  0.5468125110678  0.5148719352474  0.3203057475570 1.0
C      1  0.6110972122832  0.5646709145780  0.6800625213095 1.0
C      1  0.4489284533701  0.5131886563061  0.3201660680658 1.0
C      1  0.3779015374330  0.5595315272241  0.6786974463926 1.0
C      1  0.5449595905112  0.5011968991063  0.6774212279990 1.0
C      1  0.6212929187528  0.5664879245146  0.3145534155671 1.0
C      1  0.4473706463215  0.4993688512630  0.6760413041764 1.0
C      1  0.3728022985228  0.5623811497466  0.3138248001262 1.0
C      1  0.6871232859436  0.5261718617987  0.5493676672415 1.0
C      1  0.6200164862544  0.4506106217280  0.4538709277016 1.0
C      1  0.3040575934024  0.5159689466040  0.5476392334075 1.0
C      1  0.3768459211599  0.4447996776200  0.4527360072191 1.0
C      1  0.6848274197128  0.5265913962862  0.4502103319480 1.0
C      1  0.6342364698450  0.4439806834388  0.5516013051026 1.0
C      1  0.3086213639929  0.5176535951345  0.4484220105550 1.0
C      1  0.3609214025821  0.4369055582664  0.5503904905691 1.0
C      1  0.5725447343766  0.4245149389906  0.6178959936087 1.0
C      1  0.6841498426228  0.5733153328880  0.3722241548195 1.0
C      1  0.4238262500631  0.4213713877666  0.6168502725375 1.0
C      1  0.3090612391851  0.5649909754877  0.3709959941365 1.0
C      1  0.5490895617508  0.4491008665707  0.3955373267307 1.0
C      1  0.6754044968156  0.5772545100530  0.6250810796498 1.0
C      1  0.4484955608581  0.4469290084226  0.3952225618190 1.0
C      1  0.3133525309540  0.5679236528416  0.6232441397419 1.0
C      1  0.4993943722185  0.3667520281167  0.6050633720184 1.0
END
