TITL C-5887-279-145 -0.555 3375.00 -78.70821994 0 0 10 (D10) n - 1
REM
REM Run started: at 2020.12.18 20:32:30 in /gpfs/home/chem/mssmkc/CARBON/AIRSS/Generating-Clusters/Str-Search/Higher-Symm/C4-100
REM VASP from code version vasp.5.4.4.18Apr17-6-g9f103f2a35 (build Oct 11 2019 16:45:47) gamma-only
REM
REM
REM
REM
REM ./C.cell (6bd13a13d554368a30d355f37ece5b26)
REM AIRSS Version 0.9.1 bugfix July 2018 build 013d7b7c2542+ Fri, 06 Jul 2018 19:26:36 +0100
REM compiler GCC version 6.3.0
REM options -cpp -iprefix /gpfs/warwick/csc/orac/software/Core/GCCcore/6.3.0/bin/../lib/gcc/x86_64-pc-linux-gnu/6.3.0/ -mtune=generic -march=x86-64 -g -O0
REM seed 518452862 -2126097583 1095685078 259452167 1060679249 1664571582 -1563298194 1452212589 -1385897526 366531528 879548667 57036853
REM
REM C.POTCAR (d86ddea03c3ceb6dc662c8ad6801f873)
REM 
CELL 1.54180   15.00000   15.00000   15.00000   90.00000   90.00000   90.00000
LATT -1
SFAC C  
C      1  0.3674110422299  0.5000000003239  0.5431011265093 1.0
C      1  0.4180012968946  0.4999999996722  0.3870769486219 1.0
C      1  0.5819987361653  0.5000000003366  0.3870769677404 1.0
C      1  0.6325890054253  0.5000000000657  0.5431011212712 1.0
C      1  0.5000000054529  0.4999999997404  0.6395442737533 1.0
C      1  0.3674110428686  0.4999999999052  0.4568988450056 1.0
C      1  0.4180013051079  0.4999999996879  0.6129230247892 1.0
C      1  0.5819987409703  0.5000000004439  0.6129230604176 1.0
C      1  0.6325890095867  0.4999999995585  0.4568989036743 1.0
C      1  0.5000000152985  0.5000000002656  0.3604557282172 1.0
END
