TITL C-5887-279-115 -2.123 3375.00 -352.58824843 0 0 44 (Ci) n - 1
REM
REM Run started: at 2020.12.18 14:29:45 in /gpfs/home/chem/mssmkc/CARBON/AIRSS/Generating-Clusters/Str-Search/Higher-Symm/C4-100
REM VASP from code version vasp.5.4.4.18Apr17-6-g9f103f2a35 (build Oct 11 2019 16:45:47) gamma-only
REM
REM
REM
REM
REM ./C.cell (6bd13a13d554368a30d355f37ece5b26)
REM AIRSS Version 0.9.1 bugfix July 2018 build 013d7b7c2542+ Fri, 06 Jul 2018 19:26:36 +0100
REM compiler GCC version 6.3.0
REM options -cpp -iprefix /gpfs/warwick/csc/orac/software/Core/GCCcore/6.3.0/bin/../lib/gcc/x86_64-pc-linux-gnu/6.3.0/ -mtune=generic -march=x86-64 -g -O0
REM seed -948276150 577536182 -989627517 -705237067 -1515207519 -949116419 316397555 -851118442 222820052 67745113 1351185498 -1645946649
REM
REM C.POTCAR (d86ddea03c3ceb6dc662c8ad6801f873)
REM 
CELL 1.54180   15.00000   15.00000   15.00000   90.00000   90.00000   90.00000
LATT -1
SFAC C  
C      1  0.6727782359032  0.4254484036391  0.5616873036162 1.0
C      1  0.3272217654899  0.5745515980510  0.4383126964268 1.0
C      1  0.4712325866709  0.4261691853262  0.6657323225711 1.0
C      1  0.5287674069375  0.5738308100220  0.3342676804204 1.0
C      1  0.3229559310885  0.6165105381596  0.5944555661534 1.0
C      1  0.6770440686852  0.3834894627500  0.4055444325277 1.0
C      1  0.5210121105144  0.6825045923477  0.5309848524831 1.0
C      1  0.4789878941011  0.3174954071278  0.4690151458277 1.0
C      1  0.3342219121687  0.5037513803397  0.3706105475922 1.0
C      1  0.6657780914478  0.4962486207847  0.6293894600293 1.0
C      1  0.3009184191256  0.4185485525363  0.4001507530085 1.0
C      1  0.6990815782308  0.5814514508499  0.5998492465986 1.0
C      1  0.6016485562216  0.3661026228088  0.3476205222149 1.0
C      1  0.3983514431132  0.6338973745954  0.6523794776806 1.0
C      1  0.6246990493124  0.3080695618189  0.4243131466914 1.0
C      1  0.3753009536967  0.6919304350510  0.5756868550093 1.0
C      1  0.7090485186326  0.6022746111351  0.5081849497274 1.0
C      1  0.2909514731963  0.3977253895328  0.4918150515975 1.0
C      1  0.4910588649426  0.4050359392151  0.4182621643904 1.0
C      1  0.5089411391342  0.5949640597357  0.5817378324825 1.0
C      1  0.4409000679529  0.6151432832947  0.3434844453432 1.0
C      1  0.5590999321105  0.3848567208708  0.6565155574860 1.0
C      1  0.6052596659175  0.3542234641418  0.5778019394635 1.0
C      1  0.3947403366259  0.6457765391129  0.4221980564729 1.0
C      1  0.3083359541806  0.5501748435985  0.5298194688075 1.0
C      1  0.6916640475025  0.4498251568384  0.4701805315513 1.0
C      1  0.3309664445317  0.3330746849700  0.4355391935772 1.0
C      1  0.6690335531396  0.6669253134778  0.5644608056958 1.0
C      1  0.5187829413939  0.4050769054875  0.3220047508099 1.0
C      1  0.4812170570702  0.5949230932510  0.6779952454735 1.0
C      1  0.5817998880812  0.5484441324048  0.4111744512552 1.0
C      1  0.4182001096684  0.4515558650769  0.5888255535176 1.0
C      1  0.3994822550533  0.2772976762946  0.4569964197189 1.0
C      1  0.6005177429661  0.7227023283044  0.5430035785721 1.0
C      1  0.4928502454264  0.4912028324604  0.2884864421053 1.0
C      1  0.5071497568106  0.5087971651321  0.7115135543069 1.0
C      1  0.3283197580287  0.4570133031483  0.5547096177629 1.0
C      1  0.6716802410415  0.5429866976748  0.4452903782246 1.0
C      1  0.4044161336107  0.5304485223101  0.3110323508973 1.0
C      1  0.5955838706135  0.4695514748668  0.6889676507537 1.0
C      1  0.4279879304024  0.6968292698698  0.4970658944174 1.0
C      1  0.5720120680158  0.3031707280969  0.5029341065976 1.0
C      1  0.4823587021383  0.5141294131205  0.5414789653402 1.0
C      1  0.5176412991048  0.4858705903695  0.4585210348007 1.0
END
