TITL C-5887-279-106 -3.859 3375.00 -599.16638831 0 0 74 (C1) n - 1
REM
REM Run started: at 2020.12.18 13:40:04 in /gpfs/home/chem/mssmkc/CARBON/AIRSS/Generating-Clusters/Str-Search/Higher-Symm/C4-100
REM VASP from code version vasp.5.4.4.18Apr17-6-g9f103f2a35 (build Oct 11 2019 16:45:47) gamma-only
REM
REM
REM
REM
REM ./C.cell (6bd13a13d554368a30d355f37ece5b26)
REM AIRSS Version 0.9.1 bugfix July 2018 build 013d7b7c2542+ Fri, 06 Jul 2018 19:26:36 +0100
REM compiler GCC version 6.3.0
REM options -cpp -iprefix /gpfs/warwick/csc/orac/software/Core/GCCcore/6.3.0/bin/../lib/gcc/x86_64-pc-linux-gnu/6.3.0/ -mtune=generic -march=x86-64 -g -O0
REM seed 56971014 -84206591 1829990971 2043572296 -1757363941 -1363028166 839123429 -422759508 1293943712 -1854158389 -175089237 1079721417
REM
REM C.POTCAR (d86ddea03c3ceb6dc662c8ad6801f873)
REM 
CELL 1.54180   15.00000   15.00000   15.00000   90.00000   90.00000   90.00000
LATT -1
SFAC C  
C      1  0.6185993019372  0.3045872304765  0.6093298381272 1.0
C      1  0.4139980618141  0.3208814584910  0.6261711469880 1.0
C      1  0.3475390874292  0.3938134068520  0.6418725060849 1.0
C      1  0.3608825960409  0.6086057962318  0.7107525152422 1.0
C      1  0.4920920391170  0.6807020668223  0.7123669134055 1.0
C      1  0.6852973999233  0.5768594622524  0.6576604663921 1.0
C      1  0.7145008586942  0.4834847584040  0.6480076271342 1.0
C      1  0.2816961347872  0.6334045041064  0.3293483491874 1.0
C      1  0.4832624002854  0.7543185718183  0.3277700404667 1.0
C      1  0.6920524878982  0.6791355574815  0.2973516450297 1.0
C      1  0.7619416647362  0.4521086400214  0.2871158814527 1.0
C      1  0.6354070726567  0.2682762021563  0.2360919063749 1.0
C      1  0.4004376722739  0.2489950875295  0.2525948152381 1.0
C      1  0.2401599527445  0.4217488479028  0.2863554256101 1.0
C      1  0.3377553766371  0.6239781606682  0.9018463636532 1.0
C      1  0.4820561013022  0.6955239400967  0.9095662775097 1.0
C      1  0.5274304872203  0.6435562211678  0.9579083296074 1.0
C      1  0.5542928176717  0.5760427450640  0.0136646251433 1.0
C      1  0.4868436412473  0.5197495328428  0.0005440915823 1.0
C      1  0.4021101637686  0.4975508473233  0.0002197208954 1.0
C      1  0.3579170072290  0.5561454161411  0.9481131211655 1.0
C      1  0.3855915035197  0.4708893807746  0.2049058861938 1.0
C      1  0.4006860334524  0.5643082412781  0.2224065858933 1.0
C      1  0.4823956576992  0.6149037255814  0.2257326838816 1.0
C      1  0.5719296746478  0.5806226483719  0.2233340509724 1.0
C      1  0.5925767139161  0.4819887473746  0.2442464792509 1.0
C      1  0.5454728747074  0.4053474283433  0.1929813690768 1.0
C      1  0.4496185052523  0.4002199165204  0.1882234157533 1.0
C      1  0.1920700332105  0.4038353857816  0.4474391832648 1.0
C      1  0.2393653352640  0.6499612502644  0.4924763711764 1.0
C      1  0.5051047236648  0.7989297142199  0.4897048889771 1.0
C      1  0.7449180605545  0.7089896309712  0.4552537166103 1.0
C      1  0.8384538246284  0.4327850845853  0.4368654043912 1.0
C      1  0.6726504277606  0.2090214602136  0.3878216834586 1.0
C      1  0.3905935481386  0.1908572590475  0.4105872852278 1.0
C      1  0.7811824630643  0.4492785278152  0.5955384661706 1.0
C      1  0.6470068070960  0.2554386414921  0.5483914039324 1.0
C      1  0.4099756377855  0.2514115669140  0.5675867352427 1.0
C      1  0.2686355264906  0.4049511237152  0.5987805331943 1.0
C      1  0.2953265651569  0.6233338050700  0.6496525413923 1.0
C      1  0.5125346782501  0.7421406711858  0.6489182827647 1.0
C      1  0.7157248554068  0.6481561936318  0.6106590756805 1.0
C      1  0.2539000086712  0.6403740109322  0.5789873858812 1.0
C      1  0.5136828528422  0.7837355054253  0.5760661352535 1.0
C      1  0.7394115754910  0.6868066612410  0.5400644580433 1.0
C      1  0.8224047082546  0.4381365312427  0.5242520360423 1.0
C      1  0.6679213254446  0.2171242366027  0.4720444107222 1.0
C      1  0.3964285415678  0.2092328129635  0.4967944542960 1.0
C      1  0.2190234482769  0.4012664937351  0.5312860234137 1.0
C      1  0.3902891831062  0.2036995217292  0.3278711879225 1.0
C      1  0.2003933279975  0.4077604715047  0.3641363035730 1.0
C      1  0.2468009627905  0.6494472778218  0.4091824700629 1.0
C      1  0.4940083137368  0.7923829549713  0.4068904805735 1.0
C      1  0.7293305084245  0.7046090212737  0.3727734511964 1.0
C      1  0.8157282867729  0.4390179593021  0.3570899466133 1.0
C      1  0.6621468030905  0.2203376866652  0.3025884699397 1.0
C      1  0.4184211335892  0.4496287130706  0.6792660316854 1.0
C      1  0.4288543447023  0.5381484544679  0.7022787460344 1.0
C      1  0.5154032322018  0.5849474478318  0.7052270625138 1.0
C      1  0.5969304096643  0.5464294524417  0.6894374272222 1.0
C      1  0.6263216041677  0.4540848858666  0.6738357479866 1.0
C      1  0.5775694674020  0.3752460455989  0.6546082766926 1.0
C      1  0.4828630678966  0.3771638842409  0.6617480922878 1.0
C      1  0.4166900514734  0.3138549627889  0.2029929699858 1.0
C      1  0.3017462852806  0.4402051130604  0.2337170315940 1.0
C      1  0.3306291785543  0.6092372465836  0.2668235348332 1.0
C      1  0.4738920445592  0.6997978911654  0.2656012195708 1.0
C      1  0.6402411982115  0.6377747923224  0.2464036841827 1.0
C      1  0.6900778905128  0.4672269800870  0.2496501826561 1.0
C      1  0.5929699558777  0.3272563300729  0.1917297821737 1.0
C      1  0.4040446807578  0.6781709462444  0.8554620991980 1.0
C      1  0.5381057809666  0.4667188545502  0.4182903030025 1.0
C      1  0.4069623255268  0.6794834227081  0.7645048075430 1.0
C      1  0.5622524271071  0.4713141744860  0.3373926385079 1.0
END
