TITL C-5887-279-137 -2.036 3375.00 -324.40211385 0 0 41 (C1) n - 1
REM
REM Run started: at 2020.12.18 19:08:26 in /gpfs/home/chem/mssmkc/CARBON/AIRSS/Generating-Clusters/Str-Search/Higher-Symm/C4-100
REM VASP from code version vasp.5.4.4.18Apr17-6-g9f103f2a35 (build Oct 11 2019 16:45:47) gamma-only
REM
REM
REM
REM
REM ./C.cell (6bd13a13d554368a30d355f37ece5b26)
REM AIRSS Version 0.9.1 bugfix July 2018 build 013d7b7c2542+ Fri, 06 Jul 2018 19:26:36 +0100
REM compiler GCC version 6.3.0
REM options -cpp -iprefix /gpfs/warwick/csc/orac/software/Core/GCCcore/6.3.0/bin/../lib/gcc/x86_64-pc-linux-gnu/6.3.0/ -mtune=generic -march=x86-64 -g -O0
REM seed -796515179 -656055398 999132297 607190937 1895061034 858213159 1488126054 138694960 -1585754190 -26787536 1463901988 838256117
REM
REM C.POTCAR (d86ddea03c3ceb6dc662c8ad6801f873)
REM 
CELL 1.54180   15.00000   15.00000   15.00000   90.00000   90.00000   90.00000
LATT -1
SFAC C  
C      1  0.4898859780539  0.6919944816155  0.6056384570787 1.0
C      1  0.5176273818254  0.3325607012533  0.4083905106929 1.0
C      1  0.4915948003532  0.6941824558949  0.3997154973259 1.0
C      1  0.5191386419599  0.3295522301512  0.5937519353168 1.0
C      1  0.4941585530752  0.6092725904502  0.3554618216609 1.0
C      1  0.5071277893104  0.4029873051008  0.6495856755923 1.0
C      1  0.4917587291282  0.6062669549930  0.6482345918265 1.0
C      1  0.5067667827848  0.4071262489309  0.3536755499872 1.0
C      1  0.6037789421039  0.3415064563884  0.5478343702335 1.0
C      1  0.5651073576249  0.7026672388114  0.4547399315539 1.0
C      1  0.6031056540279  0.3420985284175  0.4534516238949 1.0
C      1  0.5640146996607  0.7011936640308  0.5512424140078 1.0
C      1  0.2076581243502  0.4115578253094  0.5335273487651 1.0
C      1  0.1969784515443  0.5760611936526  0.4727817520199 1.0
C      1  0.1980967134021  0.3933501525820  0.4502658347627 1.0
C      1  0.1844170672130  0.5950791847340  0.5555794723246 1.0
C      1  0.4323840190387  0.3840079559575  0.4054821153824 1.0
C      1  0.4126853187902  0.6347488238001  0.6067392932033 1.0
C      1  0.4322223656071  0.3781749361462  0.5989546928573 1.0
C      1  0.4142743079726  0.6372285834781  0.3956084627322 1.0
C      1  0.3479191974778  0.6000008369738  0.5472314218078 1.0
C      1  0.3588016690003  0.4082378179192  0.4538110500618 1.0
C      1  0.3482381811080  0.6003192571153  0.4527062584970 1.0
C      1  0.3592518740434  0.4069925007669  0.5519264688936 1.0
C      1  0.2755463901401  0.4526349699129  0.5859239763507 1.0
C      1  0.2680812266523  0.5450730197628  0.4189939986434 1.0
C      1  0.2733654946483  0.4509296175187  0.4218883600853 1.0
C      1  0.2667152933551  0.5462536709840  0.5801268446254 1.0
C      1  0.6514250528401  0.4112798553131  0.5969612969732 1.0
C      1  0.6108666652392  0.6155294472458  0.4514010599336 1.0
C      1  0.6513184772494  0.4119993931180  0.4050713263006 1.0
C      1  0.6099809755137  0.6144027344209  0.5537704629809 1.0
C      1  0.8277402910647  0.4602816232276  0.5956211539120 1.0
C      1  0.7422262261553  0.4349529645956  0.4193482640850 1.0
C      1  0.8302475827336  0.4497771576318  0.4066577239823 1.0
C      1  0.7414277241211  0.4373001794208  0.5827431013702 1.0
C      1  0.5834041845925  0.4640497561076  0.6388361661621 1.0
C      1  0.5722435797808  0.5583548501016  0.3817407471099 1.0
C      1  0.5843192759455  0.4664933667564  0.3640800716304 1.0
C      1  0.5703338909016  0.5558191615650  0.6220195011997 1.0
C      1  0.7963597696107  0.4481383078446  0.5010669941762 1.0
END
