TITL C-5887-279-171 -1.724 3375.00 -258.45477600 0 0 32 (Oh) n - 1
REM
REM Run started: at 2020.12.19 00:41:07 in /gpfs/home/chem/mssmkc/CARBON/AIRSS/Generating-Clusters/Str-Search/Higher-Symm/C4-100
REM VASP from code version vasp.5.4.4.18Apr17-6-g9f103f2a35 (build Oct 11 2019 16:45:47) gamma-only
REM
REM
REM
REM
REM ./C.cell (6bd13a13d554368a30d355f37ece5b26)
REM AIRSS Version 0.9.1 bugfix July 2018 build 013d7b7c2542+ Fri, 06 Jul 2018 19:26:36 +0100
REM compiler GCC version 6.3.0
REM options -cpp -iprefix /gpfs/warwick/csc/orac/software/Core/GCCcore/6.3.0/bin/../lib/gcc/x86_64-pc-linux-gnu/6.3.0/ -mtune=generic -march=x86-64 -g -O0
REM seed -1430750021 -497395210 -994040973 -1602744059 891181559 1538345985 -1718681863 433282403 1577440860 694580690 -779290902 998135021
REM
REM C.POTCAR (d86ddea03c3ceb6dc662c8ad6801f873)
REM 
CELL 1.54180   15.00000   15.00000   15.00000   90.00000   90.00000   90.00000
LATT -1
SFAC C  
C      1  0.6501862419768  0.5444565943735  0.3443853600392 1.0
C      1  0.5372617065791  0.3478385488768  0.6536792313725 1.0
C      1  0.3415924553646  0.6572596593943  0.5404476396469 1.0
C      1  0.3421081453608  0.4618262777848  0.3443139327836 1.0
C      1  0.6499476470264  0.4618737574605  0.6540973941960 1.0
C      1  0.3418515946170  0.5444536129894  0.6542713973521 1.0
C      1  0.4547937448533  0.6579890946426  0.6537143643701 1.0
C      1  0.5373032539121  0.6580354803166  0.3450117493675 1.0
C      1  0.4547979790435  0.3477382331286  0.3444932312901 1.0
C      1  0.6508068349422  0.3488791310666  0.5403900164874 1.0
C      1  0.3416124191705  0.3488178301674  0.4578912285901 1.0
C      1  0.6512555248343  0.6575486022549  0.4578391827268 1.0
C      1  0.6503498093426  0.5444543230655  0.6541572235237 1.0
C      1  0.5373248990396  0.3478121113548  0.3447354655192 1.0
C      1  0.3415033269096  0.6573327655633  0.4578717062676 1.0
C      1  0.3419935802433  0.4618878670591  0.6541945476465 1.0
C      1  0.6498865182788  0.4619197020232  0.3444259603306 1.0
C      1  0.3419267848517  0.5443800439170  0.3442407316259 1.0
C      1  0.4547684998007  0.6580186656733  0.3446492682458 1.0
C      1  0.5373514859106  0.6580076348082  0.6534430796332 1.0
C      1  0.4547159411467  0.3478244355763  0.6539149425479 1.0
C      1  0.6509363084736  0.3487466725392  0.4578192018882 1.0
C      1  0.3416638962472  0.3488972616394  0.5404550534411 1.0
C      1  0.6512358148489  0.6574977855947  0.5404448007562 1.0
C      1  0.3706650246839  0.6286064634071  0.3735767014167 1.0
C      1  0.6214742747473  0.3775088006339  0.3736035498032 1.0
C      1  0.6214580825803  0.3774594066008  0.6247294235695 1.0
C      1  0.3706644528436  0.6286287479051  0.6247973293234 1.0
C      1  0.3706741154207  0.3775434688337  0.6248798318958 1.0
C      1  0.6217257647197  0.6287399417270  0.6247149312100 1.0
C      1  0.3707412759820  0.3774363096558  0.3735208177380 1.0
C      1  0.6216405962487  0.6287419699665  0.3736699053954 1.0
END
