TITL C-5887-279-232 -1.336 3375.00 -223.58217993 0 0 28 (C1) n - 1
REM
REM Run started: at 2020.12.19 13:58:07 in /gpfs/home/chem/mssmkc/CARBON/AIRSS/Generating-Clusters/Str-Search/Higher-Symm/C4-100
REM VASP from code version vasp.5.4.4.18Apr17-6-g9f103f2a35 (build Oct 11 2019 16:45:47) gamma-only
REM
REM
REM
REM
REM ./C.cell (6bd13a13d554368a30d355f37ece5b26)
REM AIRSS Version 0.9.1 bugfix July 2018 build 013d7b7c2542+ Fri, 06 Jul 2018 19:26:36 +0100
REM compiler GCC version 6.3.0
REM options -cpp -iprefix /gpfs/warwick/csc/orac/software/Core/GCCcore/6.3.0/bin/../lib/gcc/x86_64-pc-linux-gnu/6.3.0/ -mtune=generic -march=x86-64 -g -O0
REM seed -710547577 578226023 1765601669 1638990685 1076328123 1103021705 -366355233 -1682649400 1486247830 -1614505766 710447531 854798686
REM
REM C.POTCAR (d86ddea03c3ceb6dc662c8ad6801f873)
REM 
CELL 1.54180   15.00000   15.00000   15.00000   90.00000   90.00000   90.00000
LATT -1
SFAC C  
C      1  0.3656919980417  0.5127149907445  0.6357294600733 1.0
C      1  0.3918004488588  0.4188910188313  0.6295405559551 1.0
C      1  0.4074703582189  0.3624796714053  0.5558790313135 1.0
C      1  0.4084762148611  0.3734506799366  0.4562904027266 1.0
C      1  0.3955637910497  0.4301871897600  0.3824944500041 1.0
C      1  0.3850844944113  0.5270998700710  0.3590673517403 1.0
C      1  0.3848790281684  0.6077355624806  0.4048071985507 1.0
C      1  0.3881249374447  0.6308566016855  0.4989662554418 1.0
C      1  0.3886927851908  0.5910181315898  0.5821769591184 1.0
C      1  0.5974843758363  0.4915194982858  0.5916955276988 1.0
C      1  0.5585574058230  0.4254739401914  0.6567334500239 1.0
C      1  0.5725511944614  0.3547700776760  0.5952931520863 1.0
C      1  0.5766845780404  0.3976424707124  0.4429878436331 1.0
C      1  0.5609235199148  0.4466994418511  0.3647544024853 1.0
C      1  0.5558355469993  0.5409568843416  0.3425321825105 1.0
C      1  0.5540952180316  0.6154766605452  0.3971875996854 1.0
C      1  0.5558743402624  0.6319183554088  0.4954446351396 1.0
C      1  0.5579147965919  0.5779867188900  0.5747765694641 1.0
C      1  0.5007057072297  0.3390543529257  0.4642745746006 1.0
C      1  0.4741213229813  0.4295526146313  0.3214503673079 1.0
C      1  0.4655883720343  0.5211104381867  0.2988890943570 1.0
C      1  0.4678421149695  0.6675745184439  0.3866079710091 1.0
C      1  0.4712897244086  0.6790801536104  0.4809366413078 1.0
C      1  0.4763384824004  0.5921985015884  0.6298610115847 1.0
C      1  0.4440403918423  0.5277695924032  0.6924126633916 1.0
C      1  0.4720655959917  0.4379055000878  0.6922047903574 1.0
C      1  0.4961626897253  0.3142622714409  0.5555405914257 1.0
C      1  0.6135355662103  0.4158327922748  0.5297220670076 1.0
END
