TITL C-5887-279-222 -4.151 3375.00 -667.77248776 0 0 81 (C3h) n - 1
REM
REM Run started: at 2020.12.19 11:27:06 in /gpfs/home/chem/mssmkc/CARBON/AIRSS/Generating-Clusters/Str-Search/Higher-Symm/C4-100
REM VASP from code version vasp.5.4.4.18Apr17-6-g9f103f2a35 (build Oct 11 2019 16:45:47) gamma-only
REM
REM
REM
REM
REM ./C.cell (6bd13a13d554368a30d355f37ece5b26)
REM AIRSS Version 0.9.1 bugfix July 2018 build 013d7b7c2542+ Fri, 06 Jul 2018 19:26:36 +0100
REM compiler GCC version 6.3.0
REM options -cpp -iprefix /gpfs/warwick/csc/orac/software/Core/GCCcore/6.3.0/bin/../lib/gcc/x86_64-pc-linux-gnu/6.3.0/ -mtune=generic -march=x86-64 -g -O0
REM seed 1241729395 1840345310 -1775622583 -1273324846 -1582574540 -1945984638 682506195 -363625576 -1457244217 -1720433876 2034228408 -1371806829
REM
REM C.POTCAR (d86ddea03c3ceb6dc662c8ad6801f873)
REM 
CELL 1.54180   15.00000   15.00000   15.00000   90.00000   90.00000   90.00000
LATT -1
SFAC C  
C      1  0.4521910182304  0.3713547876667  0.8224299618777 1.0
C      1  0.4121573853277  0.6061254635860  0.8231567704995 1.0
C      1  0.6354846018594  0.5226839698602  0.8227585871746 1.0
C      1  0.4518064732300  0.3717799123162  0.1811650374501 1.0
C      1  0.4130165664361  0.6065378643646  0.1805547794962 1.0
C      1  0.6355566242123  0.5219893038702  0.1808340279490 1.0
C      1  0.6813430482542  0.5508549731981  0.2450292086892 1.0
C      1  0.4538871916757  0.3169142199717  0.2447870533569 1.0
C      1  0.3646231925764  0.6314883183823  0.2445533658253 1.0
C      1  0.6812269984312  0.5513855867857  0.7584286064228 1.0
C      1  0.4542150485972  0.3166264643279  0.7586550433417 1.0
C      1  0.3640752066885  0.6310655268944  0.7588948148522 1.0
C      1  0.2969271811072  0.3614053581756  0.6182607733037 1.0
C      1  0.4815107515631  0.7459774369281  0.6185992321226 1.0
C      1  0.7214589650877  0.3929896697428  0.6179087608305 1.0
C      1  0.2967955519449  0.3616027444994  0.3849265371784 1.0
C      1  0.4817153399422  0.7460800519022  0.3848391195454 1.0
C      1  0.7215321344666  0.3928473967869  0.3852936264784 1.0
C      1  0.5845746175134  0.6230780667469  0.6635868998596 1.0
C      1  0.5637743392216  0.3648698572220  0.6631477087223 1.0
C      1  0.3512519771955  0.5122469514182  0.6633795943895 1.0
C      1  0.5846597837181  0.6230163227933  0.3396619576529 1.0
C      1  0.5637490730788  0.3649412634835  0.3400924295996 1.0
C      1  0.3513128720345  0.5124129312626  0.3397942427438 1.0
C      1  0.5685290573999  0.7121878286590  0.3738199569944 1.0
C      1  0.6490512566242  0.3343155176503  0.3741425016200 1.0
C      1  0.2822817055546  0.4537328549515  0.3738507932594 1.0
C      1  0.5683877417744  0.7121431047782  0.6291244649022 1.0
C      1  0.6490273854124  0.3343805387967  0.6287607086719 1.0
C      1  0.2823889086837  0.4535523930094  0.6289364517476 1.0
C      1  0.4779009498062  0.4492703260431  0.1403857881311 1.0
C      1  0.4670756226931  0.5449761208727  0.1401393775185 1.0
C      1  0.5552575021761  0.5063965354730  0.1401184334019 1.0
C      1  0.4780670077979  0.4491050996438  0.8627916481912 1.0
C      1  0.4666996226378  0.5446840668167  0.8631527596223 1.0
C      1  0.5550962863774  0.5066387886320  0.8631537314698 1.0
C      1  0.7657878329582  0.4565054593672  0.5913816302362 1.0
C      1  0.3299239720824  0.2914929419422  0.5913212900525 1.0
C      1  0.4045255947907  0.7524650261763  0.5915417951608 1.0
C      1  0.7659051749865  0.4564591402135  0.4114067984600 1.0
C      1  0.3299311483592  0.2916618293833  0.4115473729229 1.0
C      1  0.4045749443345  0.7525113925964  0.4114389107008 1.0
C      1  0.5272028715710  0.5477521519111  0.3398687710871 1.0
C      1  0.5277289292453  0.4525705630726  0.3399831982100 1.0
C      1  0.4450859609082  0.4997807704262  0.3398898826338 1.0
C      1  0.5271540946910  0.5477504890811  0.6636646718153 1.0
C      1  0.5277481551329  0.4525292831032  0.6635189729176 1.0
C      1  0.4450711652576  0.4996982903986  0.6636529652141 1.0
C      1  0.3975415077627  0.2411417696132  0.5497156554413 1.0
C      1  0.3273473559071  0.7187375347073  0.5497746734819 1.0
C      1  0.7752325347930  0.5402367241854  0.5496860106467 1.0
C      1  0.3974848903227  0.2411903841613  0.4530925507311 1.0
C      1  0.3273603598143  0.7188349864423  0.4531213580743 1.0
C      1  0.7753306986048  0.5401933144961  0.4531042867730 1.0
C      1  0.3266119265049  0.6069818381692  0.3256712906362 1.0
C      1  0.6788160348161  0.5968266724283  0.3257883709346 1.0
C      1  0.4945337787051  0.2961579963289  0.3257461573213 1.0
C      1  0.3264726586841  0.6068262209174  0.6774509786667 1.0
C      1  0.6787766971116  0.5968914668700  0.6773637229355 1.0
C      1  0.4945783531389  0.2960139854158  0.6774023930515 1.0
C      1  0.6377886762674  0.7490232044646  0.4274854214181 1.0
C      1  0.6466923889595  0.2556951303768  0.4274866322445 1.0
C      1  0.2156985522336  0.4951936280670  0.4274528118868 1.0
C      1  0.6374645138559  0.7489263803829  0.5751587732370 1.0
C      1  0.6467146210968  0.2558589144582  0.5752587249934 1.0
C      1  0.2159091677612  0.4949449077370  0.5751360590448 1.0
C      1  0.5583970227278  0.2231002742834  0.4538649983166 1.0
C      1  0.2321447111062  0.5878862613143  0.4539326682329 1.0
C      1  0.7095911860293  0.6881709033813  0.4539791016330 1.0
C      1  0.5583960150347  0.2232402854450  0.5488726561353 1.0
C      1  0.2322802367270  0.5877275024231  0.5487601741194 1.0
C      1  0.7093550014060  0.6880887879612  0.5487551865042 1.0
C      1  0.7346679642458  0.6128313514778  0.5987059967658 1.0
C      1  0.4806674486942  0.2392315192195  0.5987699649551 1.0
C      1  0.2845918504818  0.6473454891624  0.5987661890218 1.0
C      1  0.7348710869795  0.6128689332671  0.4042105649779 1.0
C      1  0.4806114955560  0.2391857207765  0.4041564870344 1.0
C      1  0.2845159187506  0.6475444556308  0.4041440684882 1.0
C      1  0.1856418937097  0.4423700440107  0.5012407011452 1.0
C      1  0.6073911186439  0.8016664008575  0.5012822441455 1.0
C      1  0.7072732999200  0.2562324563843  0.5013394127026 1.0
END
