TITL C-59724-1992-16 -3.421 3375.00 -597.92907822 0 0 72 (C1) n - 1
REM
REM Run started: at 2020.11.27 10:54:12 in /rds/project/t2_vol4/rds-t2-cs072/BORA/CARBON/AIRSS/Generating-Clusters/Str-Search/Higher-Symm/C10-100
REM VASP from code version vasp.5.4.4.18Apr17-6-g9f103f2a35 (build Oct 11 2019 16:45:47) gamma-only
REM
REM
REM
REM
REM ./C.cell (f39ce9773e2efe3fa5bbdf770a4156b8)
REM AIRSS Version 0.9.1 bugfix July 2018 build 013d7b7c2542+ Fri, 06 Jul 2018 19:26:36 +0100
REM compiler GCC version 4.8.5 20150623 (Red Hat 4.8.5-39)
REM options -cpp -mtune=generic -march=x86-64 -g -O0
REM seed -1625985908 -472535711 -554994734 1036124989 -400377826 -1237108804 -1388378452 52085801 1148242630 -1806455935 -1873214523 264422604
REM
REM C.POTCAR (d86ddea03c3ceb6dc662c8ad6801f873)
REM 
CELL 1.54180   15.00000   15.00000   15.00000   90.00000   90.00000   90.00000
LATT -1
SFAC C  
C      1  0.3939621735391  0.5716078135237  0.2689655997620 1.0
C      1  0.3924067259087  0.7151106621688  0.4014235537705 1.0
C      1  0.3935434973944  0.7044291238121  0.6256200589426 1.0
C      1  0.3889478907399  0.5520219475229  0.7451982163799 1.0
C      1  0.3936005619071  0.3327065788182  0.6807856693689 1.0
C      1  0.3990940018173  0.2552981860017  0.4943353122084 1.0
C      1  0.3905294997596  0.3529367065762  0.2922357281320 1.0
C      1  0.2752915802346  0.5124943234357  0.6124832327074 1.0
C      1  0.2759738989233  0.4237128287284  0.5854835202155 1.0
C      1  0.2746919132044  0.3850379006965  0.4941603710476 1.0
C      1  0.2764182603469  0.4269435725101  0.4078272387590 1.0
C      1  0.2726477464349  0.5221109285356  0.3941061074595 1.0
C      1  0.2790189289229  0.5935409572417  0.4609487229535 1.0
C      1  0.2780739152039  0.5911902973694  0.5535978931288 1.0
C      1  0.3237596576054  0.6434171119743  0.6220271983382 1.0
C      1  0.3217953339399  0.5640659196412  0.6824850451927 1.0
C      1  0.3245951941392  0.3458658201118  0.6191642214825 1.0
C      1  0.3265591218180  0.3070795728368  0.5260492003843 1.0
C      1  0.3248094171178  0.3822788506972  0.3420996601245 1.0
C      1  0.3232911707975  0.5785329061432  0.3305531349327 1.0
C      1  0.3254636804345  0.6517786120673  0.3974360600702 1.0
C      1  0.4656155219735  0.6392045169476  0.2746687019535 1.0
C      1  0.4581819401164  0.7444206780873  0.4696990277054 1.0
C      1  0.4655159685858  0.6917752201002  0.6909854006902 1.0
C      1  0.4552842729672  0.4793746463198  0.7606213547516 1.0
C      1  0.4712714946922  0.2893614773392  0.6407162726132 1.0
C      1  0.4674543286215  0.2662998625106  0.4208656643911 1.0
C      1  0.4610350847690  0.4126991502059  0.2519502285534 1.0
C      1  0.7388691850855  0.4029737009996  0.4228096766489 1.0
C      1  0.7263271625933  0.4866002929130  0.3762097493886 1.0
C      1  0.7225723413969  0.5750404311797  0.4159998400559 1.0
C      1  0.7169813366360  0.6009647342923  0.5079699917359 1.0
C      1  0.7240530879436  0.5681363894557  0.5991050029310 1.0
C      1  0.7279123628543  0.4757066032750  0.6283758245658 1.0
C      1  0.7406180697123  0.3994481407152  0.5700635512883 1.0
C      1  0.6164609134012  0.3714310785268  0.6608273281684 1.0
C      1  0.6258905382443  0.3047365463614  0.4927705521599 1.0
C      1  0.6003255533278  0.4018644848153  0.3477134460042 1.0
C      1  0.6175843959770  0.5661026854226  0.2950334483085 1.0
C      1  0.6144560077133  0.6925113788031  0.4182735842487 1.0
C      1  0.6189505389129  0.6908806555349  0.6075843035551 1.0
C      1  0.5995543367383  0.5426631795591  0.6917555580863 1.0
C      1  0.5293605960283  0.3576740004656  0.2930092393365 1.0
C      1  0.5325350342930  0.5730784295680  0.2554858804609 1.0
C      1  0.5305790144481  0.7317529386637  0.4039514371702 1.0
C      1  0.5317592881451  0.7230503611232  0.6266341873931 1.0
C      1  0.5260443683554  0.5471388837091  0.7588607388298 1.0
C      1  0.5334456960149  0.3423495461967  0.6927195403193 1.0
C      1  0.5413340465890  0.2581575638420  0.4866741282770 1.0
C      1  0.6371709795300  0.6620184830972  0.5121518669538 1.0
C      1  0.6608465723027  0.6176050883991  0.6546653083104 1.0
C      1  0.6535510436881  0.4580142333100  0.6826246863937 1.0
C      1  0.6619072978974  0.3427036278668  0.5758988989744 1.0
C      1  0.6607349829492  0.3507370126061  0.4138718496649 1.0
C      1  0.6561209935512  0.4797546427891  0.3139055315154 1.0
C      1  0.6574490592166  0.6266783671302  0.3633010480584 1.0
C      1  0.5446207864340  0.5405021943181  0.6018349125467 1.0
C      1  0.4681319394639  0.4865291182648  0.5857476058414 1.0
C      1  0.4718570678181  0.3994924161668  0.5521915640625 1.0
C      1  0.4661110461140  0.4112453531700  0.4603041865203 1.0
C      1  0.5347551768570  0.4530499909297  0.4087513508883 1.0
C      1  0.5191373789719  0.5386928512760  0.4496142030666 1.0
C      1  0.5685603522062  0.5806837138890  0.5205719337218 1.0
C      1  0.4747697461147  0.2481141070553  0.5559216862838 1.0
C      1  0.4655563997564  0.2976871204189  0.3317443345683 1.0
C      1  0.4604336830168  0.5048379632065  0.2412326501423 1.0
C      1  0.4653051289249  0.7074677463985  0.3365299424236 1.0
C      1  0.4590097466089  0.7406476035348  0.5616795890465 1.0
C      1  0.4619782328161  0.6177908952671  0.7478091216620 1.0
C      1  0.4569898093189  0.3900262868203  0.7330100834654 1.0
C      1  0.7971018344624  0.4031283007523  0.4967915141843 1.0
C      1  0.4385363856554  0.5064136859884  0.4947149267535 1.0
END
