TITL C-59724-1992-22 -1.789 3375.00 -283.67553278 0 0 36 (C5) n - 1
REM
REM Run started: at 2020.11.27 12:25:40 in /rds/project/t2_vol4/rds-t2-cs072/BORA/CARBON/AIRSS/Generating-Clusters/Str-Search/Higher-Symm/C10-100
REM VASP from code version vasp.5.4.4.18Apr17-6-g9f103f2a35 (build Oct 11 2019 16:45:47) gamma-only
REM
REM
REM
REM
REM ./C.cell (f39ce9773e2efe3fa5bbdf770a4156b8)
REM AIRSS Version 0.9.1 bugfix July 2018 build 013d7b7c2542+ Fri, 06 Jul 2018 19:26:36 +0100
REM compiler GCC version 4.8.5 20150623 (Red Hat 4.8.5-39)
REM options -cpp -mtune=generic -march=x86-64 -g -O0
REM seed -1118058882 -1658502392 -1702835043 -2122123999 114343912 -1562316762 726393920 652936281 -322299340 -1906586588 -905282730 -128913792
REM
REM C.POTCAR (d86ddea03c3ceb6dc662c8ad6801f873)
REM 
CELL 1.54180   15.00000   15.00000   15.00000   90.00000   90.00000   90.00000
LATT -1
SFAC C  
C      1  0.5362601218538  0.6318449034375  0.3195172679988 1.0
C      1  0.5363304788076  0.3677384058466  0.3213049754101 1.0
C      1  0.5368654662215  0.2876248274453  0.5730977768033 1.0
C      1  0.5370743947927  0.5003999620695  0.7264428493421 1.0
C      1  0.5368980918273  0.7148581377820  0.5716292768294 1.0
C      1  0.6124974566780  0.6694048053522  0.5429623745593 1.0
C      1  0.6123218335697  0.5918537392112  0.3545295336085 1.0
C      1  0.6123842287934  0.3888327008704  0.3700963111896 1.0
C      1  0.6127519047847  0.3408009270632  0.5679035406468 1.0
C      1  0.6129937268363  0.5133765657894  0.6747551926466 1.0
C      1  0.3428207720790  0.5584956619832  0.4424460431764 1.0
C      1  0.3430148425959  0.4620493436973  0.4290368143346 1.0
C      1  0.3431591232181  0.4192130529151  0.5165772853969 1.0
C      1  0.3431832620207  0.4892124371004  0.5841248759128 1.0
C      1  0.3434182476806  0.5752693901173  0.5384088568084 1.0
C      1  0.4492843923668  0.6388327976401  0.3452878455783 1.0
C      1  0.4492901037070  0.3941492940102  0.3227933930578 1.0
C      1  0.4498043161477  0.2971832451179  0.5483081482413 1.0
C      1  0.4501065380164  0.4800957428892  0.7093754170055 1.0
C      1  0.4501215551234  0.6917874123591  0.5869935015042 1.0
C      1  0.6149320581566  0.2645972958343  0.6239991692711 1.0
C      1  0.6145530080311  0.5419596131011  0.7649952008244 1.0
C      1  0.6130188089226  0.7641353158441  0.5402884005356 1.0
C      1  0.6137912669958  0.6201851816394  0.2642474839135 1.0
C      1  0.6139253720037  0.3116424260506  0.3153311385854 1.0
C      1  0.3751475021747  0.4792087942136  0.6733696850581 1.0
C      1  0.3755706890020  0.6567903185903  0.5759077020895 1.0
C      1  0.3746105947603  0.6188143973323  0.3758535905045 1.0
C      1  0.3746096611570  0.4172939190374  0.3510131846709 1.0
C      1  0.3750958795028  0.3311793665588  0.5349402864110 1.0
C      1  0.6385788748072  0.4493249467431  0.4392116941733 1.0
C      1  0.6386887968031  0.4253717117774  0.5317705380196 1.0
C      1  0.6387335090441  0.5059666555953  0.5830704075598 1.0
C      1  0.6386003610488  0.5798349324833  0.5222997175035 1.0
C      1  0.6385938032762  0.5447466481258  0.4333491857668 1.0
C      1  0.4265553571933  0.5006739243761  0.5020954350622 1.0
END
