TITL C-59724-1992-15 -4.772 3375.00 -815.84395302 0 0 100 (C4v) n - 1
REM
REM Run started: at 2020.11.27 10:38:31 in /rds/project/t2_vol4/rds-t2-cs072/BORA/CARBON/AIRSS/Generating-Clusters/Str-Search/Higher-Symm/C10-100
REM VASP from code version vasp.5.4.4.18Apr17-6-g9f103f2a35 (build Oct 11 2019 16:45:47) gamma-only
REM
REM
REM
REM
REM ./C.cell (f39ce9773e2efe3fa5bbdf770a4156b8)
REM AIRSS Version 0.9.1 bugfix July 2018 build 013d7b7c2542+ Fri, 06 Jul 2018 19:26:36 +0100
REM compiler GCC version 4.8.5 20150623 (Red Hat 4.8.5-39)
REM options -cpp -mtune=generic -march=x86-64 -g -O0
REM seed -1106328081 454188042 1223687939 456311736 654301031 -1708996431 1099180773 -508881047 1347364757 1723130941 1836560332 1520672396
REM
REM C.POTCAR (d86ddea03c3ceb6dc662c8ad6801f873)
REM 
CELL 1.54180   15.00000   15.00000   15.00000   90.00000   90.00000   90.00000
LATT -1
SFAC C  
C      1  0.7825011068809  0.5842897758126  0.4008927417283 1.0
C      1  0.4008936030670  0.5842911429355  0.2174997800816 1.0
C      1  0.2175018802692  0.5842914656436  0.5991065892653 1.0
C      1  0.5991067026396  0.5842933819773  0.7824979151816 1.0
C      1  0.2174981916015  0.5842912615362  0.4008939219420 1.0
C      1  0.5991061349523  0.5842880474092  0.2175009754021 1.0
C      1  0.7824988898902  0.5842949386654  0.5991051868781 1.0
C      1  0.4008931666817  0.5842917500211  0.7824997585526 1.0
C      1  0.2765026821158  0.3805918258712  0.6597674450336 1.0
C      1  0.6597702067306  0.3805906914302  0.7235001614123 1.0
C      1  0.7234951967807  0.3805890497750  0.3402316931893 1.0
C      1  0.3402297451705  0.3805863486773  0.2764999416196 1.0
C      1  0.7234991319843  0.3805922536817  0.6597685878947 1.0
C      1  0.3402311702583  0.3805910729351  0.7234988968894 1.0
C      1  0.2765024365791  0.3805878037029  0.3402305709843 1.0
C      1  0.6597678492783  0.3805874736704  0.2765016723164 1.0
C      1  0.2551437133242  0.5773976446503  0.3136412014610 1.0
C      1  0.3136484533121  0.5773908401221  0.7448560522407 1.0
C      1  0.7448544034546  0.5773970527824  0.6863555575378 1.0
C      1  0.6863509069254  0.5773889922645  0.2551439655675 1.0
C      1  0.7448571877187  0.5773920513695  0.3136489908084 1.0
C      1  0.6863572170148  0.5773972690014  0.7448522793389 1.0
C      1  0.2551449292937  0.5773899300578  0.6863510613776 1.0
C      1  0.3136413704454  0.5773961887018  0.2551443101885 1.0
C      1  0.6088079023933  0.6259011223277  0.5453281326783 1.0
C      1  0.5453291988353  0.6259022463804  0.3911919693469 1.0
C      1  0.3911935500853  0.6259025302569  0.4546694464135 1.0
C      1  0.4546718512172  0.6258998807938  0.6088054333275 1.0
C      1  0.3911928016346  0.6258995945164  0.5453283320161 1.0
C      1  0.4546716340207  0.6259015993607  0.3911917133422 1.0
C      1  0.6088075456648  0.6259020645624  0.4546693995342 1.0
C      1  0.5453290276253  0.6259013884968  0.6088051819732 1.0
C      1  0.4531331459790  0.7790896293436  0.3852712528099 1.0
C      1  0.3852710973947  0.7790894190623  0.5468674860765 1.0
C      1  0.5468669429841  0.7790902657030  0.6147260636312 1.0
C      1  0.6147278171722  0.7790894593841  0.4531305251965 1.0
C      1  0.5468679749852  0.7790897891196  0.3852701454307 1.0
C      1  0.6147277553439  0.7790894892270  0.5468656066317 1.0
C      1  0.4531316248902  0.7790888794751  0.6147267904379 1.0
C      1  0.3852727295547  0.7790905244022  0.4531320452334 1.0
C      1  0.5492152894901  0.6602323404766  0.7527771024537 1.0
C      1  0.7527783661316  0.6602299972005  0.4507811756597 1.0
C      1  0.4507852818034  0.6602300389452  0.2472214426470 1.0
C      1  0.2472235129988  0.6602310940062  0.5492179230467 1.0
C      1  0.4507821504523  0.6602311100381  0.7527774694783 1.0
C      1  0.2472215249998  0.6602301280511  0.4507850023932 1.0
C      1  0.5492178268556  0.6602279512602  0.2472223000846 1.0
C      1  0.7527782335028  0.6602340337535  0.5492143122923 1.0
C      1  0.3328748364446  0.7016172749896  0.5864883963368 1.0
C      1  0.5864861824612  0.7016168116788  0.6671251188815 1.0
C      1  0.6671271950814  0.7016159141189  0.4135089107341 1.0
C      1  0.4135134747311  0.7016176455397  0.3328712278077 1.0
C      1  0.6671267847224  0.7016186953199  0.5864854185110 1.0
C      1  0.4135110444905  0.7016151389961  0.6671242283941 1.0
C      1  0.3328725452786  0.7016163314945  0.4135123857296 1.0
C      1  0.5864889928928  0.7016173235522  0.3328717293174 1.0
C      1  0.6150114134898  0.2182135989976  0.5494455771997 1.0
C      1  0.5494442555251  0.2182112036806  0.3849909714535 1.0
C      1  0.3849885975905  0.2182120936162  0.4505584833381 1.0
C      1  0.4505579925884  0.2182128420493  0.6150160136510 1.0
C      1  0.3849889986419  0.2182131296447  0.5494456414808 1.0
C      1  0.4505552884838  0.2182111640313  0.3849906281477 1.0
C      1  0.6150111561969  0.2182126995016  0.4505583419295 1.0
C      1  0.5494424758205  0.2182128935323  0.6150161063763 1.0
C      1  0.7539359591350  0.3203588285923  0.5965394057906 1.0
C      1  0.5965391298098  0.3203498321794  0.2460642655479 1.0
C      1  0.2460636749750  0.3203546903645  0.4034603021868 1.0
C      1  0.4034596348855  0.3203555386508  0.7539400200849 1.0
C      1  0.2460660395915  0.3203574361510  0.5965411113963 1.0
C      1  0.4034603431101  0.3203507027174  0.2460631474543 1.0
C      1  0.7539341706287  0.3203555811317  0.4034589102411 1.0
C      1  0.5965405249717  0.3203563479760  0.7539407857012 1.0
C      1  0.7598179039349  0.4189796045137  0.5774839955505 1.0
C      1  0.5774845440052  0.4189747630723  0.2401793090156 1.0
C      1  0.2401810643722  0.4189795449795  0.4225116899149 1.0
C      1  0.4225159700766  0.4189795055924  0.7598196358336 1.0
C      1  0.2401835845633  0.4189781714424  0.5774838170376 1.0
C      1  0.4225125194234  0.4189757891063  0.2401788844797 1.0
C      1  0.7598171560560  0.4189798910097  0.4225118001122 1.0
C      1  0.5774853928932  0.4189799251555  0.7598205649309 1.0
C      1  0.5475668491388  0.2555767864050  0.2917395338115 1.0
C      1  0.2917405393317  0.2555794892918  0.4524360127489 1.0
C      1  0.4524329596027  0.2555786447564  0.7082661582162 1.0
C      1  0.7082605553188  0.2555808537382  0.5475689398319 1.0
C      1  0.4524325945954  0.2555770882948  0.2917391772098 1.0
C      1  0.7082588319470  0.2555803031370  0.4524358818923 1.0
C      1  0.5475674419793  0.2555786319382  0.7082664030372 1.0
C      1  0.2917400324243  0.2555796541460  0.5475691039837 1.0
C      1  0.4513060645885  0.5034975644237  0.1958911257840 1.0
C      1  0.1958932269427  0.5035010284454  0.5486921071691 1.0
C      1  0.5486930570038  0.5035025875687  0.8041098008358 1.0
C      1  0.8041093353864  0.5034980451894  0.4513060105011 1.0
C      1  0.5486922782762  0.5034963532012  0.1958908921535 1.0
C      1  0.8041079285274  0.5035031744092  0.5486920655224 1.0
C      1  0.4513071552178  0.5035013085930  0.8041102270905 1.0
C      1  0.1958914992711  0.5034985577946  0.4513067751323 1.0
C      1  0.7030557085562  0.4534612457215  0.5000042741052 1.0
C      1  0.5000009667473  0.4534610316862  0.7030574909516 1.0
C      1  0.2969447241681  0.4534600240591  0.5000025390886 1.0
C      1  0.4999983417212  0.4534542849843  0.2969431473410 1.0
END
