TITL C-59724-1992-32 -1.059 3375.00 -166.80699958 0 0 22 (C4h) n - 1
REM
REM Run started: at 2020.11.27 15:21:10 in /rds/project/t2_vol4/rds-t2-cs072/BORA/CARBON/AIRSS/Generating-Clusters/Str-Search/Higher-Symm/C10-100
REM VASP from code version vasp.5.4.4.18Apr17-6-g9f103f2a35 (build Oct 11 2019 16:45:47) gamma-only
REM
REM
REM
REM
REM ./C.cell (f39ce9773e2efe3fa5bbdf770a4156b8)
REM AIRSS Version 0.9.1 bugfix July 2018 build 013d7b7c2542+ Fri, 06 Jul 2018 19:26:36 +0100
REM compiler GCC version 4.8.5 20150623 (Red Hat 4.8.5-39)
REM options -cpp -mtune=generic -march=x86-64 -g -O0
REM seed -1432250501 1773568459 -1772175358 1340978265 1324498784 -377112630 -20997244 231450505 2110459177 1795391660 947657616 -788450066
REM
REM C.POTCAR (d86ddea03c3ceb6dc662c8ad6801f873)
REM 
CELL 1.54180   15.00000   15.00000   15.00000   90.00000   90.00000   90.00000
LATT -1
SFAC C  
C      1  0.6379159636431  0.4250409127115  0.4474054028736 1.0
C      1  0.6379605294147  0.5569169770261  0.4251088031968 1.0
C      1  0.6379642435393  0.5789560987750  0.5569064699623 1.0
C      1  0.6379527840287  0.4474077391288  0.5789989695283 1.0
C      1  0.3735517492595  0.4250762407349  0.4476150779762 1.0
C      1  0.3734149686064  0.5568818861186  0.4253389011965 1.0
C      1  0.3731901598298  0.5789247516059  0.5571192827852 1.0
C      1  0.3732779240735  0.4473288233069  0.5792238232894 1.0
C      1  0.5891241152446  0.3844164164941  0.5221070786833 1.0
C      1  0.5892070468554  0.4822802943795  0.3845786001507 1.0
C      1  0.5891587255130  0.6197896603046  0.4824398350466 1.0
C      1  0.5891014538774  0.5219256509958  0.6199286068785 1.0
C      1  0.4221552516554  0.3843989180869  0.5223090843446 1.0
C      1  0.4222518897744  0.4822462127873  0.3846788773337 1.0
C      1  0.4220238736367  0.6197658354130  0.4825740996132 1.0
C      1  0.4219313489306  0.5219197280773  0.6200616672899 1.0
C      1  0.5056332996670  0.3514542126438  0.5283367239118 1.0
C      1  0.5055595769191  0.6527759801674  0.4773694338849 1.0
C      1  0.5056108311290  0.4768727117169  0.3514768638424 1.0
C      1  0.5055713166737  0.5277298457207  0.6528108170824 1.0
C      1  0.3253413457530  0.5019306681950  0.5022388360077 1.0
C      1  0.6860698019756  0.5020256356101  0.5021489451220 1.0
END
