TITL C-6063-1373-65 -0.387 3375.00 -62.42517193 0 0 9 (Cs) n - 1
REM
REM Run started: at 2020.12.18 08:16:23 in /gpfs/home/chem/mssmkc/CARBON/AIRSS/Generating-Clusters/Str-Search/Higher-Symm/C4-100
REM VASP from code version vasp.5.4.4.18Apr17-6-g9f103f2a35 (build Oct 11 2019 16:45:47) gamma-only
REM
REM
REM
REM
REM ./C.cell (6bd13a13d554368a30d355f37ece5b26)
REM AIRSS Version 0.9.1 bugfix July 2018 build 013d7b7c2542+ Fri, 06 Jul 2018 19:26:36 +0100
REM compiler GCC version 6.3.0
REM options -cpp -iprefix /gpfs/warwick/csc/orac/software/Core/GCCcore/6.3.0/bin/../lib/gcc/x86_64-pc-linux-gnu/6.3.0/ -mtune=generic -march=x86-64 -g -O0
REM seed -698738911 -1221608208 -1780388497 1269164853 60003347 215781687 -1229580721 434049373 -1208836141 -1580898725 -686316306 1717384225
REM
REM C.POTCAR (d86ddea03c3ceb6dc662c8ad6801f873)
REM 
CELL 1.54180   15.00000   15.00000   15.00000   90.00000   90.00000   90.00000
LATT -1
SFAC C  
C      1  0.5248132989981  0.4349422670955  0.4344896775276 1.0
C      1  0.4444144541991  0.5485946922185  0.4419410206824 1.0
C      1  0.4455631607946  0.4535104709136  0.5500323827700 1.0
C      1  0.4516551252759  0.5568607624498  0.5415557169976 1.0
C      1  0.5486891260371  0.4359810121693  0.5303263883569 1.0
C      1  0.5402573239483  0.5324265619496  0.4228893114645 1.0
C      1  0.5304891644475  0.5759837938854  0.5960133324695 1.0
C      1  0.4306414084717  0.4507607311234  0.4525392647011 1.0
C      1  0.5727705378278  0.5363341081951  0.5174954050304 1.0
END
