TITL C-6063-1373-132 -0.201 3375.00 -25.77525201 0 0 5 (Td) n - 1
REM
REM Run started: at 2020.12.18 20:30:59 in /gpfs/home/chem/mssmkc/CARBON/AIRSS/Generating-Clusters/Str-Search/Higher-Symm/C4-100
REM VASP from code version vasp.5.4.4.18Apr17-6-g9f103f2a35 (build Oct 11 2019 16:45:47) gamma-only
REM
REM
REM
REM
REM ./C.cell (6bd13a13d554368a30d355f37ece5b26)
REM AIRSS Version 0.9.1 bugfix July 2018 build 013d7b7c2542+ Fri, 06 Jul 2018 19:26:36 +0100
REM compiler GCC version 6.3.0
REM options -cpp -iprefix /gpfs/warwick/csc/orac/software/Core/GCCcore/6.3.0/bin/../lib/gcc/x86_64-pc-linux-gnu/6.3.0/ -mtune=generic -march=x86-64 -g -O0
REM seed 1015779895 38450694 1254931338 -86302527 1301919949 -2024532565 792953813 -1331098794 -1706023629 -1638281263 -94399711 -1784884445
REM
REM C.POTCAR (d86ddea03c3ceb6dc662c8ad6801f873)
REM 
CELL 1.54180   15.00000   15.00000   15.00000   90.00000   90.00000   90.00000
LATT -1
SFAC C  
C      1  0.4476366069928  0.5586454784559  0.5596859609409 1.0
C      1  0.5584111514355  0.4479072082486  0.5596979184422 1.0
C      1  0.5583776679853  0.5586040372141  0.4492562475181 1.0
C      1  0.4474848444405  0.4477665022105  0.4490633498801 1.0
C      1  0.5028202291460  0.5030689738710  0.5043110232187 1.0
END
