TITL C-6063-1373-13 -4.628 3375.00 -794.59749610 0 0 96 (C2h) n - 1
REM
REM Run started: at 2020.12.17 20:04:31 in /gpfs/home/chem/mssmkc/CARBON/AIRSS/Generating-Clusters/Str-Search/Higher-Symm/C4-100
REM VASP from code version vasp.5.4.4.18Apr17-6-g9f103f2a35 (build Oct 11 2019 16:45:47) gamma-only
REM
REM
REM
REM
REM ./C.cell (6bd13a13d554368a30d355f37ece5b26)
REM AIRSS Version 0.9.1 bugfix July 2018 build 013d7b7c2542+ Fri, 06 Jul 2018 19:26:36 +0100
REM compiler GCC version 6.3.0
REM options -cpp -iprefix /gpfs/warwick/csc/orac/software/Core/GCCcore/6.3.0/bin/../lib/gcc/x86_64-pc-linux-gnu/6.3.0/ -mtune=generic -march=x86-64 -g -O0
REM seed -1539654191 -1368084165 -2042898055 -186616240 -1060150659 -866769501 563526819 1672659023 -519222894 -1990236272 591966517 712896609
REM
REM C.POTCAR (d86ddea03c3ceb6dc662c8ad6801f873)
REM 
CELL 1.54180   15.00000   15.00000   15.00000   90.00000   90.00000   90.00000
LATT -1
SFAC C  
C      1  0.4875961776029  0.7007499709117  0.3572538493545 1.0
C      1  0.6430857033417  0.7006975488216  0.4910126793585 1.0
C      1  0.5124039885072  0.7007503134662  0.6427465022927 1.0
C      1  0.3569145213948  0.7006980487688  0.5089877030913 1.0
C      1  0.4875957751514  0.2992483515837  0.3572541686908 1.0
C      1  0.6430848841552  0.2993011714831  0.4910119457952 1.0
C      1  0.5124041221240  0.2992488251735  0.6427454429381 1.0
C      1  0.3569146087693  0.2993018391946  0.5089878012341 1.0
C      1  0.4255002808776  0.6223929555929  0.5046236493202 1.0
C      1  0.4948203005413  0.6223290279988  0.4254897129168 1.0
C      1  0.5744996996592  0.6223927318045  0.4953769027237 1.0
C      1  0.5051795818031  0.6223292880409  0.5745108020410 1.0
C      1  0.4255000601802  0.3776066497932  0.5046230623806 1.0
C      1  0.4948216903266  0.3776688146238  0.4254877736790 1.0
C      1  0.5745001065820  0.3776064538874  0.4953764605177 1.0
C      1  0.5051794662062  0.3776698876361  0.5745111309922 1.0
C      1  0.4258851720572  0.3798315048154  0.2312941087223 1.0
C      1  0.7680869368849  0.3795273421284  0.4262557503733 1.0
C      1  0.5741147289293  0.3798313073814  0.7687056731618 1.0
C      1  0.2319124703280  0.3795279028720  0.5737431615579 1.0
C      1  0.4258849258590  0.6201698178971  0.2312951635626 1.0
C      1  0.7680858710909  0.6204724770615  0.4262555385734 1.0
C      1  0.5741151577900  0.6201696869775  0.7687051734439 1.0
C      1  0.2319139049214  0.6204733526455  0.5737447947667 1.0
C      1  0.4448697612917  0.5412089069824  0.8212687345844 1.0
C      1  0.1768275917132  0.5412162209826  0.4453310938939 1.0
C      1  0.5551301549932  0.5412089135441  0.1787314591530 1.0
C      1  0.8231723283668  0.5412152505628  0.5546691396544 1.0
C      1  0.4448697520766  0.4587906005239  0.8212684347476 1.0
C      1  0.1768271459175  0.4587851706777  0.4453301975662 1.0
C      1  0.5551303599077  0.4587906277027  0.1787315114434 1.0
C      1  0.8231726868945  0.4587843562155  0.5546686781912 1.0
C      1  0.3215952191616  0.6339202645458  0.3508950965832 1.0
C      1  0.6475410442124  0.6351500371934  0.3235940351440 1.0
C      1  0.6784049895350  0.6339200037082  0.6491054219410 1.0
C      1  0.3524589240588  0.6351503742022  0.6764065275402 1.0
C      1  0.3215939895001  0.3660812598438  0.3508945731840 1.0
C      1  0.6475407828036  0.3648499597426  0.3235932295172 1.0
C      1  0.6784061173639  0.3660811437101  0.6491049989175 1.0
C      1  0.3524587077234  0.3648504293616  0.6764060972830 1.0
C      1  0.5221439627625  0.3804426567848  0.2195511844999 1.0
C      1  0.7811383314443  0.3808815460917  0.5222639793470 1.0
C      1  0.4778558247834  0.3804427555638  0.7804483763369 1.0
C      1  0.2188613122912  0.3808819539960  0.4777356442214 1.0
C      1  0.5221454492579  0.6195568802294  0.2195509245090 1.0
C      1  0.7811378683573  0.6191185831277  0.5222643853843 1.0
C      1  0.4778545941177  0.6195569980820  0.7804494922156 1.0
C      1  0.2188624165305  0.6191195686611  0.4777360225401 1.0
C      1  0.5061350245635  0.5398962606118  0.6206814267545 1.0
C      1  0.3795754203319  0.5398877650032  0.5064161356587 1.0
C      1  0.4938646094484  0.5398959371450  0.3793191199656 1.0
C      1  0.6204246988521  0.5398875748688  0.4935843286959 1.0
C      1  0.5061352956077  0.4601033020997  0.6206808934208 1.0
C      1  0.3795757795246  0.4601120700545  0.5064157108418 1.0
C      1  0.4938651444037  0.4601029588231  0.3793188083693 1.0
C      1  0.6204241691970  0.4601118940574  0.4935839337037 1.0
C      1  0.5630310961002  0.3337266174852  0.2901719104942 1.0
C      1  0.7106646875017  0.3353588851812  0.5643782625624 1.0
C      1  0.4369683716583  0.3337269947521  0.7098273056726 1.0
C      1  0.2893349227787  0.3353592473340  0.4356211455043 1.0
C      1  0.5630313174043  0.6662732254783  0.2901722600993 1.0
C      1  0.7106649731613  0.6646414109153  0.5643774523191 1.0
C      1  0.4369687407638  0.6662734571770  0.7098282377619 1.0
C      1  0.2893374484323  0.6646427678593  0.4356244669856 1.0
C      1  0.4012543695883  0.3304286147682  0.3094291381722 1.0
C      1  0.6902118104395  0.3287268712362  0.4027278993704 1.0
C      1  0.5987456400087  0.3304285715646  0.6905706843573 1.0
C      1  0.3097879350748  0.3287275386544  0.5972716472893 1.0
C      1  0.4012549112539  0.6695712783683  0.3094295153581 1.0
C      1  0.6902116010754  0.6712724759841  0.4027279954526 1.0
C      1  0.5987451759589  0.6695712717030  0.6905707323461 1.0
C      1  0.3097883552192  0.6712731239471  0.5972724430792 1.0
C      1  0.5096342960376  0.2267993741291  0.5704295409626 1.0
C      1  0.4291081203993  0.2270477830538  0.4990567290412 1.0
C      1  0.4903651843036  0.2267990650172  0.4295703362728 1.0
C      1  0.5708914953948  0.2270475326132  0.5009432823978 1.0
C      1  0.5096322961525  0.7732015267316  0.5704327678335 1.0
C      1  0.4291062302733  0.7729534557307  0.4990552652471 1.0
C      1  0.4903681906744  0.7732012483160  0.4295676125144 1.0
C      1  0.5708940470509  0.7729532329995  0.5009455797036 1.0
C      1  0.3667496714566  0.5477095710353  0.2235822006834 1.0
C      1  0.7746476962995  0.5478608595283  0.3673379777331 1.0
C      1  0.6332504848769  0.5477094051106  0.7764179979719 1.0
C      1  0.2253521312391  0.5478613883132  0.6326619203877 1.0
C      1  0.3667489003188  0.4522906650092  0.2235824055120 1.0
C      1  0.7746478203204  0.4521388739268  0.3673379010950 1.0
C      1  0.6332509953527  0.4522905108452  0.7764175279162 1.0
C      1  0.2253518569901  0.4521397859594  0.6326616323614 1.0
C      1  0.3045675103091  0.5493827908768  0.3016589612651 1.0
C      1  0.6960710144536  0.5496680117370  0.3064391112081 1.0
C      1  0.6954325142962  0.5493826674965  0.6983414055464 1.0
C      1  0.3039289195591  0.5496680489075  0.6935610396876 1.0
C      1  0.3045660576103  0.4506158141204  0.3016589784010 1.0
C      1  0.6960707791420  0.4503313468461  0.3064384324935 1.0
C      1  0.6954339625698  0.4506156994731  0.6983408384273 1.0
C      1  0.3039288764231  0.4503314945563  0.6935609112150 1.0
END
