TITL C-60987-9195-1 -2.007 3375.00 -312.53768661 0 0 40 (C1) n - 1
REM
REM Run started: at 2020.12.04 01:19:55 in /rds/project/t2_vol4/rds-t2-cs072/BORA/CARBON/AIRSS/Generating-Clusters/Str-Search/Higher-Symm/C10-100
REM VASP from code version vasp.5.4.4.18Apr17-6-g9f103f2a35 (build Oct 11 2019 16:45:47) gamma-only
REM
REM
REM
REM
REM ./C.cell (f39ce9773e2efe3fa5bbdf770a4156b8)
REM AIRSS Version 0.9.1 bugfix July 2018 build 013d7b7c2542+ Fri, 06 Jul 2018 19:26:36 +0100
REM compiler GCC version 4.8.5 20150623 (Red Hat 4.8.5-39)
REM options -cpp -mtune=generic -march=x86-64 -g -O0
REM seed -1988090658 1368625772 -616776152 -1650937469 -1391125766 663143634 1951926557 2067369395 730536006 -1773671457 1227776752 -1972059010
REM
REM C.POTCAR (d86ddea03c3ceb6dc662c8ad6801f873)
REM 
CELL 1.54180   15.00000   15.00000   15.00000   90.00000   90.00000   90.00000
LATT -1
SFAC C  
C      1  0.6449086312128  0.3135461641826  0.4731866285472 1.0
C      1  0.5211941092037  0.3740226321906  0.3925514061332 1.0
C      1  0.3965311035595  0.3396561039457  0.4860361840138 1.0
C      1  0.4006893333509  0.3270062370952  0.5792605898355 1.0
C      1  0.4828025665654  0.3310240416548  0.6411696880107 1.0
C      1  0.5779367944694  0.3340850252318  0.6356547679626 1.0
C      1  0.6485970928777  0.3235962481756  0.5638754886840 1.0
C      1  0.4676261432034  0.5555031220347  0.4091973765837 1.0
C      1  0.3929716960045  0.5609777338965  0.4798569213143 1.0
C      1  0.3864670451933  0.5781729951492  0.5705044748781 1.0
C      1  0.4587763784974  0.5930190044787  0.6337567333574 1.0
C      1  0.5528347998540  0.5982824075796  0.6126545240144 1.0
C      1  0.5943996740230  0.5899539944113  0.5247480389168 1.0
C      1  0.5501636482493  0.6063381825446  0.4361745690136 1.0
C      1  0.4067621490596  0.5880956250192  0.3287177610208 1.0
C      1  0.3276616988517  0.5064494187750  0.4291166840367 1.0
C      1  0.2941251096574  0.4488180440984  0.6257183357423 1.0
C      1  0.4404705273069  0.4667544821486  0.7424510329319 1.0
C      1  0.6206574072096  0.4857063133317  0.7139105192279 1.0
C      1  0.7177169011928  0.4744176149962  0.5541375438421 1.0
C      1  0.4675139722205  0.6755758373428  0.1902534973511 1.0
C      1  0.6980367329715  0.3972183810364  0.6009583692459 1.0
C      1  0.6097988089985  0.3544640743353  0.4087661337311 1.0
C      1  0.4665255224763  0.4502370376385  0.3998248327856 1.0
C      1  0.3809683239592  0.4234081099628  0.4380533213949 1.0
C      1  0.3482333130384  0.3752358962543  0.6445348790657 1.0
C      1  0.4259939424157  0.3844183314143  0.7023292839114 1.0
C      1  0.6360446053505  0.4027788081981  0.6778495846915 1.0
C      1  0.4373709071642  0.6353430850516  0.2596345056876 1.0
C      1  0.3229228504517  0.5440840827257  0.3444355148876 1.0
C      1  0.3140141502943  0.5276980329299  0.6085576818357 1.0
C      1  0.4381187874967  0.5447032901694  0.7124409151462 1.0
C      1  0.6082301530340  0.5615013329974  0.6808907047686 1.0
C      1  0.6732711610690  0.5411376093102  0.5296581557586 1.0
C      1  0.4998849486439  0.7170256006696  0.1206456480227 1.0
C      1  0.4663150305264  0.2988302308991  0.4296963038123 1.0
C      1  0.6465713841568  0.8215816890330  0.3238824215372 1.0
C      1  0.6143099066765  0.7482012732214  0.3568961344858 1.0
C      1  0.4530265396215  0.2114990103220  0.4266683000340 1.0
C      1  0.5805222498923  0.6769025955480  0.3921398437799 1.0
END
