TITL C-60987-9195-11 -1.84 3375.00 -310.92720551 0 0 39 (C1) n - 1
REM
REM Run started: at 2020.12.04 04:05:15 in /rds/project/t2_vol4/rds-t2-cs072/BORA/CARBON/AIRSS/Generating-Clusters/Str-Search/Higher-Symm/C10-100
REM VASP from code version vasp.5.4.4.18Apr17-6-g9f103f2a35 (build Oct 11 2019 16:45:47) gamma-only
REM
REM
REM
REM
REM ./C.cell (f39ce9773e2efe3fa5bbdf770a4156b8)
REM AIRSS Version 0.9.1 bugfix July 2018 build 013d7b7c2542+ Fri, 06 Jul 2018 19:26:36 +0100
REM compiler GCC version 4.8.5 20150623 (Red Hat 4.8.5-39)
REM options -cpp -mtune=generic -march=x86-64 -g -O0
REM seed 1413710132 -2123610284 372752599 367514440 -2103111058 1100718232 -966837463 1576244800 -782714549 -56048894 964704888 -145375060
REM
REM C.POTCAR (d86ddea03c3ceb6dc662c8ad6801f873)
REM 
CELL 1.54180   15.00000   15.00000   15.00000   90.00000   90.00000   90.00000
LATT -1
SFAC C  
C      1  0.6270132964471  0.4462156369076  0.4365963114402 1.0
C      1  0.6283844401997  0.5476790095127  0.4321515557389 1.0
C      1  0.6435913014879  0.5809798357129  0.5264303020692 1.0
C      1  0.6379899034314  0.5031060286964  0.5847328002097 1.0
C      1  0.6448766020127  0.4196938327242  0.5314379229333 1.0
C      1  0.5834816583895  0.3894438319811  0.3651317049493 1.0
C      1  0.5698805328145  0.5945623085829  0.3620787220825 1.0
C      1  0.5941217419130  0.6633570334513  0.5451594306856 1.0
C      1  0.5685102539222  0.5033043334553  0.6568162829321 1.0
C      1  0.6016135177542  0.3387474296126  0.5568961045894 1.0
C      1  0.3903906696986  0.3533352013237  0.4884209542764 1.0
C      1  0.4024136525393  0.3554962949984  0.3934611500229 1.0
C      1  0.3949264838689  0.6519728727906  0.4639487474391 1.0
C      1  0.3770383223909  0.6257283193496  0.5527817800636 1.0
C      1  0.3768998058623  0.4244040465451  0.5550958363039 1.0
C      1  0.5242437591342  0.5852460335808  0.6756430016286 1.0
C      1  0.5472683851446  0.3405945032122  0.6358468046164 1.0
C      1  0.5474460125868  0.3064436643993  0.3983789865353 1.0
C      1  0.5099471706262  0.5339577796604  0.3153373803144 1.0
C      1  0.5651917154223  0.7217331192984  0.4726314906730 1.0
C      1  0.5467477775796  0.2915011292902  0.4911969855001 1.0
C      1  0.5213171258773  0.4389100151237  0.3125756769071 1.0
C      1  0.5421584309196  0.6779066963219  0.3886142219895 1.0
C      1  0.5314858982687  0.6566375313028  0.6128308097470 1.0
C      1  0.5171350422843  0.4254662421077  0.6683989605366 1.0
C      1  0.4586205263163  0.2770878191518  0.3746243725086 1.0
C      1  0.4133335964010  0.5212238589953  0.3392084383986 1.0
C      1  0.4976460136908  0.7905328040811  0.4830535297460 1.0
C      1  0.4372917675482  0.6066917441281  0.7153139119282 1.0
C      1  0.4594324822657  0.3043506346807  0.6194335277520 1.0
C      1  0.4535840001660  0.2849734835846  0.5269546978832 1.0
C      1  0.4243913482092  0.4255044737494  0.3348789478246 1.0
C      1  0.4607203619795  0.7163597219449  0.4304645235800 1.0
C      1  0.4331880783237  0.6505905309074  0.6280033651120 1.0
C      1  0.4264065125512  0.3967103312738  0.6331227051379 1.0
C      1  0.4674876252388  0.5238299449374  0.4877339650590 1.0
C      1  0.3764636509592  0.5210486115466  0.5228292489230 1.0
C      1  0.5440569589406  0.4937063139971  0.4656043998254 1.0
C      1  0.3909663768339  0.5595277970798  0.4262987421373 1.0
END
