TITL C-6063-1373-138 -0.575 3375.00 -81.88874922 0 0 11 (C1) n - 1
REM
REM Run started: at 2020.12.18 21:21:20 in /gpfs/home/chem/mssmkc/CARBON/AIRSS/Generating-Clusters/Str-Search/Higher-Symm/C4-100
REM VASP from code version vasp.5.4.4.18Apr17-6-g9f103f2a35 (build Oct 11 2019 16:45:47) gamma-only
REM
REM
REM
REM
REM ./C.cell (6bd13a13d554368a30d355f37ece5b26)
REM AIRSS Version 0.9.1 bugfix July 2018 build 013d7b7c2542+ Fri, 06 Jul 2018 19:26:36 +0100
REM compiler GCC version 6.3.0
REM options -cpp -iprefix /gpfs/warwick/csc/orac/software/Core/GCCcore/6.3.0/bin/../lib/gcc/x86_64-pc-linux-gnu/6.3.0/ -mtune=generic -march=x86-64 -g -O0
REM seed 1467631506 -623367901 1789457361 -1631769688 719735515 1123556543 -1200420292 -378450224 -204598852 636168477 -565349393 -844300261
REM
REM C.POTCAR (d86ddea03c3ceb6dc662c8ad6801f873)
REM 
CELL 1.54180   15.00000   15.00000   15.00000   90.00000   90.00000   90.00000
LATT -1
SFAC C  
C      1  0.6064732600555  0.5439110114092  0.4356226073859 1.0
C      1  0.5973183565689  0.4960498862226  0.6034413678499 1.0
C      1  0.6036539658576  0.4393248817674  0.4378425539029 1.0
C      1  0.4347388635889  0.4115219795311  0.4526081134515 1.0
C      1  0.4253543248119  0.4964540292128  0.5958049841424 1.0
C      1  0.4381598954437  0.5748034399970  0.4500213591987 1.0
C      1  0.5217083031244  0.5817174939506  0.4386975681241 1.0
C      1  0.5110278605435  0.4958861016800  0.6131920697852 1.0
C      1  0.5185033497180  0.4042645197201  0.4415126332123 1.0
C      1  0.6246111507785  0.4933933098170  0.5166256534108 1.0
C      1  0.4198253695091  0.4945327466922  0.5020522895364 1.0
END
