TITL C-6063-1373-124 -0.182 3375.00 -24.37750832 0 0 4 (D2h) n - 1
REM
REM Run started: at 2020.12.18 19:40:20 in /gpfs/home/chem/mssmkc/CARBON/AIRSS/Generating-Clusters/Str-Search/Higher-Symm/C4-100
REM VASP from code version vasp.5.4.4.18Apr17-6-g9f103f2a35 (build Oct 11 2019 16:45:47) gamma-only
REM
REM
REM
REM
REM ./C.cell (6bd13a13d554368a30d355f37ece5b26)
REM AIRSS Version 0.9.1 bugfix July 2018 build 013d7b7c2542+ Fri, 06 Jul 2018 19:26:36 +0100
REM compiler GCC version 6.3.0
REM options -cpp -iprefix /gpfs/warwick/csc/orac/software/Core/GCCcore/6.3.0/bin/../lib/gcc/x86_64-pc-linux-gnu/6.3.0/ -mtune=generic -march=x86-64 -g -O0
REM seed -719127815 -1402919724 -1047572482 -2037473469 1491129371 643010701 -2092789063 -1348770257 -163213988 -1960966755 -851155199 72504522
REM
REM C.POTCAR (d86ddea03c3ceb6dc662c8ad6801f873)
REM 
CELL 1.54180   15.00000   15.00000   15.00000   90.00000   90.00000   90.00000
LATT -1
SFAC C  
C      1  0.4678555178146  0.5313650789230  0.4466013169979 1.0
C      1  0.5321447172752  0.4686345912179  0.4466002178091 1.0
C      1  0.4678550846802  0.5313657415144  0.5533999016048 1.0
C      1  0.5321446802300  0.4686345883447  0.5533985635882 1.0
END
