TITL C-6063-1373-165 -1.415 3375.00 -223.27117141 0 0 30 (C3i) n - 1
REM
REM Run started: at 2020.12.19 01:40:00 in /gpfs/home/chem/mssmkc/CARBON/AIRSS/Generating-Clusters/Str-Search/Higher-Symm/C4-100
REM VASP from code version vasp.5.4.4.18Apr17-6-g9f103f2a35 (build Oct 11 2019 16:45:47) gamma-only
REM
REM
REM
REM
REM ./C.cell (6bd13a13d554368a30d355f37ece5b26)
REM AIRSS Version 0.9.1 bugfix July 2018 build 013d7b7c2542+ Fri, 06 Jul 2018 19:26:36 +0100
REM compiler GCC version 6.3.0
REM options -cpp -iprefix /gpfs/warwick/csc/orac/software/Core/GCCcore/6.3.0/bin/../lib/gcc/x86_64-pc-linux-gnu/6.3.0/ -mtune=generic -march=x86-64 -g -O0
REM seed 1983863656 -1226772199 1958738242 -959531991 475912044 1878765136 -1265575964 -1404921584 141047938 -1945314369 1148354949 -1805434971
REM
REM C.POTCAR (d86ddea03c3ceb6dc662c8ad6801f873)
REM 
CELL 1.54180   15.00000   15.00000   15.00000   90.00000   90.00000   90.00000
LATT -1
SFAC C  
C      1  0.3307653135409  0.4501924972332  0.5202421353739 1.0
C      1  0.6681254120578  0.4906487776547  0.5573123638627 1.0
C      1  0.3319267129993  0.5469400380260  0.5328454853182 1.0
C      1  0.6692346840060  0.5498074918545  0.4797578677773 1.0
C      1  0.3318745852630  0.5093512265871  0.4426876254784 1.0
C      1  0.6680732829388  0.4530599694229  0.4671545256328 1.0
C      1  0.4243303452937  0.5597644656493  0.7485322458462 1.0
C      1  0.5768819997879  0.7434886749014  0.5759471021013 1.0
C      1  0.4253588081612  0.6883239972395  0.3270854661560 1.0
C      1  0.5756696589154  0.4402355303880  0.2514677496518 1.0
C      1  0.4231180021735  0.2565113295139  0.4240529026968 1.0
C      1  0.5746411909795  0.3116759951592  0.6729145330148 1.0
C      1  0.3986943460073  0.5217074681614  0.3807785167932 1.0
C      1  0.6018024635460  0.4063471070759  0.4238345742830 1.0
C      1  0.3957620497428  0.3884141978399  0.5406585262524 1.0
C      1  0.6013056740827  0.4782925302616  0.6192214812626 1.0
C      1  0.3981975557053  0.5936528961806  0.5761654243231 1.0
C      1  0.6042379697277  0.6115857996828  0.4593414784371 1.0
C      1  0.5644437704245  0.4406254225474  0.3387817872935 1.0
C      1  0.4339458382879  0.3314138157529  0.4690663735794 1.0
C      1  0.5620773934358  0.3882166117204  0.6312492425251 1.0
C      1  0.4355562337268  0.5593745771634  0.6612182141415 1.0
C      1  0.5660541628384  0.6685861868724  0.5309336227288 1.0
C      1  0.4379226075027  0.6117833906894  0.3687507552217 1.0
C      1  0.5124746186626  0.5761967569339  0.4309140785725 1.0
C      1  0.4894960098275  0.4782604835181  0.3992958111875 1.0
C      1  0.5099298937899  0.4017717650613  0.4686091920130 1.0
C      1  0.4875253619525  0.4238032237733  0.5690858920345 1.0
C      1  0.5105039698756  0.5217395493558  0.6007041859206 1.0
C      1  0.4900700847470  0.5982282237799  0.5313908405203 1.0
END
