TITL C-6063-1373-149 -0.167 3375.00 -26.07269755 0 0 4 (D2h) n - 1
REM
REM Run started: at 2020.12.18 22:58:59 in /gpfs/home/chem/mssmkc/CARBON/AIRSS/Generating-Clusters/Str-Search/Higher-Symm/C4-100
REM VASP from code version vasp.5.4.4.18Apr17-6-g9f103f2a35 (build Oct 11 2019 16:45:47) gamma-only
REM
REM
REM
REM
REM ./C.cell (6bd13a13d554368a30d355f37ece5b26)
REM AIRSS Version 0.9.1 bugfix July 2018 build 013d7b7c2542+ Fri, 06 Jul 2018 19:26:36 +0100
REM compiler GCC version 6.3.0
REM options -cpp -iprefix /gpfs/warwick/csc/orac/software/Core/GCCcore/6.3.0/bin/../lib/gcc/x86_64-pc-linux-gnu/6.3.0/ -mtune=generic -march=x86-64 -g -O0
REM seed 844953775 685584934 -100343357 910751177 -740363730 -16979715 1601964991 1633000409 1135495642 -2134774151 -807473729 -1873358498
REM
REM C.POTCAR (d86ddea03c3ceb6dc662c8ad6801f873)
REM 
CELL 1.54180   15.00000   15.00000   15.00000   90.00000   90.00000   90.00000
LATT -1
SFAC C  
C      1  0.4424367512926  0.5620314619509  0.5017342168637 1.0
C      1  0.4692177030755  0.4680769126497  0.5014040745700 1.0
C      1  0.5647488739073  0.4481807371356  0.5016647675592 1.0
C      1  0.5379234717247  0.5420932882638  0.5012525410071 1.0
END
