TITL C-6063-1373-154 -4.624 3375.00 -781.03561269 0 0 98 (C1) n - 1
REM
REM Run started: at 2020.12.19 00:00:52 in /gpfs/home/chem/mssmkc/CARBON/AIRSS/Generating-Clusters/Str-Search/Higher-Symm/C4-100
REM VASP from code version vasp.5.4.4.18Apr17-6-g9f103f2a35 (build Oct 11 2019 16:45:47) gamma-only
REM
REM
REM
REM
REM ./C.cell (6bd13a13d554368a30d355f37ece5b26)
REM AIRSS Version 0.9.1 bugfix July 2018 build 013d7b7c2542+ Fri, 06 Jul 2018 19:26:36 +0100
REM compiler GCC version 6.3.0
REM options -cpp -iprefix /gpfs/warwick/csc/orac/software/Core/GCCcore/6.3.0/bin/../lib/gcc/x86_64-pc-linux-gnu/6.3.0/ -mtune=generic -march=x86-64 -g -O0
REM seed 1869836916 -1033541402 -393891202 2031994329 1005466310 -1806018772 1553738110 -1868957825 -1408018296 -955446427 280571323 2006542383
REM
REM C.POTCAR (d86ddea03c3ceb6dc662c8ad6801f873)
REM 
CELL 1.54180   15.00000   15.00000   15.00000   90.00000   90.00000   90.00000
LATT -1
SFAC C  
C      1  0.5663834077476  0.3128021475600  0.7283802916616 1.0
C      1  0.3946394329411  0.3302841661225  0.7273622814302 1.0
C      1  0.3015880891102  0.4766180401948  0.7267678889636 1.0
C      1  0.3572058495788  0.6409278371683  0.7278824932078 1.0
C      1  0.5197742423742  0.6988758183367  0.7277664085604 1.0
C      1  0.6674606909493  0.6083385106207  0.7277050677015 1.0
C      1  0.6883880058350  0.4360072108324  0.7292440730864 1.0
C      1  0.6031873301293  0.4955554824179  0.2963041961443 1.0
C      1  0.5703601524001  0.4082166715674  0.2616290854168 1.0
C      1  0.4697299940132  0.3880860150147  0.2716702245309 1.0
C      1  0.3928673842630  0.4523125555776  0.2615533444093 1.0
C      1  0.3975948107848  0.5550098915515  0.2622411645529 1.0
C      1  0.4822569174699  0.6171287330597  0.2619717042558 1.0
C      1  0.5820235284758  0.5873820252966  0.2602023371499 1.0
C      1  0.5402739378733  0.2665815747216  0.3605610706245 1.0
C      1  0.3448557904551  0.3258522186948  0.3621718034936 1.0
C      1  0.2704128756992  0.5124232405408  0.3628887257241 1.0
C      1  0.3674777122597  0.6886360254219  0.3612490041748 1.0
C      1  0.5661600287560  0.7256861216093  0.3611640426005 1.0
C      1  0.7168354283660  0.5885146920386  0.3647045842562 1.0
C      1  0.7064101337723  0.3876791448772  0.3652238486212 1.0
C      1  0.2785238816436  0.3491269769301  0.6050800628487 1.0
C      1  0.2452290819282  0.5799848570929  0.6049278632602 1.0
C      1  0.4036977513263  0.7497061620471  0.6042132804219 1.0
C      1  0.6332523907284  0.7322138815426  0.6053668606385 1.0
C      1  0.7652367206853  0.5398083787794  0.6079421389548 1.0
C      1  0.6951635431076  0.3162428652832  0.6065288244636 1.0
C      1  0.4799327181118  0.2343406313796  0.6053334239095 1.0
C      1  0.6055067982666  0.4988055018423  0.1310276589364 1.0
C      1  0.5732500487069  0.4138143633909  0.1568548754936 1.0
C      1  0.4831879970105  0.3950889165166  0.1456936485289 1.0
C      1  0.4034767048718  0.3898930765019  0.1821790686047 1.0
C      1  0.3480659951634  0.6047609980192  0.1501756783331 1.0
C      1  0.4240242756443  0.6253683198815  0.1857629847058 1.0
C      1  0.6245772165909  0.5703767492591  0.1707579382539 1.0
C      1  0.7084641370453  0.6878315997550  0.4786617900087 1.0
C      1  0.7815856922267  0.4537818878040  0.4807437317719 1.0
C      1  0.6377528057237  0.2559292092037  0.4755532810721 1.0
C      1  0.3939277207122  0.2389604909691  0.4773276356586 1.0
C      1  0.2300511429361  0.4203227599532  0.4768370613057 1.0
C      1  0.2711377493259  0.6612372980646  0.4764363442561 1.0
C      1  0.4838110765931  0.7822325414140  0.4766841199246 1.0
C      1  0.3450402952074  0.7109546100744  0.6690301035958 1.0
C      1  0.5662519486319  0.7530853295380  0.6700374217218 1.0
C      1  0.7393490619906  0.6070826555348  0.6703356754056 1.0
C      1  0.7301292895296  0.3783887236626  0.6701206083543 1.0
C      1  0.5485913483926  0.2429670575459  0.6708921541857 1.0
C      1  0.3299853267874  0.3005454178094  0.6690364065951 1.0
C      1  0.2379412261754  0.5091902836099  0.6681285369780 1.0
C      1  0.5617080341218  0.4090924942017  0.4133625113349 1.0
C      1  0.4724609551674  0.3938923173892  0.4159102311992 1.0
C      1  0.4046913755163  0.4584798970876  0.4142496610336 1.0
C      1  0.4097606508269  0.5488988568915  0.4142423875132 1.0
C      1  0.4832392476652  0.6063132781444  0.4160170746717 1.0
C      1  0.5703411873460  0.5831577317767  0.4148072713364 1.0
C      1  0.5993808787270  0.4948973840844  0.4011797692954 1.0
C      1  0.6881879230574  0.4898858786740  0.3488676063666 1.0
C      1  0.6081523045703  0.3481783643133  0.3460628099518 1.0
C      1  0.4502390111808  0.3222802373328  0.3475459991984 1.0
C      1  0.3335775575115  0.4296640416523  0.3453010559260 1.0
C      1  0.3440659712196  0.5863959105610  0.3455838357166 1.0
C      1  0.4709834298873  0.6793652251067  0.3455352092773 1.0
C      1  0.6233174878904  0.6380619639523  0.3461192738204 1.0
C      1  0.5123337132491  0.6134562519596  0.7754059258535 1.0
C      1  0.5957017709949  0.5606713641469  0.7751917300165 1.0
C      1  0.6063758524952  0.4628000048866  0.7758300915186 1.0
C      1  0.5359654706508  0.3931931631491  0.7754287454431 1.0
C      1  0.4382020451543  0.4044994015554  0.7748648865670 1.0
C      1  0.3861236797590  0.4882335097463  0.7747018904285 1.0
C      1  0.4192812077115  0.5813339081125  0.7752444181456 1.0
C      1  0.7491604979149  0.3745527264278  0.4513495868156 1.0
C      1  0.5565140959782  0.2272133186723  0.4484508395183 1.0
C      1  0.3226253408140  0.2862949651393  0.4481521997062 1.0
C      1  0.2242254305287  0.5055752924387  0.4476620951368 1.0
C      1  0.3333256926228  0.7195406653035  0.4463327945644 1.0
C      1  0.5684957609533  0.7705489287644  0.4475847830507 1.0
C      1  0.7530726028454  0.6147228771019  0.4508021642095 1.0
C      1  0.3016960013743  0.4395830919000  0.6338406844756 1.0
C      1  0.3302796129070  0.6175388448647  0.6346642088743 1.0
C      1  0.4853548597309  0.7051541846679  0.6335962850528 1.0
C      1  0.6512900520901  0.6404858697803  0.6342574411626 1.0
C      1  0.7044907931908  0.4687509236501  0.6364583013398 1.0
C      1  0.6020519872167  0.3210508488593  0.6351878701785 1.0
C      1  0.4240639750299  0.3092232073448  0.6338987102388 1.0
C      1  0.4938960482776  0.6092346222723  0.5989754163050 1.0
C      1  0.5825226032049  0.5731797853245  0.5985825855636 1.0
C      1  0.6088291870993  0.4818964022856  0.5999488297877 1.0
C      1  0.5535423563001  0.4045717368236  0.5991264842142 1.0
C      1  0.4577268709793  0.3994060814130  0.5991099147870 1.0
C      1  0.3941837663250  0.4695281916435  0.5986620204576 1.0
C      1  0.4107235503848  0.5638187512271  0.5994914980079 1.0
C      1  0.4769690263882  0.2180733809364  0.5114432931530 1.0
C      1  0.2648208797710  0.3423627244593  0.5111313596415 1.0
C      1  0.2316444668144  0.5860457283936  0.5107455454443 1.0
C      1  0.4002082618634  0.7640703382167  0.5101155066647 1.0
C      1  0.6436755609762  0.7446034829217  0.5116639418279 1.0
C      1  0.7816335439279  0.5392741482087  0.5141506900954 1.0
C      1  0.7058578314709  0.3059883296049  0.5128483463586 1.0
END
