TITL C-6063-1373-22 -4.497 3375.00 -772.33187160 0 0 94 (C1) n - 1
REM
REM Run started: at 2020.12.17 22:35:34 in /gpfs/home/chem/mssmkc/CARBON/AIRSS/Generating-Clusters/Str-Search/Higher-Symm/C4-100
REM VASP from code version vasp.5.4.4.18Apr17-6-g9f103f2a35 (build Oct 11 2019 16:45:47) gamma-only
REM
REM
REM
REM
REM ./C.cell (6bd13a13d554368a30d355f37ece5b26)
REM AIRSS Version 0.9.1 bugfix July 2018 build 013d7b7c2542+ Fri, 06 Jul 2018 19:26:36 +0100
REM compiler GCC version 6.3.0
REM options -cpp -iprefix /gpfs/warwick/csc/orac/software/Core/GCCcore/6.3.0/bin/../lib/gcc/x86_64-pc-linux-gnu/6.3.0/ -mtune=generic -march=x86-64 -g -O0
REM seed 658526096 -151974333 -748200751 -273834668 -1873947965 -1068502432 776546619 -1019140540 -1090966055 -1397771782 110363941 -2040322895
REM
REM C.POTCAR (d86ddea03c3ceb6dc662c8ad6801f873)
REM 
CELL 1.54180   15.00000   15.00000   15.00000   90.00000   90.00000   90.00000
LATT -1
SFAC C  
C      1  0.2798462123676  0.4006428108505  0.5784258045920 1.0
C      1  0.7242513410133  0.3974593877508  0.4104639605582 1.0
C      1  0.2606302386093  0.6085311775308  0.4167739858990 1.0
C      1  0.7266880842197  0.5995129566352  0.5731399624303 1.0
C      1  0.5798750556705  0.3899059474902  0.2656242931524 1.0
C      1  0.4177267933058  0.3988915459125  0.7301428869086 1.0
C      1  0.4226994814661  0.5946065989556  0.2796629590870 1.0
C      1  0.5727414208931  0.5999551793295  0.7248677642350 1.0
C      1  0.6100350561891  0.2189657599833  0.5523110577756 1.0
C      1  0.3850118426596  0.2261815951820  0.4524741216264 1.0
C      1  0.6215632741453  0.7856436239149  0.4530262778295 1.0
C      1  0.3786931715719  0.7867002896524  0.5534878401462 1.0
C      1  0.5467885603365  0.2191593091172  0.6233526124258 1.0
C      1  0.4506339909480  0.2237404842879  0.3801872854131 1.0
C      1  0.4487463823423  0.7860384255905  0.6197615348013 1.0
C      1  0.5511841469965  0.7748759801995  0.3896356990222 1.0
C      1  0.3380856592090  0.4473206097164  0.7303391623418 1.0
C      1  0.6588019572661  0.4375953736919  0.2592364749452 1.0
C      1  0.3406759354974  0.5551383468261  0.2724395373614 1.0
C      1  0.6537501146004  0.5576572635094  0.7255710630278 1.0
C      1  0.7313810680464  0.4406244019932  0.3265208700139 1.0
C      1  0.2733503985521  0.4489409857026  0.6581974346819 1.0
C      1  0.2675951889874  0.5590411141976  0.3400378034429 1.0
C      1  0.7228292500841  0.5558109240644  0.6536052107375 1.0
C      1  0.4202201372429  0.7558628357060  0.7045191899709 1.0
C      1  0.5766111175263  0.7473561666846  0.3026257075254 1.0
C      1  0.4034890830639  0.3115677311680  0.2528441760961 1.0
C      1  0.5876604932141  0.3147425083754  0.7473465694198 1.0
C      1  0.7484038377838  0.6864932823919  0.4012055565527 1.0
C      1  0.2502734433351  0.6907767346279  0.5945786511150 1.0
C      1  0.2996291665643  0.2514252327339  0.4222096194390 1.0
C      1  0.7330136387082  0.3141282884456  0.5845383519152 1.0
C      1  0.5853773048704  0.4074455849314  0.7572427468106 1.0
C      1  0.4067000594781  0.4039779333794  0.2451188002845 1.0
C      1  0.5878346328738  0.5853518677160  0.2425421248557 1.0
C      1  0.4072401650651  0.5948086288962  0.7606741222240 1.0
C      1  0.7184037881536  0.4093783508877  0.5771979753767 1.0
C      1  0.2437584631111  0.4092837082672  0.4118261007753 1.0
C      1  0.2379894495317  0.5990633812102  0.5944571008534 1.0
C      1  0.7389352112440  0.5890821621985  0.4013148052163 1.0
C      1  0.6622722642821  0.3203457982354  0.4020530629375 1.0
C      1  0.3429651403052  0.3271864812988  0.5917630482726 1.0
C      1  0.6453428070976  0.6643814587534  0.5660570006203 1.0
C      1  0.3412675758852  0.6685332244182  0.4342722326926 1.0
C      1  0.4106455232245  0.3275036237566  0.6621300695060 1.0
C      1  0.5931917560308  0.3152381478223  0.3329386101178 1.0
C      1  0.5637570320332  0.6594738774094  0.6411126657324 1.0
C      1  0.4240899617145  0.6479468252096  0.3680279100185 1.0
C      1  0.4530983530246  0.4760014695399  0.4549280453577 1.0
C      1  0.6143869723575  0.4312666407158  0.5395424719641 1.0
C      1  0.3615574729975  0.5863110317342  0.5046037020335 1.0
C      1  0.5993567589786  0.6250482527334  0.4843948985076 1.0
C      1  0.5294424696075  0.4289715358902  0.4294713601740 1.0
C      1  0.5212004386588  0.4077201653187  0.5821460414793 1.0
C      1  0.6384967060673  0.5687135010351  0.4248659077877 1.0
C      1  0.4171097749482  0.5526556796207  0.5831583437949 1.0
C      1  0.4606607343233  0.7388431330720  0.4048904203054 1.0
C      1  0.5431319123952  0.7577253473358  0.6097008937968 1.0
C      1  0.4584776761517  0.2535557791636  0.6124852286581 1.0
C      1  0.5390900995269  0.2535583581904  0.3856216828771 1.0
C      1  0.3883896356350  0.7537426775834  0.4613585189724 1.0
C      1  0.6128904501625  0.7614257233543  0.5487123943126 1.0
C      1  0.5931059116292  0.2743821273553  0.4677151744336 1.0
C      1  0.3941001934682  0.2560871004179  0.5429991743463 1.0
C      1  0.6980814967598  0.2401315325012  0.5780152434740 1.0
C      1  0.2508970757570  0.3161262905779  0.4096977309547 1.0
C      1  0.7058036062627  0.7543207276206  0.4196709287478 1.0
C      1  0.2929131420652  0.7611330129074  0.5831026146651 1.0
C      1  0.5798023669346  0.2414431923359  0.7105621413905 1.0
C      1  0.4162665503093  0.2410411961653  0.2930293623490 1.0
C      1  0.4090503532556  0.6873362037772  0.7490363505259 1.0
C      1  0.5872363971934  0.6769480008538  0.2617006415354 1.0
C      1  0.6610513570868  0.4614598283100  0.7362303805015 1.0
C      1  0.3300468595911  0.4592194945386  0.2638448991857 1.0
C      1  0.6666241222052  0.5337882566456  0.2492936901387 1.0
C      1  0.3299897104856  0.5431834586055  0.7403295144396 1.0
C      1  0.7243064784290  0.4601574477212  0.6628230115252 1.0
C      1  0.2603862401991  0.4623140685813  0.3329540142707 1.0
C      1  0.2609670034172  0.5449531084500  0.6678566592711 1.0
C      1  0.7405683026795  0.5351175234366  0.3160861842659 1.0
C      1  0.7578073425610  0.4501831458004  0.4930025992172 1.0
C      1  0.2510340065334  0.4506047482222  0.4972373679870 1.0
C      1  0.7591947345251  0.5448140004058  0.4915900448035 1.0
C      1  0.2618089730487  0.5522377974990  0.5029172979984 1.0
C      1  0.4983997569294  0.4508191343657  0.7588444401499 1.0
C      1  0.4954803894037  0.4440710020649  0.2446419734563 1.0
C      1  0.4933777650040  0.5477787979325  0.7582958319066 1.0
C      1  0.5016977878756  0.5411199021025  0.2473123881468 1.0
C      1  0.4477911683530  0.4665402313360  0.5513238794315 1.0
C      1  0.4419040936987  0.5743717079779  0.4408117726120 1.0
C      1  0.4908782802771  0.6157696552472  0.5876473986387 1.0
C      1  0.6073605611796  0.4811124337526  0.4478927539350 1.0
C      1  0.5091625608908  0.6182562296199  0.4986996081191 1.0
C      1  0.5529592798402  0.3618694209768  0.5010732167727 1.0
END
