TITL C-6065-1139-8 -5.407 3375.00 -914.53933943 0 0 113 (C1) n - 1
REM
REM Run started: at 2020.12.01 04:18:56 in /rds/project/t2_vol4/rds-t2-cs072/BORA/CARBON/AIRSS/Generating-Clusters/Str-Search/Higher-Symm/C100-200
REM VASP from code version vasp.5.4.4.18Apr17-6-g9f103f2a35 (build Oct 11 2019 16:45:47) gamma-only
REM
REM
REM
REM
REM ./C.cell (533062f00bc710175b3da973d35f2034)
REM AIRSS Version 0.9.1 bugfix July 2018 build 013d7b7c2542+ Fri, 06 Jul 2018 19:26:36 +0100
REM compiler GCC version 4.8.5 20150623 (Red Hat 4.8.5-39)
REM options -cpp -mtune=generic -march=x86-64 -g -O0
REM seed 1476294224 1175080503 -1689774251 310778614 -73317375 -116822437 -1640818704 -270815146 -953605189 -694797436 -349177546 -541071952
REM
REM C.POTCAR (d86ddea03c3ceb6dc662c8ad6801f873)
REM 
CELL 1.54180   15.00000   15.00000   15.00000   90.00000   90.00000   90.00000
LATT -1
SFAC C  
C      1  0.5948903926309  0.8006453972625  0.5584509785214 1.0
C      1  0.3939373112020  0.7992909498436  0.4387293330702 1.0
C      1  0.6005373793603  0.1865919915082  0.4502938699833 1.0
C      1  0.4115213487882  0.1919838552724  0.5506226054847 1.0
C      1  0.3723112118208  0.3355712292321  0.2214913910694 1.0
C      1  0.6290331906797  0.3392875188575  0.7752533919041 1.0
C      1  0.3678735314892  0.6663936858722  0.7730185996455 1.0
C      1  0.6185722940644  0.6690145860884  0.2059294784101 1.0
C      1  0.2445858216902  0.4068211138016  0.4499544042126 1.0
C      1  0.7504270360980  0.3994066731438  0.5448724146526 1.0
C      1  0.2619788347076  0.5930017204162  0.5362095352178 1.0
C      1  0.7649554926255  0.5948222126117  0.4487237401031 1.0
C      1  0.1489500961138  0.4840797107635  0.5437912785069 1.0
C      1  0.8528054975077  0.4710581944138  0.4617428581903 1.0
C      1  0.1456636427138  0.5281439798959  0.4588340107016 1.0
C      1  0.8465397750486  0.5146958163036  0.5463429009554 1.0
C      1  0.6620147397078  0.6033304144194  0.4596689911339 1.0
C      1  0.3624447200631  0.6121741813460  0.5447693216793 1.0
C      1  0.6506174204686  0.3890951479906  0.5480435629151 1.0
C      1  0.3443005901847  0.3932657899754  0.4570648434767 1.0
C      1  0.3775397717316  0.7714586750732  0.6452244504905 1.0
C      1  0.6252897925842  0.7508898382097  0.3506914690996 1.0
C      1  0.3943158102621  0.2402322386886  0.3585294063407 1.0
C      1  0.6174513914411  0.2340237926381  0.6461360760531 1.0
C      1  0.5499413063200  0.7598613702834  0.4125161451721 1.0
C      1  0.4481193630871  0.8286321779118  0.6059693884544 1.0
C      1  0.5519335752829  0.1681011462527  0.6121889251564 1.0
C      1  0.4574181731028  0.1707496752082  0.3897954420152 1.0
C      1  0.3868022036839  0.6441434684023  0.4506895423658 1.0
C      1  0.6587893881215  0.6325165507708  0.5591455456098 1.0
C      1  0.3504872705393  0.3641799961060  0.5565586981536 1.0
C      1  0.6295901510626  0.3615527611700  0.4547352528528 1.0
C      1  0.3424885199076  0.7324649582938  0.4842879234510 1.0
C      1  0.6399109471474  0.7247400408629  0.5307842984615 1.0
C      1  0.3785761373363  0.2743080408290  0.5216465948514 1.0
C      1  0.6343065745175  0.2687081868927  0.4806285391389 1.0
C      1  0.6391049945142  0.7313342916239  0.2666446384819 1.0
C      1  0.3634886870524  0.7436973254055  0.7299861503729 1.0
C      1  0.6310674017442  0.2629778226845  0.7314301179277 1.0
C      1  0.3741921075562  0.2642928408541  0.2735228088159 1.0
C      1  0.4542165832548  0.8442548116348  0.5093074486549 1.0
C      1  0.5438977398129  0.8284625063777  0.4844358491101 1.0
C      1  0.4596203945742  0.1466610245839  0.4816375986237 1.0
C      1  0.5501722166531  0.1443289985736  0.5192701590996 1.0
C      1  0.2723581149542  0.6560724070844  0.2835646146002 1.0
C      1  0.7247456403557  0.6505962274272  0.7152797933599 1.0
C      1  0.2790967698128  0.3498502776844  0.7125289797511 1.0
C      1  0.7200940953234  0.3602308127856  0.2834244109123 1.0
C      1  0.8005688923315  0.3906082268870  0.4584296166645 1.0
C      1  0.1990123894871  0.3999831652324  0.5338756618560 1.0
C      1  0.8079646183856  0.6033891047901  0.5356263033647 1.0
C      1  0.2048782622045  0.6082939856932  0.4600229206742 1.0
C      1  0.5738961862331  0.7475914496512  0.7010534819215 1.0
C      1  0.4031217894775  0.7612677456209  0.3408562205313 1.0
C      1  0.5880334934129  0.2488232423829  0.3059358960549 1.0
C      1  0.4230838080434  0.2491690991399  0.6967482312200 1.0
C      1  0.5742138176984  0.5924184020265  0.6918916323573 1.0
C      1  0.4007081743500  0.5926714838734  0.2931417516673 1.0
C      1  0.5724020735329  0.4108286968136  0.3136616527707 1.0
C      1  0.4294197169011  0.4085300365964  0.6921652346868 1.0
C      1  0.5387536658185  0.8039175035291  0.6384907810520 1.0
C      1  0.4587199234452  0.7198311915227  0.4072085791266 1.0
C      1  0.5502590724205  0.1917415594812  0.3654673968034 1.0
C      1  0.4596927195286  0.1918915595159  0.6364882202390 1.0
C      1  0.4300596906982  0.5943917373557  0.7759351969743 1.0
C      1  0.5600419654397  0.5966356632683  0.2269555557250 1.0
C      1  0.4330930983420  0.4103408649600  0.2245677168742 1.0
C      1  0.5677696977780  0.4108264287546  0.7841191496307 1.0
C      1  0.7875329198428  0.4726072574541  0.3243550393319 1.0
C      1  0.2811856824708  0.4663782950394  0.6436497508478 1.0
C      1  0.7262132605033  0.5286204695342  0.6495281977026 1.0
C      1  0.2692111863499  0.5383575615148  0.3521865187097 1.0
C      1  0.2620246588113  0.3721252090651  0.6081182432357 1.0
C      1  0.7760087024084  0.3822979744980  0.3614024070136 1.0
C      1  0.2324529527003  0.6278251966008  0.3655636681744 1.0
C      1  0.7454864642078  0.6225362449249  0.6118787616792 1.0
C      1  0.4887398872453  0.5546638337651  0.2634243150179 1.0
C      1  0.5023835172481  0.5520144531003  0.7352489221055 1.0
C      1  0.4966608353054  0.4516046556205  0.7381702770549 1.0
C      1  0.5013203958908  0.4548380351441  0.2653081753791 1.0
C      1  0.2710756814908  0.4443268739082  0.7418030411983 1.0
C      1  0.7347641869021  0.4523372926868  0.2459259618791 1.0
C      1  0.3024600767344  0.5609737353865  0.2556635058440 1.0
C      1  0.7318635963591  0.5569851039059  0.7471097322628 1.0
C      1  0.2226842624277  0.5272978651598  0.5898606343611 1.0
C      1  0.8123701676422  0.5301862968654  0.3931472218463 1.0
C      1  0.2085323195741  0.4776431723545  0.4024842169951 1.0
C      1  0.7859650662295  0.4650671590141  0.6019599965827 1.0
C      1  0.5927227581078  0.4758581767460  0.5531526852362 1.0
C      1  0.4048458301342  0.4821114596766  0.4533767719770 1.0
C      1  0.5951343217265  0.5171845540163  0.4587385967281 1.0
C      1  0.4139156108322  0.5230766820772  0.5501898641672 1.0
C      1  0.3828617928138  0.4486251810635  0.6133844922830 1.0
C      1  0.6005940463956  0.4326367043943  0.4009463998142 1.0
C      1  0.3730104546900  0.5614089839885  0.3907188864026 1.0
C      1  0.6232898710082  0.5489833850727  0.6172312185656 1.0
C      1  0.2885969435214  0.5035123553377  0.8057242299164 1.0
C      1  0.6997479809626  0.5086116349755  0.1854228199500 1.0
C      1  0.2839062221569  0.4917333236695  0.1919221329309 1.0
C      1  0.7102276906775  0.5013186559277  0.8130334844400 1.0
C      1  0.6343444003360  0.7010517845107  0.4354057678468 1.0
C      1  0.3523665440155  0.7118312463674  0.5727724510959 1.0
C      1  0.6387755238136  0.2914515488399  0.5722086378380 1.0
C      1  0.3738112893550  0.2988536465705  0.4327867139229 1.0
C      1  0.3620780599392  0.6943689118284  0.2928504653023 1.0
C      1  0.6248876046127  0.6768241772980  0.7164205682458 1.0
C      1  0.3782115834236  0.3231257008416  0.7148623683983 1.0
C      1  0.6259903552872  0.3264125761935  0.2870762806613 1.0
C      1  0.6553568013562  0.4291549207696  0.8090192736930 1.0
C      1  0.3429394101373  0.4228334666243  0.1941044995809 1.0
C      1  0.6447012280411  0.5769185221657  0.1848801705716 1.0
C      1  0.3422183038321  0.5762646593883  0.8033443043775 1.0
C      1  0.5013056482504  0.5002901756873  0.5036426514272 1.0
END
