TITL C-6063-1373-222 -0.648 3375.00 -96.78773795 0 0 13 (C1) n - 1
REM
REM Run started: at 2020.12.19 14:27:29 in /gpfs/home/chem/mssmkc/CARBON/AIRSS/Generating-Clusters/Str-Search/Higher-Symm/C4-100
REM VASP from code version vasp.5.4.4.18Apr17-6-g9f103f2a35 (build Oct 11 2019 16:45:47) gamma-only
REM
REM
REM
REM
REM ./C.cell (6bd13a13d554368a30d355f37ece5b26)
REM AIRSS Version 0.9.1 bugfix July 2018 build 013d7b7c2542+ Fri, 06 Jul 2018 19:26:36 +0100
REM compiler GCC version 6.3.0
REM options -cpp -iprefix /gpfs/warwick/csc/orac/software/Core/GCCcore/6.3.0/bin/../lib/gcc/x86_64-pc-linux-gnu/6.3.0/ -mtune=generic -march=x86-64 -g -O0
REM seed -862201380 -1431105230 1784841734 1200459048 -1997900967 -1021177533 -1496158611 -1482766140 150408243 -363549401 -1981326920 1738124330
REM
REM C.POTCAR (d86ddea03c3ceb6dc662c8ad6801f873)
REM 
CELL 1.54180   15.00000   15.00000   15.00000   90.00000   90.00000   90.00000
LATT -1
SFAC C  
C      1  0.5831573948849  0.5412350875763  0.4939504577028 1.0
C      1  0.3134704617532  0.5445327227607  0.5163072360509 1.0
C      1  0.6381705358641  0.6120799502524  0.4939598572959 1.0
C      1  0.6937658021771  0.3556950069472  0.4811841059181 1.0
C      1  0.2670684781432  0.6158821420256  0.5312658906010 1.0
C      1  0.6903593856911  0.5335534035138  0.4881986647999 1.0
C      1  0.4496018456051  0.4356781439056  0.4940146835868 1.0
C      1  0.6146987006624  0.3981216704648  0.4845557341179 1.0
C      1  0.3618655883353  0.4735593309377  0.5034281470401 1.0
C      1  0.2200922815357  0.6869150490240  0.5480521989718 1.0
C      1  0.7082063709259  0.4492499717368  0.4837767300237 1.0
C      1  0.3781473785495  0.3773357874649  0.4920228895616 1.0
C      1  0.5401296758726  0.4566602333904  0.4908876043297 1.0
END
