TITL C-6063-1373-186 -3.433 3375.00 -617.88963357 0 0 78 (C3) n - 1
REM
REM Run started: at 2020.12.19 05:54:30 in /gpfs/home/chem/mssmkc/CARBON/AIRSS/Generating-Clusters/Str-Search/Higher-Symm/C4-100
REM VASP from code version vasp.5.4.4.18Apr17-6-g9f103f2a35 (build Oct 11 2019 16:45:47) gamma-only
REM
REM
REM
REM
REM ./C.cell (6bd13a13d554368a30d355f37ece5b26)
REM AIRSS Version 0.9.1 bugfix July 2018 build 013d7b7c2542+ Fri, 06 Jul 2018 19:26:36 +0100
REM compiler GCC version 6.3.0
REM options -cpp -iprefix /gpfs/warwick/csc/orac/software/Core/GCCcore/6.3.0/bin/../lib/gcc/x86_64-pc-linux-gnu/6.3.0/ -mtune=generic -march=x86-64 -g -O0
REM seed 621398013 -55285116 -174626202 -592282707 -335190906 -1405827898 -419140228 2098116823 91514066 1326436183 -921075818 -1304733817
REM
REM C.POTCAR (d86ddea03c3ceb6dc662c8ad6801f873)
REM 
CELL 1.54180   15.00000   15.00000   15.00000   90.00000   90.00000   90.00000
LATT -1
SFAC C  
C      1  0.5468997844925  0.2687936463821  0.3635302884660 1.0
C      1  0.2764763549196  0.5752802893852  0.3636869682288 1.0
C      1  0.6765929812729  0.6564290277885  0.3636412298424 1.0
C      1  0.4531002359466  0.2687936393187  0.3635302276575 1.0
C      1  0.7235236749909  0.5752802922467  0.3636869742669 1.0
C      1  0.3234070458622  0.6564290239996  0.3636412048213 1.0
C      1  0.7303140388618  0.4253362882328  0.6351143413916 1.0
C      1  0.3204380847305  0.3377133747267  0.6351048658435 1.0
C      1  0.4494742604678  0.7363681840445  0.6352488925902 1.0
C      1  0.2696859253376  0.4253362854350  0.6351142844106 1.0
C      1  0.6795618919259  0.3377133926535  0.6351049187177 1.0
C      1  0.5505257040016  0.7363681987515  0.6352489286723 1.0
C      1  0.3569501137431  0.2933346111821  0.3826798983365 1.0
C      1  0.3925881859639  0.7274830894871  0.3828332498872 1.0
C      1  0.7506582921626  0.4797886877987  0.3828114318840 1.0
C      1  0.6430499117799  0.2933346147407  0.3826799754174 1.0
C      1  0.6074118329170  0.7274831057205  0.3828332627612 1.0
C      1  0.2493417311927  0.4797886777493  0.3828113636581 1.0
C      1  0.4043371605838  0.4997030298457  0.2655012306992 1.0
C      1  0.5474732046077  0.5831187539422  0.2654604967655 1.0
C      1  0.5481734213293  0.4175018173816  0.2654561877356 1.0
C      1  0.5956628686926  0.4997030286444  0.2655013187871 1.0
C      1  0.4525268343729  0.5831187595467  0.2654604445736 1.0
C      1  0.4518266185395  0.4175018176122  0.2654561150190 1.0
C      1  0.4430700135110  0.7369729608837  0.4713161801184 1.0
C      1  0.7336860465717  0.4310122263036  0.4712860045731 1.0
C      1  0.3234074506993  0.3322069580474  0.4712677655370 1.0
C      1  0.5569300053335  0.7369729738575  0.4713162067812 1.0
C      1  0.2663139870319  0.4310122231924  0.4712859761112 1.0
C      1  0.6765925700750  0.3322069692174  0.4712678008707 1.0
C      1  0.7196081576259  0.5724314239667  0.5388273591878 1.0
C      1  0.4527663758331  0.2735744719497  0.5387281933623 1.0
C      1  0.3276261093473  0.6542302847803  0.5388481122673 1.0
C      1  0.2803918442793  0.5724314157908  0.5388272611403 1.0
C      1  0.5472336200005  0.2735744800484  0.5387282243946 1.0
C      1  0.6723739005251  0.6542302919989  0.5388481897024 1.0
C      1  0.2360857747600  0.4739836546300  0.5589532044052 1.0
C      1  0.6094073834159  0.7412478667543  0.5589673179919 1.0
C      1  0.6543611488724  0.2843396255349  0.5588828478485 1.0
C      1  0.7639141957081  0.4739836695307  0.5589532464259 1.0
C      1  0.3905926013392  0.7412478643743  0.5589672742980 1.0
C      1  0.3456388354308  0.2843395916363  0.5588828183934 1.0
C      1  0.4513136030010  0.5820934550553  0.7552542301977 1.0
C      1  0.5957191132663  0.5008064778293  0.7552353862620 1.0
C      1  0.4530204147032  0.4165751019320  0.7551931636448 1.0
C      1  0.5486863244862  0.5820934630168  0.7552542960336 1.0
C      1  0.4042808222848  0.5008064738441  0.7552352805648 1.0
C      1  0.5469795186152  0.4165750995406  0.7551932070120 1.0
C      1  0.5821200517850  0.6409318080749  0.3402537250825 1.0
C      1  0.5807448812063  0.3584305140755  0.3401723035652 1.0
C      1  0.3369241410781  0.5009704821775  0.3402806457143 1.0
C      1  0.4178799716418  0.6409318124452  0.3402536831080 1.0
C      1  0.4192551435312  0.3584305002615  0.3401722225446 1.0
C      1  0.6630758949284  0.5009704808361  0.3402806948015 1.0
C      1  0.4504682978323  0.4142566120682  0.5874031012915 1.0
C      1  0.4505651812811  0.5856357637062  0.5874885110691 1.0
C      1  0.5990180791056  0.4998802971757  0.5874584640556 1.0
C      1  0.5495316882049  0.4142566180537  0.5874031533409 1.0
C      1  0.5494348050140  0.5856357661579  0.5874885721005 1.0
C      1  0.4009819057841  0.4998802893242  0.5874584047144 1.0
C      1  0.5521945704073  0.6433489241292  0.6749577941942 1.0
C      1  0.5981875785633  0.3828497021125  0.6748496442016 1.0
C      1  0.3494209122223  0.4732515347959  0.6748836982574 1.0
C      1  0.4478053893172  0.6433489193944  0.6749577622583 1.0
C      1  0.4018123891838  0.3828496876267  0.6748495874945 1.0
C      1  0.6505790552981  0.4732515405564  0.6748838014342 1.0
C      1  0.3420689186570  0.5024201831660  0.5040974255343 1.0
C      1  0.5809486175786  0.6355912184210  0.5041350146152 1.0
C      1  0.5768998644560  0.3620057939679  0.5039987556181 1.0
C      1  0.6579310877188  0.5024201988856  0.5040975173715 1.0
C      1  0.4190513956802  0.6355912097828  0.5041349336440 1.0
C      1  0.4231001358151  0.3620057810436  0.5039987002652 1.0
C      1  0.5497681997550  0.5848441350191  0.4220671102836 1.0
C      1  0.5485353656586  0.4145130477350  0.4220448815474 1.0
C      1  0.4016538556403  0.5007442728947  0.4220804559462 1.0
C      1  0.4502318273834  0.5848441273480  0.4220670513339 1.0
C      1  0.4514646490391  0.4145130355104  0.4220448244142 1.0
C      1  0.5983461708208  0.5007442829231  0.4220805126410 1.0
END
