TITL C-60987-9195-9 -1.81 3375.00 -285.24992217 0 0 37 (C1) n - 1
REM
REM Run started: at 2020.12.04 03:43:53 in /rds/project/t2_vol4/rds-t2-cs072/BORA/CARBON/AIRSS/Generating-Clusters/Str-Search/Higher-Symm/C10-100
REM VASP from code version vasp.5.4.4.18Apr17-6-g9f103f2a35 (build Oct 11 2019 16:45:47) gamma-only
REM
REM
REM
REM
REM ./C.cell (f39ce9773e2efe3fa5bbdf770a4156b8)
REM AIRSS Version 0.9.1 bugfix July 2018 build 013d7b7c2542+ Fri, 06 Jul 2018 19:26:36 +0100
REM compiler GCC version 4.8.5 20150623 (Red Hat 4.8.5-39)
REM options -cpp -mtune=generic -march=x86-64 -g -O0
REM seed -1237854850 -177954630 -1952949298 -303125561 -1353431325 356325229 1861352548 792288167 2146263981 1312035997 1824180105 -1414046608
REM
REM C.POTCAR (d86ddea03c3ceb6dc662c8ad6801f873)
REM 
CELL 1.54180   15.00000   15.00000   15.00000   90.00000   90.00000   90.00000
LATT -1
SFAC C  
C      1  0.6448191179208  0.3176761161946  0.4420471056091 1.0
C      1  0.4859289744303  0.6805311514879  0.2895946408350 1.0
C      1  0.3309820603397  0.3276663698294  0.5422184387927 1.0
C      1  0.5269177897715  0.6423175027051  0.6863904784440 1.0
C      1  0.4609098829745  0.5838651251887  0.4098581508020 1.0
C      1  0.4237474545706  0.4459121425448  0.5236120113198 1.0
C      1  0.5323897592358  0.5672476438689  0.5637348248345 1.0
C      1  0.5713126705188  0.4617636805872  0.4518651572930 1.0
C      1  0.6058118697099  0.6835360409052  0.4147942487908 1.0
C      1  0.4193903637080  0.3309857394292  0.3923796531912 1.0
C      1  0.4038832395778  0.6685535314100  0.5505671154211 1.0
C      1  0.5962502591289  0.3174853545408  0.6024947190061 1.0
C      1  0.5307763700566  0.6644954615386  0.3733012596480 1.0
C      1  0.3916074779153  0.3567713830425  0.4735620634041 1.0
C      1  0.4793873901354  0.6449172900663  0.6037133931542 1.0
C      1  0.6354445388183  0.2970158922791  0.5323400843073 1.0
C      1  0.6551757294936  0.6481208169396  0.4794603791249 1.0
C      1  0.4869999716496  0.3791650858191  0.3472073428343 1.0
C      1  0.3271938482751  0.6151506475360  0.5254409285241 1.0
C      1  0.5307646820398  0.3648198925960  0.6471861449750 1.0
C      1  0.5449238874909  0.5350151359552  0.6603024053934 1.0
C      1  0.6613308778062  0.4813991549207  0.4527945357292 1.0
C      1  0.4395858740528  0.5393544860514  0.3175608876296 1.0
C      1  0.3295280958778  0.4710082640670  0.5620779844898 1.0
C      1  0.4367320359743  0.6185350522996  0.2603683495032 1.0
C      1  0.3423762118383  0.3820858962899  0.6140579341930 1.0
C      1  0.6137385650403  0.6052580569588  0.6691748140442 1.0
C      1  0.6754236538740  0.3932520826632  0.3978997436473 1.0
C      1  0.6332953121920  0.6041174409794  0.5640414182322 1.0
C      1  0.5750545093269  0.3803790524541  0.3949595569497 1.0
C      1  0.3937331571751  0.6343952753811  0.4621530687658 1.0
C      1  0.4445859326199  0.4035953415123  0.6182637646976 1.0
C      1  0.4564582922295  0.4532891541267  0.3039840934242 1.0
C      1  0.2806143820672  0.5446514664294  0.5584952186132 1.0
C      1  0.5086825391778  0.4481645678429  0.6780006684377 1.0
C      1  0.6904266406174  0.5603501665861  0.4992486485067 1.0
C      1  0.4952709823691  0.5142561369729  0.4858882674321 1.0
END
