TITL C-6063-1373-52 -3.613 3375.00 -622.89909092 0 0 76 (C1) n - 1
REM
REM Run started: at 2020.12.18 04:53:40 in /gpfs/home/chem/mssmkc/CARBON/AIRSS/Generating-Clusters/Str-Search/Higher-Symm/C4-100
REM VASP from code version vasp.5.4.4.18Apr17-6-g9f103f2a35 (build Oct 11 2019 16:45:47) gamma-only
REM
REM
REM
REM
REM ./C.cell (6bd13a13d554368a30d355f37ece5b26)
REM AIRSS Version 0.9.1 bugfix July 2018 build 013d7b7c2542+ Fri, 06 Jul 2018 19:26:36 +0100
REM compiler GCC version 6.3.0
REM options -cpp -iprefix /gpfs/warwick/csc/orac/software/Core/GCCcore/6.3.0/bin/../lib/gcc/x86_64-pc-linux-gnu/6.3.0/ -mtune=generic -march=x86-64 -g -O0
REM seed 643328689 -43214745 935759092 145773657 1208287718 -886659736 -1629507199 -103891598 -1928243546 -13793514 -1968115499 -738203148
REM
REM C.POTCAR (d86ddea03c3ceb6dc662c8ad6801f873)
REM 
CELL 1.54180   15.00000   15.00000   15.00000   90.00000   90.00000   90.00000
LATT -1
SFAC C  
C      1  0.4274174760694  0.2712514094555  0.5597511845508 1.0
C      1  0.4278570604335  0.6625978216265  0.6754111103802 1.0
C      1  0.4226931493165  0.5611784606590  0.2789406727376 1.0
C      1  0.1628058472145  0.4886795856159  0.5647822247621 1.0
C      1  0.2158169706938  0.6367743261331  0.4596569787832 1.0
C      1  0.1566157426804  0.4390675592873  0.4946830570356 1.0
C      1  0.7793866448598  0.5968390582474  0.4537589319472 1.0
C      1  0.7854591737335  0.4089558265483  0.4416062513454 1.0
C      1  0.7809310791418  0.4904909585360  0.6102378742533 1.0
C      1  0.5915381962355  0.3615358859719  0.3811729117494 1.0
C      1  0.5785423145160  0.4648991396364  0.6603662490755 1.0
C      1  0.5758462437358  0.6497656830109  0.4491608339919 1.0
C      1  0.6067275550716  0.3917539493890  0.6139953402407 1.0
C      1  0.6035378950397  0.6455181016282  0.5357723055628 1.0
C      1  0.6073800447138  0.4508715907449  0.3493196341307 1.0
C      1  0.3582950570680  0.6982474523712  0.4700179825071 1.0
C      1  0.3592442208850  0.3697452164355  0.3536790219365 1.0
C      1  0.3646877674600  0.4321238493958  0.6847771576494 1.0
C      1  0.6923300462584  0.4502929933124  0.7694525717747 1.0
C      1  0.6882605473315  0.7529682225317  0.4106426011142 1.0
C      1  0.6781953334350  0.3160983803969  0.3290499822039 1.0
C      1  0.2077790472554  0.5839561397335  0.3949860708456 1.0
C      1  0.2347287210163  0.4027322211548  0.4648570697604 1.0
C      1  0.2374827813966  0.5076925072175  0.6109781807941 1.0
C      1  0.2720221473477  0.5338469150701  0.3513325577022 1.0
C      1  0.2877427600404  0.3670223666009  0.5418644554199 1.0
C      1  0.3018429211331  0.5870837074118  0.5921809801353 1.0
C      1  0.6388037417010  0.3320842755632  0.4687828426338 1.0
C      1  0.6355410827022  0.5482471778776  0.6576211753020 1.0
C      1  0.6337031045235  0.6061059538057  0.3777644843467 1.0
C      1  0.7297204740378  0.3348025288727  0.4088525179693 1.0
C      1  0.7207332749041  0.4964575916676  0.6882203872275 1.0
C      1  0.7181436580981  0.6602216057954  0.4090129303495 1.0
C      1  0.5650234664919  0.3087114153988  0.6109680408439 1.0
C      1  0.5619880944031  0.6837845886168  0.6093449358519 1.0
C      1  0.5597051740382  0.4966170616174  0.2870526443039 1.0
C      1  0.3447963331579  0.5912429890203  0.3235162872838 1.0
C      1  0.3529073294589  0.3042189898315  0.5128896376463 1.0
C      1  0.3562411607913  0.6039260759638  0.6732784579527 1.0
C      1  0.7577752104699  0.5031926567359  0.4223115467421 1.0
C      1  0.7608228053686  0.4248286972397  0.5368525181286 1.0
C      1  0.7561059741016  0.5642540236605  0.5457927657103 1.0
C      1  0.4470581864649  0.5106650636739  0.4910794280873 1.0
C      1  0.3646301829887  0.5388459767808  0.5296265380735 1.0
C      1  0.3619566008643  0.4859125538071  0.4569013833403 1.0
C      1  0.6053562620661  0.7739919116543  0.4185936326708 1.0
C      1  0.6032122589212  0.2790667676432  0.2998712220699 1.0
C      1  0.6107419158036  0.4305955525879  0.7864980946713 1.0
C      1  0.4699054294042  0.7095139900415  0.5985220055871 1.0
C      1  0.4658285753697  0.4736657813956  0.2741917670068 1.0
C      1  0.4721983859854  0.3099778604301  0.6376962118115 1.0
C      1  0.4588046360782  0.6987816757158  0.3491690149970 1.0
C      1  0.4613366703205  0.2630146612717  0.4048779073471 1.0
C      1  0.4663240327028  0.5297622663527  0.7562026474642 1.0
C      1  0.5797130335792  0.2709452560298  0.5229731210728 1.0
C      1  0.5784050510588  0.6270846492460  0.6860477707903 1.0
C      1  0.5762400458105  0.5923181303973  0.2958739776550 1.0
C      1  0.4916732530649  0.6305556100996  0.2919848261240 1.0
C      1  0.4948326504423  0.2460509424066  0.4918939640377 1.0
C      1  0.4976218851935  0.6161927759757  0.7301021976797 1.0
C      1  0.3711791143122  0.6750923209754  0.3749820479955 1.0
C      1  0.3742817119493  0.2994368825322  0.4158385534009 1.0
C      1  0.3796438575193  0.5207839502218  0.7208969754019 1.0
C      1  0.2821136269736  0.6594326123372  0.5189235875444 1.0
C      1  0.2984066022163  0.4411672520301  0.3926414553531 1.0
C      1  0.2914871730253  0.4228985841562  0.6214388813671 1.0
C      1  0.4400582952524  0.3869966196719  0.3049683451931 1.0
C      1  0.4460728825927  0.3805311369490  0.6959683073724 1.0
C      1  0.4426093409179  0.7258223836267  0.5080894827554 1.0
C      1  0.6556547060464  0.5682782487383  0.5609222102232 1.0
C      1  0.6568549275846  0.5114321098615  0.4066647414828 1.0
C      1  0.6588910320371  0.4070100461144  0.5335750813119 1.0
C      1  0.5140522602240  0.7275115654908  0.4289926538456 1.0
C      1  0.5102349404358  0.3169794568103  0.3375255825104 1.0
C      1  0.5190724660577  0.4453440219228  0.7397646181812 1.0
C      1  0.6319085784060  0.4946432232625  0.5001273008930 1.0
END
