TITL C-6063-1373-209 -3.372 3375.00 -580.98473300 0 0 72 (C2) n - 1
REM
REM Run started: at 2020.12.19 11:40:21 in /gpfs/home/chem/mssmkc/CARBON/AIRSS/Generating-Clusters/Str-Search/Higher-Symm/C4-100
REM VASP from code version vasp.5.4.4.18Apr17-6-g9f103f2a35 (build Oct 11 2019 16:45:47) gamma-only
REM
REM
REM
REM
REM ./C.cell (6bd13a13d554368a30d355f37ece5b26)
REM AIRSS Version 0.9.1 bugfix July 2018 build 013d7b7c2542+ Fri, 06 Jul 2018 19:26:36 +0100
REM compiler GCC version 6.3.0
REM options -cpp -iprefix /gpfs/warwick/csc/orac/software/Core/GCCcore/6.3.0/bin/../lib/gcc/x86_64-pc-linux-gnu/6.3.0/ -mtune=generic -march=x86-64 -g -O0
REM seed 1616186139 -2110351012 2146399581 106329323 227697363 1065063045 -1090701286 -572852353 66751568 1449505527 1500743199 -281271475
REM
REM C.POTCAR (d86ddea03c3ceb6dc662c8ad6801f873)
REM 
CELL 1.54180   15.00000   15.00000   15.00000   90.00000   90.00000   90.00000
LATT -1
SFAC C  
C      1  0.3623445242532  0.5711362811836  0.7334210125539 1.0
C      1  0.7518636954719  0.5462716090252  0.5022516599692 1.0
C      1  0.3527135662232  0.5184934692635  0.2537312572741 1.0
C      1  0.3623417896569  0.4288671783054  0.2665772407837 1.0
C      1  0.7518640741069  0.4537299605053  0.4977473984588 1.0
C      1  0.3527157112548  0.4815067764026  0.7462698965183 1.0
C      1  0.6617119435584  0.5560121430444  0.3632910448519 1.0
C      1  0.2834554760938  0.5364755531118  0.4111367667206 1.0
C      1  0.5315088331035  0.5630584530720  0.7424635528871 1.0
C      1  0.6617136704228  0.4439883014846  0.6367092715257 1.0
C      1  0.2834575647382  0.4635252627334  0.5888637560927 1.0
C      1  0.5315067136115  0.4369436274672  0.2575363087118 1.0
C      1  0.3986864336466  0.3825260538844  0.6723834614524 1.0
C      1  0.6867924484249  0.3283529748786  0.4831909903454 1.0
C      1  0.4154245600869  0.3246727802734  0.3419220689205 1.0
C      1  0.3986836752509  0.6174739772122  0.3276184431476 1.0
C      1  0.6867921661786  0.6716480998933  0.5168080920529 1.0
C      1  0.4154250080093  0.6753271230112  0.6580769808879 1.0
C      1  0.4492907897412  0.3853835973095  0.2695117177595 1.0
C      1  0.3139414977785  0.4288954551975  0.6736713910994 1.0
C      1  0.7111295014335  0.3925882794111  0.5602204455515 1.0
C      1  0.4492916903578  0.6146180423247  0.7304879375523 1.0
C      1  0.3139375223928  0.5711061483752  0.3263283359679 1.0
C      1  0.7111281810039  0.6074128731463  0.4397790395402 1.0
C      1  0.6251986887239  0.2483294418058  0.4687884132513 1.0
C      1  0.4570477719947  0.2613899804344  0.4030374736904 1.0
C      1  0.4822937267766  0.2201536543529  0.5543420772296 1.0
C      1  0.6251957114089  0.7516694001745  0.5312103951708 1.0
C      1  0.4570485295067  0.7386103126934  0.5969599793676 1.0
C      1  0.4822939761049  0.7798440770908  0.4456539972430 1.0
C      1  0.3649383210487  0.6671969895169  0.4757794779836 1.0
C      1  0.5758908838102  0.6526000919780  0.6206565632778 1.0
C      1  0.5411833078078  0.7175486184423  0.4027064557060 1.0
C      1  0.3649385854637  0.3328026838546  0.5242200001795 1.0
C      1  0.5758906941025  0.3473996627151  0.3793431803813 1.0
C      1  0.5411822195349  0.2824460760079  0.5972937217831 1.0
C      1  0.5240020832110  0.4638726368779  0.7515471605258 1.0
C      1  0.6791503264866  0.4543067396581  0.3511836775865 1.0
C      1  0.2925624192168  0.4363764449083  0.4213708010673 1.0
C      1  0.5240006021226  0.5361294659149  0.2484543734850 1.0
C      1  0.6791522275560  0.5456939256618  0.6488165050968 1.0
C      1  0.2925629103070  0.5636240931111  0.5786294254396 1.0
C      1  0.4315111673734  0.5146543925470  0.4540016744389 1.0
C      1  0.5105087643024  0.5196948454963  0.5792157164450 1.0
C      1  0.5648248964033  0.5564781189386  0.3937601548817 1.0
C      1  0.4315116018336  0.4853432428914  0.5459994446291 1.0
C      1  0.5105088107550  0.4803037480980  0.4207877518681 1.0
C      1  0.5648253740728  0.4435180178086  0.6062404441119 1.0
C      1  0.6068449908851  0.4063199948373  0.3079103161783 1.0
C      1  0.2947632074549  0.4010007709875  0.5104180910084 1.0
C      1  0.5875134840518  0.4078785240767  0.6977880183113 1.0
C      1  0.6068480686376  0.5936823262730  0.6920908279737 1.0
C      1  0.2947622051893  0.5989996481428  0.4895825133871 1.0
C      1  0.5875109856980  0.5921226463093  0.3022140226486 1.0
C      1  0.5258659934293  0.3704843255092  0.5528360040845 1.0
C      1  0.5402197032789  0.3958622636109  0.4519073010693 1.0
C      1  0.4291580907478  0.3871150404854  0.5773087010457 1.0
C      1  0.5258669934035  0.6295113700061  0.4471659190189 1.0
C      1  0.5402197777799  0.6041361820772  0.5480953915545 1.0
C      1  0.4291572961768  0.6128819530733  0.4226929264194 1.0
C      1  0.4366037354151  0.4290235897795  0.7503229539929 1.0
C      1  0.7189224252957  0.4056889791350  0.4219870126756 1.0
C      1  0.3359644571225  0.3847499684379  0.3491421129237 1.0
C      1  0.4366015949597  0.5709793712097  0.2496775068874 1.0
C      1  0.7189233628765  0.5943124324357  0.5780122945798 1.0
C      1  0.3359653585720  0.6152509090424  0.6508582583745 1.0
C      1  0.5793806261762  0.7861518005851  0.4547359067272 1.0
C      1  0.4168155297587  0.7456483754276  0.5093708661655 1.0
C      1  0.5599754932958  0.7453527746370  0.6033749405188 1.0
C      1  0.5793808236801  0.2138472119048  0.5452612183070 1.0
C      1  0.4168154087913  0.2543523403148  0.4906265421955 1.0
C      1  0.5599751505993  0.2546465202071  0.3966234184873 1.0
END
