TITL C-6063-1373-109 -3.145 3375.00 -513.22861226 0 0 66 (D2h) n - 1
REM
REM Run started: at 2020.12.18 16:37:27 in /gpfs/home/chem/mssmkc/CARBON/AIRSS/Generating-Clusters/Str-Search/Higher-Symm/C4-100
REM VASP from code version vasp.5.4.4.18Apr17-6-g9f103f2a35 (build Oct 11 2019 16:45:47) gamma-only
REM
REM
REM
REM
REM ./C.cell (6bd13a13d554368a30d355f37ece5b26)
REM AIRSS Version 0.9.1 bugfix July 2018 build 013d7b7c2542+ Fri, 06 Jul 2018 19:26:36 +0100
REM compiler GCC version 6.3.0
REM options -cpp -iprefix /gpfs/warwick/csc/orac/software/Core/GCCcore/6.3.0/bin/../lib/gcc/x86_64-pc-linux-gnu/6.3.0/ -mtune=generic -march=x86-64 -g -O0
REM seed -1079138569 -678543731 -690220084 -1631263081 1444760524 844676273 896556926 -1931807770 -2003584407 -1278982204 1494155908 -1368151876
REM
REM C.POTCAR (d86ddea03c3ceb6dc662c8ad6801f873)
REM 
CELL 1.54180   15.00000   15.00000   15.00000   90.00000   90.00000   90.00000
LATT -1
SFAC C  
C      1  0.4560186798129  0.4235605393085  0.6919190309931 1.0
C      1  0.5439814677865  0.5764397121152  0.6919187202813 1.0
C      1  0.4560029179155  0.4235711493147  0.2977252339086 1.0
C      1  0.5439969730865  0.5764286613591  0.2977249470195 1.0
C      1  0.5439814647933  0.4235604542468  0.6919189337674 1.0
C      1  0.4560186771599  0.5764396230406  0.6919188185734 1.0
C      1  0.5439969774619  0.4235711730091  0.2977251535366 1.0
C      1  0.4560029227706  0.5764286803376  0.2977250279381 1.0
C      1  0.6937558718472  0.3156443913664  0.6065674587911 1.0
C      1  0.3062441286662  0.6843555788466  0.6065670252444 1.0
C      1  0.6938111058527  0.3153729403361  0.3850232307907 1.0
C      1  0.3061888915455  0.6846270940630  0.3850227762024 1.0
C      1  0.3062441768344  0.3156444041664  0.6065675624929 1.0
C      1  0.6937559176366  0.6843555947996  0.6065669161743 1.0
C      1  0.3061888471223  0.3153729196843  0.3850233711971 1.0
C      1  0.6938110581755  0.6846270776012  0.3850226372446 1.0
C      1  0.4485682883007  0.6223227992304  0.5476770646932 1.0
C      1  0.5514317735580  0.3776771878518  0.5476772638921 1.0
C      1  0.4485879672660  0.6223964790695  0.4423281788100 1.0
C      1  0.5514119801296  0.3776035257785  0.4423283639813 1.0
C      1  0.5514317559899  0.6223227917598  0.5476770335875 1.0
C      1  0.4485682686905  0.3776771801951  0.5476772950486 1.0
C      1  0.5514120077678  0.6223964960547  0.4423281325900 1.0
C      1  0.4485879924986  0.3776035422561  0.4423284098013 1.0
C      1  0.6011529369003  0.5525693908830  0.6122002608522 1.0
C      1  0.3988471613541  0.4474306175830  0.6122004928812 1.0
C      1  0.6012634379460  0.5527161700616  0.3774401238121 1.0
C      1  0.3987364807452  0.4472838203251  0.3774403656322 1.0
C      1  0.3988471516594  0.5525693907207  0.6122003146579 1.0
C      1  0.6011529278431  0.4474306213433  0.6122004392284 1.0
C      1  0.3987364895187  0.5527161718361  0.3774401860585 1.0
C      1  0.6012634460327  0.4472838260995  0.3774403031966 1.0
C      1  0.5427649866152  0.7750605711748  0.3825113578229 1.0
C      1  0.4572349624435  0.2249395463417  0.3825111817506 1.0
C      1  0.5427779205942  0.7750659251922  0.6075368288847 1.0
C      1  0.4572221240098  0.2249339623602  0.6075366911686 1.0
C      1  0.4572349485608  0.7750605798882  0.3825113828632 1.0
C      1  0.5427649755214  0.2249395535181  0.3825111578118 1.0
C      1  0.4572221332901  0.7750659225123  0.6075368237049 1.0
C      1  0.5427779280892  0.2249339605120  0.6075366970428 1.0
C      1  0.2570130000301  0.3704481226006  0.5405033263182 1.0
C      1  0.7429869391176  0.6295518905779  0.5405026576485 1.0
C      1  0.2573537979997  0.3704777112173  0.4507402444375 1.0
C      1  0.7426462158143  0.6295223165743  0.4507395745204 1.0
C      1  0.7429870370377  0.3704480914236  0.5405032408719 1.0
C      1  0.2570130954990  0.6295518490295  0.5405027487311 1.0
C      1  0.7426461525875  0.3704777175862  0.4507401457857 1.0
C      1  0.2573537337937  0.6295223114689  0.4507396715503 1.0
C      1  0.3979579490092  0.2892258978959  0.3995805319483 1.0
C      1  0.6020419914307  0.7107741044559  0.3995802417126 1.0
C      1  0.3979225108200  0.2894675561476  0.5912389981307 1.0
C      1  0.6020775353567  0.7105324200734  0.5912387716444 1.0
C      1  0.6020419991451  0.2892259058438  0.3995804649421 1.0
C      1  0.3979579540697  0.7107741091108  0.3995803088642 1.0
C      1  0.6020775334552  0.2894675610885  0.5912389859813 1.0
C      1  0.3979225087544  0.7105324218009  0.5912387865073 1.0
C      1  0.6950251360943  0.5905358148134  0.6127336928076 1.0
C      1  0.3049749975688  0.4094641859256  0.6127342332137 1.0
C      1  0.6952099810342  0.5908845779841  0.3777252030982 1.0
C      1  0.3047899078626  0.4091154090158  0.3777257596551 1.0
C      1  0.3049749662646  0.5905357957560  0.6127337547072 1.0
C      1  0.6950251061466  0.4094641729414  0.6127341756962 1.0
C      1  0.3047899341182  0.5908845966531  0.3777252562471 1.0
C      1  0.6952100095783  0.4091154353041  0.3777257052300 1.0
C      1  0.4999999823766  0.4999998509259  0.2393352062301 1.0
C      1  0.4999999012429  0.5000001476424  0.7501740195918 1.0
END
