TITL C-6063-1373-66 -0.256 3375.00 -35.57073624 0 0 5 (D(inf)h) n - 1
REM
REM Run started: at 2020.12.18 08:16:50 in /gpfs/home/chem/mssmkc/CARBON/AIRSS/Generating-Clusters/Str-Search/Higher-Symm/C4-100
REM VASP from code version vasp.5.4.4.18Apr17-6-g9f103f2a35 (build Oct 11 2019 16:45:47) gamma-only
REM
REM
REM
REM
REM ./C.cell (6bd13a13d554368a30d355f37ece5b26)
REM AIRSS Version 0.9.1 bugfix July 2018 build 013d7b7c2542+ Fri, 06 Jul 2018 19:26:36 +0100
REM compiler GCC version 6.3.0
REM options -cpp -iprefix /gpfs/warwick/csc/orac/software/Core/GCCcore/6.3.0/bin/../lib/gcc/x86_64-pc-linux-gnu/6.3.0/ -mtune=generic -march=x86-64 -g -O0
REM seed 326394943 59647042 2067173413 1917647708 1033727953 38063096 159308752 -221223579 65634306 547027936 -80555005 -59730114
REM
REM C.POTCAR (d86ddea03c3ceb6dc662c8ad6801f873)
REM 
CELL 1.54180   15.00000   15.00000   15.00000   90.00000   90.00000   90.00000
LATT -1
SFAC C  
C      1  0.5018813106075  0.4113613837119  0.4970053854676 1.0
C      1  0.5018766371458  0.5833903342765  0.4969563699698 1.0
C      1  0.5019895754612  0.6702367080062  0.4968528637659 1.0
C      1  0.5019810134084  0.3245874592066  0.4968584619623 1.0
C      1  0.5019054633771  0.4973824147988  0.4969154188344 1.0
END
