TITL C-60419-6122-1 -8.002 3375.00 -1379.52134638 0 0 169 (C1) n - 1
REM
REM Run started: at 2020.12.31 02:59:57 in /rds/project/t2_vol4/rds-t2-cs072/BORA/CARBON/AIRSS/Generating-Clusters/Str-Search/Higher-Symm/C100-200
REM VASP from code version vasp.5.4.4.18Apr17-6-g9f103f2a35 (build Oct 11 2019 16:45:47) gamma-only
REM
REM
REM
REM
REM ./C.cell (533062f00bc710175b3da973d35f2034)
REM AIRSS Version 0.9.1 bugfix July 2018 build 013d7b7c2542+ Fri, 06 Jul 2018 19:26:36 +0100
REM compiler GCC version 4.8.5 20150623 (Red Hat 4.8.5-39)
REM options -cpp -mtune=generic -march=x86-64 -g -O0
REM seed 1182865338 1731075268 1114011334 222241132 -1657731015 677756598 -1131013310 1167460029 110849360 -928936301 477953557 -1593833916
REM
REM C.POTCAR (d86ddea03c3ceb6dc662c8ad6801f873)
REM 
CELL 1.54180   15.00000   15.00000   15.00000   90.00000   90.00000   90.00000
LATT -1
SFAC C  
C      1  0.7400478495064  0.3500897841680  0.7663786963662 1.0
C      1  0.6901023307787  0.6196347445837  0.7759655427614 1.0
C      1  0.4631787666541  0.7579499885286  0.8174416082068 1.0
C      1  0.2050862088262  0.4909068094265  0.7649282949010 1.0
C      1  0.4217871542635  0.2155446587077  0.7834925924330 1.0
C      1  0.8557967149299  0.6603864737644  0.3691658296169 1.0
C      1  0.4036836159570  0.8877611542182  0.4207009089103 1.0
C      1  0.1095512122579  0.5776620909104  0.3928616572915 1.0
C      1  0.3776778111425  0.1236582954427  0.4037879289543 1.0
C      1  0.8213796943967  0.2182410739275  0.4206607525633 1.0
C      1  0.8891585851181  0.6021524172160  0.4235660905060 1.0
C      1  0.4792113825437  0.8954840577492  0.4611025213302 1.0
C      1  0.1327879106625  0.6606032931288  0.4257637217636 1.0
C      1  0.3054633588776  0.1524545431634  0.4510376578236 1.0
C      1  0.7649209070332  0.1643370401040  0.4547463101242 1.0
C      1  0.8268724515903  0.4030632928688  0.5643211771382 1.0
C      1  0.6830388070088  0.7966397512728  0.5806350955036 1.0
C      1  0.2882875788618  0.7870209864345  0.6472554017705 1.0
C      1  0.1635991466939  0.3920249336591  0.5566399007458 1.0
C      1  0.5084158705729  0.1706119310209  0.5954805614837 1.0
C      1  0.4334886573690  0.5672539724690  0.4728846546796 1.0
C      1  0.4269863703144  0.4641932253338  0.4673046170840 1.0
C      1  0.5197782347296  0.4358925325454  0.4465679178895 1.0
C      1  0.5788795984422  0.4397616806714  0.5298385929719 1.0
C      1  0.5338697289553  0.5929542245418  0.4692828685616 1.0
C      1  0.3437779283700  0.6017537327609  0.6135260001764 1.0
C      1  0.3526265296151  0.3932035523278  0.6108763788244 1.0
C      1  0.5707558753521  0.3266670542483  0.6422156705898 1.0
C      1  0.6792739821488  0.5343272305299  0.6249248171002 1.0
C      1  0.5448186401218  0.6775777873401  0.6242726432887 1.0
C      1  0.5706020700954  0.2386518940927  0.2126803823425 1.0
C      1  0.8157059699869  0.4686822789913  0.2086096573537 1.0
C      1  0.5990806461041  0.7271010815830  0.1912614902468 1.0
C      1  0.2693532584237  0.6772523341569  0.2054986608913 1.0
C      1  0.2422640867823  0.3404063449241  0.2183344352434 1.0
C      1  0.6702785103660  0.1954172028080  0.6008301016415 1.0
C      1  0.8287867474308  0.5631683183365  0.5765539384354 1.0
C      1  0.5331899384701  0.8433937158448  0.6150913320710 1.0
C      1  0.1850494275693  0.6562239611683  0.5926557038913 1.0
C      1  0.2673936602115  0.2556097176895  0.5818037929229 1.0
C      1  0.3806218966606  0.6450562180911  0.3196076775947 1.0
C      1  0.3237749100956  0.4499486457001  0.3105376202627 1.0
C      1  0.5806818744461  0.3107719938896  0.3447503082930 1.0
C      1  0.6926686840467  0.4414359255057  0.3094969053857 1.0
C      1  0.5490330033239  0.7005941356037  0.3351106351229 1.0
C      1  0.7899864997255  0.3790261443564  0.2020265143700 1.0
C      1  0.6653283360208  0.6790966745600  0.1434285635311 1.0
C      1  0.3371002475495  0.7377507165635  0.1917929229334 1.0
C      1  0.2144676807165  0.4290319959683  0.1967201474912 1.0
C      1  0.4848432327603  0.2380616091361  0.1750397738740 1.0
C      1  0.5949603250960  0.7195868257608  0.6894720696239 1.0
C      1  0.3143060140521  0.6453759716550  0.6918542281627 1.0
C      1  0.2850603520566  0.3889790585070  0.6738179947706 1.0
C      1  0.5550328458030  0.2612722906616  0.7057156888425 1.0
C      1  0.7484942801551  0.4914975613293  0.6903276809927 1.0
C      1  0.5689867088809  0.7618942459986  0.4840095395268 1.0
C      1  0.2941830620938  0.6644997498013  0.4677448224230 1.0
C      1  0.2922160129307  0.3635147724720  0.4589382448963 1.0
C      1  0.5500622280742  0.2167450049285  0.5155392032138 1.0
C      1  0.7317549395982  0.4858852261776  0.4736853972236 1.0
C      1  0.7942268635777  0.6465093583892  0.6345371251177 1.0
C      1  0.4508887994551  0.8485050849512  0.6736477721934 1.0
C      1  0.1446329018495  0.5662786255989  0.6333940347745 1.0
C      1  0.3368952475948  0.2066739691366  0.6438688166632 1.0
C      1  0.7500682031100  0.2486016296877  0.6378349507983 1.0
C      1  0.2763442751799  0.7784593599937  0.3627622029761 1.0
C      1  0.1618556732920  0.4183117443831  0.3665508607060 1.0
C      1  0.5486300455904  0.1500022149751  0.3703508475043 1.0
C      1  0.8379379511827  0.3879107730724  0.3841766207058 1.0
C      1  0.7031365067934  0.7090817746870  0.3404580266398 1.0
C      1  0.6912071330858  0.3302698378367  0.5238677121256 1.0
C      1  0.7166283942171  0.6543670135524  0.5050958329877 1.0
C      1  0.4137019851019  0.7549331375674  0.5530457835923 1.0
C      1  0.2327461006800  0.5236071843841  0.5212990514436 1.0
C      1  0.4127498356181  0.2691469428079  0.5242685480862 1.0
C      1  0.5339543027856  0.4164415868498  0.6133298048390 1.0
C      1  0.5837994776516  0.5087507468695  0.6069358703246 1.0
C      1  0.5270194710441  0.5882947325363  0.5843395488977 1.0
C      1  0.4256574779886  0.5590229545364  0.5777747104400 1.0
C      1  0.4271398047151  0.4510878540758  0.5797555658782 1.0
C      1  0.3337817150002  0.8427862585940  0.3899545438412 1.0
C      1  0.1144850566610  0.4980685847194  0.3679114722487 1.0
C      1  0.4582167691717  0.1254062365006  0.3791729259844 1.0
C      1  0.8437217353951  0.2996870948296  0.3969545495159 1.0
C      1  0.7952702468770  0.7041522783367  0.3271217085638 1.0
C      1  0.5513463538602  0.8872063945524  0.5211448483488 1.0
C      1  0.1489093838576  0.7031709235309  0.5060575650822 1.0
C      1  0.2537928125953  0.1889738939961  0.5065072505436 1.0
C      1  0.6848611351131  0.1519984397243  0.5005039501616 1.0
C      1  0.8745147368506  0.5427370286094  0.4879720590154 1.0
C      1  0.4978080476869  0.7262479418037  0.1891410480045 1.0
C      1  0.2666154143459  0.5806547604615  0.2042333283572 1.0
C      1  0.3392642660922  0.3170522324884  0.2113440677430 1.0
C      1  0.6434475005426  0.3103027463912  0.2002576228753 1.0
C      1  0.7530104193161  0.5459726212634  0.1930870651939 1.0
C      1  0.7084003662952  0.4344639711871  0.7648481416491 1.0
C      1  0.6237770401456  0.6835403063426  0.7732939089974 1.0
C      1  0.3462103800311  0.6426663188154  0.7755147287027 1.0
C      1  0.2809967804539  0.4373683701369  0.7594737803336 1.0
C      1  0.4975321909087  0.2695345696518  0.7838403554719 1.0
C      1  0.4779032564688  0.6703896015333  0.8490587413682 1.0
C      1  0.3911498045849  0.5203611085730  0.8710818832352 1.0
C      1  0.4144548533893  0.3868899479012  0.8746360035052 1.0
C      1  0.5512701026072  0.4247695262106  0.8439148032768 1.0
C      1  0.6305280183371  0.5628844358453  0.8288454986545 1.0
C      1  0.6663263574632  0.4708587940947  0.4021580370441 1.0
C      1  0.5716558261173  0.6787272219077  0.4276355809161 1.0
C      1  0.3799055207268  0.6360523867866  0.4222449110974 1.0
C      1  0.3439732229278  0.4369480944585  0.4112690984846 1.0
C      1  0.5262349579466  0.3409779900235  0.4135948168621 1.0
C      1  0.6209407474514  0.8086471636416  0.6508842455761 1.0
C      1  0.2441601284843  0.7102816611060  0.6558297496472 1.0
C      1  0.2116450310886  0.3378533274038  0.6161261307864 1.0
C      1  0.5811892376419  0.1728950139559  0.6579131207114 1.0
C      1  0.8220825602823  0.4731926272460  0.6242669052075 1.0
C      1  0.6822283424076  0.5206128879813  0.2459553977874 1.0
C      1  0.4770288970513  0.6681760157376  0.2790365717138 1.0
C      1  0.3451360485891  0.5517788104355  0.2670328221026 1.0
C      1  0.3802472376472  0.3893136501054  0.2535374223331 1.0
C      1  0.6176420524824  0.3743630870149  0.2757704056734 1.0
C      1  0.4535755053763  0.4380146825823  0.2191747186263 1.0
C      1  0.5472065637721  0.4409249110333  0.2491050540729 1.0
C      1  0.5889865972295  0.5318501889232  0.2288256989170 1.0
C      1  0.5030672827557  0.5791579121845  0.2459804199958 1.0
C      1  0.4264158304275  0.5262516162651  0.2162280735996 1.0
C      1  0.5730020846730  0.2210427450347  0.3088706016244 1.0
C      1  0.7914220861762  0.4164932202533  0.2950077270114 1.0
C      1  0.6229903994393  0.7261224091898  0.2855234271862 1.0
C      1  0.3134569408629  0.7177338408298  0.2877022686654 1.0
C      1  0.2306378520410  0.4102706822115  0.2933019507694 1.0
C      1  0.7691409543566  0.3216932278847  0.5715014424284 1.0
C      1  0.7408987268967  0.7110404694676  0.5744173024617 1.0
C      1  0.3738752815368  0.8086860015695  0.6254969437807 1.0
C      1  0.1624879668535  0.4927504671638  0.5730572002327 1.0
C      1  0.4182677107583  0.2018571018060  0.5924735514429 1.0
C      1  0.6714069053294  0.6744757644921  0.4229248757562 1.0
C      1  0.3744016164036  0.7149142110884  0.4832279044660 1.0
C      1  0.2663832072710  0.4628013683911  0.4631066478404 1.0
C      1  0.4869414833553  0.2775682756500  0.4736811133347 1.0
C      1  0.6655214475086  0.4144378085998  0.4890566523024 1.0
C      1  0.1953541390611  0.3845052587686  0.4546206622634 1.0
C      1  0.6013599691003  0.1574770121245  0.4566255144541 1.0
C      1  0.8290970968429  0.4480071817457  0.4692056879518 1.0
C      1  0.6340424361956  0.8334715035867  0.4991107105358 1.0
C      1  0.2174878174140  0.7154966118018  0.4291422627938 1.0
C      1  0.6313371205316  0.4704028821364  0.8163196664833 1.0
C      1  0.5656484316510  0.6395038006638  0.8385704094981 1.0
C      1  0.3950156311148  0.6140808523434  0.8437452982593 1.0
C      1  0.3548997833449  0.4454124132839  0.8215446168948 1.0
C      1  0.4990629725958  0.3478131923918  0.8362535877696 1.0
C      1  0.7580600368982  0.2803211567987  0.7218315605703 1.0
C      1  0.7374565063031  0.5914301077962  0.6974912111801 1.0
C      1  0.4585150251929  0.8192075137366  0.7609424889651 1.0
C      1  0.1513917484365  0.5384203546037  0.7213792962113 1.0
C      1  0.3560347118168  0.2011786176789  0.7328940622550 1.0
C      1  0.7301647655765  0.6251985777748  0.1435260984868 1.0
C      1  0.4202401704983  0.7530891892745  0.1547832036290 1.0
C      1  0.2191254853836  0.5128784679388  0.1664611197646 1.0
C      1  0.4028761186990  0.2567921445242  0.1724811949116 1.0
C      1  0.7266068256345  0.3214936531672  0.1699505173473 1.0
C      1  0.3333858798820  0.3228520340054  0.5387589386274 1.0
C      1  0.6193479738448  0.2768511418477  0.5655928481504 1.0
C      1  0.7292521727075  0.5605640293480  0.5374135554053 1.0
C      1  0.5119828405216  0.7526515814519  0.5657410942793 1.0
C      1  0.2676588873890  0.6098318247087  0.5460711902076 1.0
C      1  0.4176675178646  0.4541007317105  0.9563135579476 1.0
C      1  0.4830914305309  0.4768301208630  0.8934672593040 1.0
C      1  0.5717789414283  0.5130042768260  0.4066390210811 1.0
C      1  0.5401920624880  0.5172243833640  0.3150910920123 1.0
END
