TITL C-6063-1373-82 -0.561 3375.00 -82.33491193 0 0 11 (C1) n - 1
REM
REM Run started: at 2020.12.18 10:59:36 in /gpfs/home/chem/mssmkc/CARBON/AIRSS/Generating-Clusters/Str-Search/Higher-Symm/C4-100
REM VASP from code version vasp.5.4.4.18Apr17-6-g9f103f2a35 (build Oct 11 2019 16:45:47) gamma-only
REM
REM
REM
REM
REM ./C.cell (6bd13a13d554368a30d355f37ece5b26)
REM AIRSS Version 0.9.1 bugfix July 2018 build 013d7b7c2542+ Fri, 06 Jul 2018 19:26:36 +0100
REM compiler GCC version 6.3.0
REM options -cpp -iprefix /gpfs/warwick/csc/orac/software/Core/GCCcore/6.3.0/bin/../lib/gcc/x86_64-pc-linux-gnu/6.3.0/ -mtune=generic -march=x86-64 -g -O0
REM seed -974673628 -754471391 -853509071 -1513847585 -626112905 -2081696788 2109619194 11727900 141904751 1059655872 1298440320 749094782
REM
REM C.POTCAR (d86ddea03c3ceb6dc662c8ad6801f873)
REM 
CELL 1.54180   15.00000   15.00000   15.00000   90.00000   90.00000   90.00000
LATT -1
SFAC C  
C      1  0.4287713290461  0.4996300025118  0.3977100503085 1.0
C      1  0.3362710011773  0.5110563428554  0.5560376586784 1.0
C      1  0.4915844520944  0.4849162932099  0.6166092805974 1.0
C      1  0.6224406829609  0.4998688473281  0.5380770933353 1.0
C      1  0.5799484648122  0.5054402006275  0.3921629474818 1.0
C      1  0.4085045284826  0.5240400993137  0.6160844316926 1.0
C      1  0.3864789591645  0.4871403074474  0.4739445260155 1.0
C      1  0.5021833383072  0.5038432621007  0.3515451200550 1.0
C      1  0.6417215458864  0.5066696850067  0.4522056001051 1.0
C      1  0.5816765483953  0.5017712058402  0.6134422715432 1.0
C      1  0.4329218496730  0.4460887537586  0.5476877201872 1.0
END
