TITL C-6065-1139-2 -7.443 3375.00 -1267.50195953 0 0 154 (C1) n - 1
REM
REM Run started: at 2020.11.30 23:13:29 in /rds/project/t2_vol4/rds-t2-cs072/BORA/CARBON/AIRSS/Generating-Clusters/Str-Search/Higher-Symm/C100-200
REM VASP from code version vasp.5.4.4.18Apr17-6-g9f103f2a35 (build Oct 11 2019 16:45:47) gamma-only
REM
REM
REM
REM
REM ./C.cell (533062f00bc710175b3da973d35f2034)
REM AIRSS Version 0.9.1 bugfix July 2018 build 013d7b7c2542+ Fri, 06 Jul 2018 19:26:36 +0100
REM compiler GCC version 4.8.5 20150623 (Red Hat 4.8.5-39)
REM options -cpp -mtune=generic -march=x86-64 -g -O0
REM seed 1415254109 -105366332 794606194 220116303 -142907802 401649267 -1279104851 299455762 1872698803 519456345 -1396069651 1773241701
REM
REM C.POTCAR (d86ddea03c3ceb6dc662c8ad6801f873)
REM 
CELL 1.54180   15.00000   15.00000   15.00000   90.00000   90.00000   90.00000
LATT -1
SFAC C  
C      1  0.3320722407479  0.2964043002612  0.4291924236030 1.0
C      1  0.2534950197528  0.4204820667964  0.4377005402471 1.0
C      1  0.2547118937572  0.5660526830698  0.4415148153822 1.0
C      1  0.3349251154622  0.6866242307362  0.4618712706731 1.0
C      1  0.4651204384796  0.7469307135652  0.4616327869783 1.0
C      1  0.6086695654961  0.7299578832047  0.4400536894754 1.0
C      1  0.7204413687360  0.6368492018515  0.4364224250786 1.0
C      1  0.7641863474181  0.4961199969656  0.4364540001013 1.0
C      1  0.7234770424058  0.3546778343565  0.4378300005070 1.0
C      1  0.6120981366635  0.2569851186768  0.4368056592477 1.0
C      1  0.4663058332672  0.2351335908506  0.4361970654792 1.0
C      1  0.8466027458557  0.4031693989133  0.5936716513411 1.0
C      1  0.7411930853287  0.2353763870357  0.5884180864140 1.0
C      1  0.5478085629406  0.1440097467799  0.5920100711793 1.0
C      1  0.3529537346290  0.1766727540294  0.5910334814989 1.0
C      1  0.2044245753391  0.3100082716869  0.5908613685363 1.0
C      1  0.1449527432578  0.4998198039926  0.5996249886896 1.0
C      1  0.1964137743535  0.6921797918541  0.6005055575598 1.0
C      1  0.3474247781090  0.8302197662656  0.6023891046187 1.0
C      1  0.5508484406490  0.8556850806262  0.5991819703786 1.0
C      1  0.7307174002982  0.7699401485450  0.5975701103815 1.0
C      1  0.8383449960949  0.6027433768227  0.5896976576352 1.0
C      1  0.2480980720366  0.4507858788417  0.2053647176185 1.0
C      1  0.2499687532167  0.5462486178928  0.2095918464943 1.0
C      1  0.3526045236454  0.7035643959079  0.2116475058378 1.0
C      1  0.4381311553264  0.7433241030044  0.2115517729815 1.0
C      1  0.6259661574756  0.7198459047548  0.2072048149043 1.0
C      1  0.6987733308133  0.6588043968625  0.2037435085666 1.0
C      1  0.7508498941620  0.4755744612018  0.2011366174206 1.0
C      1  0.7228845733094  0.3847846138298  0.2005917997280 1.0
C      1  0.5805068035604  0.2621373141186  0.2015692932992 1.0
C      1  0.4860256730499  0.2472982432025  0.2013401338259 1.0
C      1  0.3255924623328  0.2973731834319  0.1936479660000 1.0
C      1  0.7421147549750  0.7782053239207  0.5165162550012 1.0
C      1  0.8551079348310  0.6047124308419  0.5087124343609 1.0
C      1  0.8602392790858  0.3945980842187  0.5126383973945 1.0
C      1  0.7471589721785  0.2176672147664  0.5074314408410 1.0
C      1  0.5577744293800  0.1268623010178  0.5115286124442 1.0
C      1  0.3492055982088  0.1602828373143  0.5099840584168 1.0
C      1  0.1923773232650  0.2970765278064  0.5101325314527 1.0
C      1  0.1315905855359  0.4953929242224  0.5185879396705 1.0
C      1  0.1863878609379  0.6935046521619  0.5185694227217 1.0
C      1  0.3444699292228  0.8371603660067  0.5201221293699 1.0
C      1  0.5561876164352  0.8646790984684  0.5172402205749 1.0
C      1  0.3164099982931  0.5566939431498  0.7706977697331 1.0
C      1  0.3717432949500  0.6503379392754  0.7720904779569 1.0
C      1  0.4695743851751  0.6951853829232  0.7714215859255 1.0
C      1  0.5773079384725  0.6762002228915  0.7694675743311 1.0
C      1  0.6631899020191  0.6029776751299  0.7678048321831 1.0
C      1  0.6967118598373  0.5008093119005  0.7674570626057 1.0
C      1  0.6652983725799  0.3984872159789  0.7658293009716 1.0
C      1  0.5799967541898  0.3311451440724  0.7623787938901 1.0
C      1  0.4726545302991  0.3104259836116  0.7656711902476 1.0
C      1  0.3743688884807  0.3526330005336  0.7673049636753 1.0
C      1  0.3173901272873  0.4440154572781  0.7684771912268 1.0
C      1  0.4585215936253  0.1999937810134  0.2802214408983 1.0
C      1  0.3010510053061  0.2675308851008  0.2754476053850 1.0
C      1  0.2096864845811  0.4130683168646  0.2849051262888 1.0
C      1  0.2124828063980  0.5791138758746  0.2904441125086 1.0
C      1  0.3065372820375  0.7216635902825  0.2942927821592 1.0
C      1  0.4552230798060  0.7910522454730  0.2935976066930 1.0
C      1  0.6254810149577  0.7702875107033  0.2885535598888 1.0
C      1  0.7527208226836  0.6631600379813  0.2821661378009 1.0
C      1  0.8003902749327  0.4973954156831  0.2797584387602 1.0
C      1  0.7520531473453  0.3385054127103  0.2790629552629 1.0
C      1  0.6224047383668  0.2262010638370  0.2788118986379 1.0
C      1  0.5469948972510  0.1777877735801  0.3248687460790 1.0
C      1  0.3691989304878  0.2036997007862  0.3187641173024 1.0
C      1  0.2296467456340  0.3243263738824  0.3205170527758 1.0
C      1  0.1773994484457  0.4956527826676  0.3343460639407 1.0
C      1  0.2374742926196  0.6659629331225  0.3330094044920 1.0
C      1  0.3687279755311  0.7839421637985  0.3412618785397 1.0
C      1  0.5435346844121  0.8069769291833  0.3313152797620 1.0
C      1  0.7113927990415  0.7421981506178  0.3321529730697 1.0
C      1  0.8042295773437  0.5880663470302  0.3185124636425 1.0
C      1  0.8100867303421  0.4076576241989  0.3254691670011 1.0
C      1  0.7073555179372  0.2602544095090  0.3169463117640 1.0
C      1  0.3705929510347  0.2186962861398  0.6745303650482 1.0
C      1  0.2427430385569  0.3356278758864  0.6737569373029 1.0
C      1  0.1920509443467  0.5015241859434  0.6816855296610 1.0
C      1  0.2367565770479  0.6700245758452  0.6844311046052 1.0
C      1  0.3673453823847  0.7879064183701  0.6859392384859 1.0
C      1  0.5419887486090  0.8105084538005  0.6830749119665 1.0
C      1  0.6994231060985  0.7353539600985  0.6798586464854 1.0
C      1  0.7944557444701  0.5900635702226  0.6730694807997 1.0
C      1  0.8018885181669  0.4169935626876  0.6760576182416 1.0
C      1  0.7085115039473  0.2724651621945  0.6688883683644 1.0
C      1  0.5407393049463  0.1948207094697  0.6706787512748 1.0
C      1  0.3410208670169  0.5463324097534  0.8699292333307 1.0
C      1  0.3892472831373  0.6283378604149  0.8722259531979 1.0
C      1  0.4759671296526  0.6682796702750  0.8716434282083 1.0
C      1  0.5695912841451  0.6516098895215  0.8688226336363 1.0
C      1  0.6423550804631  0.5901055317226  0.8682931379522 1.0
C      1  0.6719567985698  0.4990636702925  0.8686494692962 1.0
C      1  0.6458869342143  0.4068658851212  0.8672903414104 1.0
C      1  0.5738131729014  0.3439562156581  0.8652772815296 1.0
C      1  0.4790839894623  0.3303430526105  0.8669806195941 1.0
C      1  0.3918797179774  0.3699202531746  0.8686496841929 1.0
C      1  0.3412817468800  0.4511077585867  0.8688333076025 1.0
C      1  0.8062977481432  0.4076415023604  0.4286962525828 1.0
C      1  0.7092238675795  0.2584627077856  0.4230602946003 1.0
C      1  0.5486600980144  0.1819121367865  0.4277013096016 1.0
C      1  0.3723293223785  0.2074116370895  0.4241173384126 1.0
C      1  0.2380837444793  0.3242518499665  0.4251653661992 1.0
C      1  0.1878142193768  0.4937804295752  0.4366566836508 1.0
C      1  0.2394912739740  0.6626469209999  0.4392170831219 1.0
C      1  0.3712754720995  0.7789652951403  0.4422445827442 1.0
C      1  0.5449060940430  0.8039788165477  0.4380087853475 1.0
C      1  0.7070055764022  0.7342249225314  0.4344943418117 1.0
C      1  0.8033028031891  0.5856623651222  0.4245809764929 1.0
C      1  0.6128323816977  0.7543490272898  0.7161130840549 1.0
C      1  0.7316893705374  0.6511107526804  0.7115801352821 1.0
C      1  0.7805227291279  0.5023370080468  0.7106430480228 1.0
C      1  0.7373217441926  0.3519507404873  0.7093025961879 1.0
C      1  0.6080769722824  0.2693081340162  0.6831685981136 1.0
C      1  0.4612167590712  0.2251930958779  0.7096086796851 1.0
C      1  0.3191427676658  0.2898678191383  0.7100742932371 1.0
C      1  0.2361861331861  0.4226779400836  0.7128384023049 1.0
C      1  0.2335112290119  0.5798872389719  0.7178237823622 1.0
C      1  0.3143129524693  0.7150397166258  0.7196881781615 1.0
C      1  0.4574887822966  0.7807025978620  0.7188510844068 1.0
C      1  0.4785888946112  0.6557221466860  0.4144657707422 1.0
C      1  0.5711667576175  0.6448499006418  0.4226599129354 1.0
C      1  0.6436268509625  0.5849806539626  0.4298141275573 1.0
C      1  0.6715029876195  0.4949533844210  0.4351150151925 1.0
C      1  0.6450326564777  0.4039625734539  0.4385081933830 1.0
C      1  0.5734254591655  0.3412814299544  0.4372758407690 1.0
C      1  0.4794747167850  0.3272495053246  0.4359761329152 1.0
C      1  0.3933977533391  0.3662112346279  0.4296422274829 1.0
C      1  0.3426498627208  0.4457988397052  0.4290745035205 1.0
C      1  0.3436651086943  0.5398102031166  0.4226524909967 1.0
C      1  0.3952967477600  0.6173586067220  0.4143608574705 1.0
C      1  0.5689447804915  0.3489853687740  0.1562178103678 1.0
C      1  0.4700082597571  0.3322621313261  0.1566901073268 1.0
C      1  0.3812180917988  0.3662461986187  0.1571058450170 1.0
C      1  0.3330871522841  0.4482640335500  0.1580560992188 1.0
C      1  0.3361520903041  0.5483673043548  0.1607556093491 1.0
C      1  0.3856119009942  0.6257517252615  0.1612880207045 1.0
C      1  0.4766213689151  0.6689231604076  0.1604798202090 1.0
C      1  0.5675354507291  0.6575302711058  0.1583227268734 1.0
C      1  0.6441819234321  0.5926774943795  0.1555075645891 1.0
C      1  0.6692658716766  0.5044111605763  0.1547561762800 1.0
C      1  0.6392290284455  0.4083591447604  0.1549660305972 1.0
C      1  0.6103742808410  0.5060252165775  0.6037993546683 1.0
C      1  0.6179858738676  0.4224061566872  0.6063369706043 1.0
C      1  0.5738638780772  0.3427548882558  0.6177416944252 1.0
C      1  0.4846448947227  0.3609229222072  0.6052059084132 1.0
C      1  0.4259965437972  0.4209673678842  0.6020743135863 1.0
C      1  0.3870746106091  0.4983604501292  0.6016566117137 1.0
C      1  0.3589381987810  0.5755925790988  0.5848375308257 1.0
C      1  0.3746468306101  0.6585282153237  0.5517995648687 1.0
C      1  0.4610684880609  0.6983989655726  0.5516052463462 1.0
C      1  0.5342973795717  0.6560773529284  0.5842230186351 1.0
C      1  0.5757097185363  0.5854059795046  0.6023110545133 1.0
END
