TITL C-6063-1373-198 -3.599 3375.00 -637.30625893 0 0 79 (C2v) n - 1
REM
REM Run started: at 2020.12.19 09:22:40 in /gpfs/home/chem/mssmkc/CARBON/AIRSS/Generating-Clusters/Str-Search/Higher-Symm/C4-100
REM VASP from code version vasp.5.4.4.18Apr17-6-g9f103f2a35 (build Oct 11 2019 16:45:47) gamma-only
REM
REM
REM
REM
REM ./C.cell (6bd13a13d554368a30d355f37ece5b26)
REM AIRSS Version 0.9.1 bugfix July 2018 build 013d7b7c2542+ Fri, 06 Jul 2018 19:26:36 +0100
REM compiler GCC version 6.3.0
REM options -cpp -iprefix /gpfs/warwick/csc/orac/software/Core/GCCcore/6.3.0/bin/../lib/gcc/x86_64-pc-linux-gnu/6.3.0/ -mtune=generic -march=x86-64 -g -O0
REM seed 1897979027 1159744358 -2141910035 1448895775 747653849 861692244 544493234 -781635961 -1388156415 -1006933848 -1661102608 -2037488418
REM
REM C.POTCAR (d86ddea03c3ceb6dc662c8ad6801f873)
REM 
CELL 1.54180   15.00000   15.00000   15.00000   90.00000   90.00000   90.00000
LATT -1
SFAC C  
C      1  0.5091116214139  0.2344147533304  0.4553346365619 1.0
C      1  0.5075018627940  0.7614691763847  0.5465210097066 1.0
C      1  0.5092959023083  0.2345292549683  0.5467195612710 1.0
C      1  0.5073206411438  0.7615663656666  0.4551647280808 1.0
C      1  0.4317052415175  0.7203307244265  0.5911423845365 1.0
C      1  0.4328624304607  0.2750592554032  0.4109411029776 1.0
C      1  0.4313424606893  0.7204025059328  0.4107774101424 1.0
C      1  0.4332416743265  0.2752769384654  0.5913109550391 1.0
C      1  0.3556513420938  0.6767412028934  0.4518963011339 1.0
C      1  0.3569358796819  0.3181478053169  0.5503694362559 1.0
C      1  0.3558653904149  0.6767357934518  0.5502420580635 1.0
C      1  0.3566968916682  0.3180485861204  0.4520139237354 1.0
C      1  0.5310160524286  0.4490865810933  0.7531372657272 1.0
C      1  0.5299005754228  0.5472522219756  0.2488460318931 1.0
C      1  0.5302102699093  0.4489296017044  0.2489222022412 1.0
C      1  0.5307244495604  0.5474279923762  0.7531319593443 1.0
C      1  0.6318919319062  0.4478324094720  0.7320924619665 1.0
C      1  0.6308481712274  0.5490923146897  0.2694879792696 1.0
C      1  0.6311350163802  0.4477259991769  0.2695253009279 1.0
C      1  0.6316237740203  0.5492104161736  0.7320672660448 1.0
C      1  0.5704381790792  0.7243544517765  0.6148464297251 1.0
C      1  0.5716356697046  0.2717489602940  0.3867794908260 1.0
C      1  0.5700947928469  0.7243536577171  0.3867400268764 1.0
C      1  0.5719974763133  0.2718626814611  0.6151183446457 1.0
C      1  0.1604806888120  0.5492014824091  0.4237782635137 1.0
C      1  0.1614847272713  0.4453024274266  0.5779720108799 1.0
C      1  0.1613747338009  0.5492459744282  0.5779268108426 1.0
C      1  0.1605308863254  0.4452982428235  0.4237400935391 1.0
C      1  0.5698105289012  0.5454576365808  0.5788758672640 1.0
C      1  0.5698706346322  0.4509659072791  0.4229010397185 1.0
C      1  0.5695553107692  0.5453765139824  0.4228572122038 1.0
C      1  0.5701279129156  0.4510015401914  0.5789079165077 1.0
C      1  0.2505002253529  0.5482170469437  0.6185725905432 1.0
C      1  0.2503549382807  0.4464403447470  0.3842042437780 1.0
C      1  0.2501252729927  0.5480988514209  0.3841165529172 1.0
C      1  0.2507261187884  0.4464635860619  0.6185514188461 1.0
C      1  0.3257807446296  0.3961694769799  0.3959633436670 1.0
C      1  0.3257615943803  0.5985513494950  0.6065318297567 1.0
C      1  0.3262029214291  0.3962418857658  0.6065951621254 1.0
C      1  0.3253845898359  0.5985074133309  0.3959146368979 1.0
C      1  0.4882321594391  0.6867171613083  0.3388538714624 1.0
C      1  0.4900185504213  0.3092237589229  0.6632246101633 1.0
C      1  0.4887263393669  0.6868266685637  0.6630780388623 1.0
C      1  0.4894835716439  0.3090951979577  0.3389778216144 1.0
C      1  0.7224970007144  0.6371706544647  0.4539472045902 1.0
C      1  0.7234872362069  0.3600795723956  0.5472089648001 1.0
C      1  0.7225858655710  0.6371687181886  0.5471388392499 1.0
C      1  0.7233921688140  0.3600425417219  0.4539945813756 1.0
C      1  0.7412565509249  0.5464199832177  0.7174868334084 1.0
C      1  0.7407530940743  0.4513133605598  0.2837282784309 1.0
C      1  0.7405001328458  0.5463685645996  0.2837303105756 1.0
C      1  0.7414713708448  0.4513675620497  0.7175334087964 1.0
C      1  0.6372700046226  0.5836112035183  0.3624712382451 1.0
C      1  0.6382444123538  0.4131021299965  0.6390931187060 1.0
C      1  0.6377175224381  0.5836459369334  0.6390345380731 1.0
C      1  0.6377993356518  0.4130115681242  0.3625017380899 1.0
C      1  0.7327428614049  0.4450504122910  0.3906520554531 1.0
C      1  0.7327101590676  0.5522451293263  0.6105013454026 1.0
C      1  0.7330457458186  0.4450892893542  0.6105624639973 1.0
C      1  0.7323752375687  0.5522403070527  0.3906615337645 1.0
C      1  0.4721764654727  0.5495016457598  0.4484544218016 1.0
C      1  0.4726530495945  0.4462715090320  0.5537250247704 1.0
C      1  0.4723338575434  0.5495447497490  0.5536931405498 1.0
C      1  0.4724913712221  0.4462230056365  0.4485147937007 1.0
C      1  0.4095320841829  0.4439357112099  0.6369606781881 1.0
C      1  0.4088210321596  0.5512973652987  0.3654151906010 1.0
C      1  0.4090818659001  0.4438464329713  0.3654745863455 1.0
C      1  0.4092672436178  0.5514291813497  0.6369471797439 1.0
C      1  0.4711120597228  0.3942232296672  0.2984963746678 1.0
C      1  0.4710805898518  0.6016007848605  0.7036952938307 1.0
C      1  0.4717827091573  0.3943479074860  0.7037422899704 1.0
C      1  0.4704347437659  0.6014164022541  0.2984370031235 1.0
C      1  0.6493467006628  0.6765153663541  0.3946321626427 1.0
C      1  0.6508723650973  0.3202400310333  0.6069545566896 1.0
C      1  0.6496673487793  0.6765135498400  0.6067565536195 1.0
C      1  0.6505209593560  0.3201478053722  0.3946382577746 1.0
C      1  0.1451038099779  0.5930181150054  0.5009598780822 1.0
C      1  0.1452447681758  0.4016562249568  0.5009914902835 1.0
C      1  0.6178594295372  0.4984081314794  0.5008107685598 1.0
END
