TITL C-6063-1373-163 -1.43 3375.00 -223.46952862 0 0 29 (D3) n - 1
REM
REM Run started: at 2020.12.19 01:18:26 in /gpfs/home/chem/mssmkc/CARBON/AIRSS/Generating-Clusters/Str-Search/Higher-Symm/C4-100
REM VASP from code version vasp.5.4.4.18Apr17-6-g9f103f2a35 (build Oct 11 2019 16:45:47) gamma-only
REM
REM
REM
REM
REM ./C.cell (6bd13a13d554368a30d355f37ece5b26)
REM AIRSS Version 0.9.1 bugfix July 2018 build 013d7b7c2542+ Fri, 06 Jul 2018 19:26:36 +0100
REM compiler GCC version 6.3.0
REM options -cpp -iprefix /gpfs/warwick/csc/orac/software/Core/GCCcore/6.3.0/bin/../lib/gcc/x86_64-pc-linux-gnu/6.3.0/ -mtune=generic -march=x86-64 -g -O0
REM seed 592372995 -1987474719 -694419562 854240616 -1286699400 -89730772 -1421225199 433274298 -186093210 -378312362 -372881450 -1538066810
REM
REM C.POTCAR (d86ddea03c3ceb6dc662c8ad6801f873)
REM 
CELL 1.54180   15.00000   15.00000   15.00000   90.00000   90.00000   90.00000
LATT -1
SFAC C  
C      1  0.4646116539950  0.6819692071260  0.5112486745563 1.0
C      1  0.3577823908105  0.3769692662792  0.5106069629201 1.0
C      1  0.6747802131668  0.4374559823634  0.5112103277669 1.0
C      1  0.5336533079834  0.6823364598456  0.4631942072652 1.0
C      1  0.6410473898148  0.3767529722666  0.4637317396035 1.0
C      1  0.3236569364540  0.4374337186782  0.4631161643811 1.0
C      1  0.5962747996443  0.5140427939185  0.6361831962758 1.0
C      1  0.4369608686920  0.5756808113490  0.6363602127374 1.0
C      1  0.4633465889712  0.4067142896765  0.6360310808263 1.0
C      1  0.4023593801219  0.5135401837389  0.3376377530386 1.0
C      1  0.5611431765061  0.5761713435028  0.3375695030210 1.0
C      1  0.5358450856471  0.4070720758443  0.3379061191896 1.0
C      1  0.5465053808899  0.4395830784254  0.6763690468914 1.0
C      1  0.5261822407361  0.5694246218865  0.6767064530830 1.0
C      1  0.4239335275101  0.4869482199243  0.6764772574411 1.0
C      1  0.4525400466826  0.4393796941235  0.2973561114743 1.0
C      1  0.4720500226263  0.5693868449873  0.2970323426690 1.0
C      1  0.5748326980527  0.4875013573178  0.2973998981408 1.0
C      1  0.4420424785233  0.3651823421862  0.5527675038626 1.0
C      1  0.6429162419946  0.5163429527668  0.5530322137514 1.0
C      1  0.4119845706309  0.6149495337011  0.5530557402742 1.0
C      1  0.5569281709673  0.3653776039642  0.4210944460276 1.0
C      1  0.3556883332920  0.5159623679312  0.4207036135616 1.0
C      1  0.5859451963882  0.6152306654908  0.4209799776195 1.0
C      1  0.3613632680852  0.5787632067911  0.4865307807650 1.0
C      1  0.6373055767076  0.5785878286507  0.4866944478561 1.0
C      1  0.4990370808112  0.3397337103880  0.4865170337380 1.0
C      1  0.4998956996424  0.4986319199378  0.2316629262351 1.0
C      1  0.4988958746528  0.4985365469384  0.7421786650276 1.0
END
