TITL C-6063-1373-30 -1.214 3375.00 -196.44616397 0 0 25 (C1) n - 1
REM
REM Run started: at 2020.12.18 00:02:08 in /gpfs/home/chem/mssmkc/CARBON/AIRSS/Generating-Clusters/Str-Search/Higher-Symm/C4-100
REM VASP from code version vasp.5.4.4.18Apr17-6-g9f103f2a35 (build Oct 11 2019 16:45:47) gamma-only
REM
REM
REM
REM
REM ./C.cell (6bd13a13d554368a30d355f37ece5b26)
REM AIRSS Version 0.9.1 bugfix July 2018 build 013d7b7c2542+ Fri, 06 Jul 2018 19:26:36 +0100
REM compiler GCC version 6.3.0
REM options -cpp -iprefix /gpfs/warwick/csc/orac/software/Core/GCCcore/6.3.0/bin/../lib/gcc/x86_64-pc-linux-gnu/6.3.0/ -mtune=generic -march=x86-64 -g -O0
REM seed 1602569063 103592743 543225990 1711771370 1763971446 -714462443 818866168 1689293166 982483802 229102365 813573405 283219157
REM
REM C.POTCAR (d86ddea03c3ceb6dc662c8ad6801f873)
REM 
CELL 1.54180   15.00000   15.00000   15.00000   90.00000   90.00000   90.00000
LATT -1
SFAC C  
C      1  0.6280061908152  0.6227021268834  0.5333866174550 1.0
C      1  0.4895792141248  0.5987068370122  0.6241320672728 1.0
C      1  0.4151501922156  0.5291439030822  0.6240783082072 1.0
C      1  0.5937952580866  0.5259350218261  0.3842662879956 1.0
C      1  0.3966953360540  0.4070510887223  0.5092774200084 1.0
C      1  0.3907433162956  0.6364934742243  0.4786509111301 1.0
C      1  0.6227338172443  0.3928178110999  0.4470925713017 1.0
C      1  0.5206812908953  0.4163349965497  0.6180944315792 1.0
C      1  0.5164010548321  0.5861992261922  0.3896574481601 1.0
C      1  0.5551494302285  0.3797931978512  0.3775982773977 1.0
C      1  0.5966532039381  0.4829430731491  0.6189635032969 1.0
C      1  0.3815676485678  0.4923627115830  0.3883601241003 1.0
C      1  0.6435195084127  0.4855587932460  0.4576402316076 1.0
C      1  0.3578629436043  0.5525873257036  0.4699883194438 1.0
C      1  0.3684586479200  0.4981531060196  0.5472485017492 1.0
C      1  0.6381214678828  0.5282821112717  0.5441448611809 1.0
C      1  0.4830334732168  0.6418141803485  0.4631743549041 1.0
C      1  0.5443218590395  0.3485369126134  0.4697806232715 1.0
C      1  0.4665242354764  0.4674155728403  0.6794548213884 1.0
C      1  0.5407892187428  0.5366375755958  0.6754164469996 1.0
C      1  0.5392842403630  0.4597737193075  0.3349581130472 1.0
C      1  0.4597481820759  0.5208754786078  0.3455684196059 1.0
C      1  0.5340098692571  0.6377690732217  0.5454482587864 1.0
C      1  0.4829927326497  0.3764066005993  0.5379264341017 1.0
C      1  0.3762528680610  0.4039043824491  0.4181339460087 1.0
END
