TITL C-6063-1373-194 -4.454 3375.00 -763.73909937 0 0 92 (C1) n - 1
REM
REM Run started: at 2020.12.19 08:04:11 in /gpfs/home/chem/mssmkc/CARBON/AIRSS/Generating-Clusters/Str-Search/Higher-Symm/C4-100
REM VASP from code version vasp.5.4.4.18Apr17-6-g9f103f2a35 (build Oct 11 2019 16:45:47) gamma-only
REM
REM
REM
REM
REM ./C.cell (6bd13a13d554368a30d355f37ece5b26)
REM AIRSS Version 0.9.1 bugfix July 2018 build 013d7b7c2542+ Fri, 06 Jul 2018 19:26:36 +0100
REM compiler GCC version 6.3.0
REM options -cpp -iprefix /gpfs/warwick/csc/orac/software/Core/GCCcore/6.3.0/bin/../lib/gcc/x86_64-pc-linux-gnu/6.3.0/ -mtune=generic -march=x86-64 -g -O0
REM seed 1564027954 -40249511 1641470816 -1989045812 1585009345 25943434 34678979 1441355558 1062475635 316807482 666618715 -215061033
REM
REM C.POTCAR (d86ddea03c3ceb6dc662c8ad6801f873)
REM 
CELL 1.54180   15.00000   15.00000   15.00000   90.00000   90.00000   90.00000
LATT -1
SFAC C  
C      1  0.5400220733274  0.4438895464848  0.5771646427984 1.0
C      1  0.5500672249291  0.5396718005911  0.6123259032575 1.0
C      1  0.5444723487345  0.5960891116385  0.5257013640891 1.0
C      1  0.5996923289021  0.5814911806739  0.4435145583716 1.0
C      1  0.5419771825375  0.4350818157295  0.4786708124838 1.0
C      1  0.4434896108923  0.4398044442016  0.4766827074618 1.0
C      1  0.3962687488413  0.5913682645093  0.4452932700020 1.0
C      1  0.4532638587201  0.6003193752573  0.5266340833122 1.0
C      1  0.4414948219346  0.5434882354764  0.6116971247066 1.0
C      1  0.4451042931737  0.4489538111006  0.5747997302389 1.0
C      1  0.2969104399822  0.3492454152939  0.6718121337948 1.0
C      1  0.3033165982660  0.6241931271814  0.6595424491170 1.0
C      1  0.2932087506543  0.7040339055302  0.4693680246335 1.0
C      1  0.2948764735950  0.5188077954922  0.2774840721173 1.0
C      1  0.3007968149681  0.2977599690591  0.4202801229450 1.0
C      1  0.7021829626960  0.3780388574637  0.3232339432015 1.0
C      1  0.6987284896602  0.5909953336999  0.3153145332681 1.0
C      1  0.6995457302749  0.7190769740295  0.5533249502941 1.0
C      1  0.6872638221760  0.4987550854071  0.6977184796413 1.0
C      1  0.7000228962494  0.3153188497888  0.5950840364960 1.0
C      1  0.6343025390741  0.4383089283387  0.7478395861902 1.0
C      1  0.6423275516096  0.7262498086461  0.6336508556811 1.0
C      1  0.6320162396669  0.6513393854442  0.3739389146713 1.0
C      1  0.6400341302011  0.4034292536685  0.2538669801581 1.0
C      1  0.6480095001161  0.2669865757894  0.5258373579223 1.0
C      1  0.3531473471931  0.4404073856499  0.2540252578117 1.0
C      1  0.3605676640478  0.6743699055103  0.3943576990977 1.0
C      1  0.3584855624450  0.7018072358636  0.6646485159366 1.0
C      1  0.3541173765636  0.3958936518229  0.7340631170416 1.0
C      1  0.3612756554568  0.2555392153627  0.4832764783874 1.0
C      1  0.5795325492736  0.2472165560315  0.5917746664461 1.0
C      1  0.5660381771988  0.5013129301283  0.7667865655575 1.0
C      1  0.5747913699963  0.7806287848678  0.5865223557742 1.0
C      1  0.5688732503149  0.6360288968981  0.2957273161416 1.0
C      1  0.5756275429358  0.3359236536053  0.2806473314545 1.0
C      1  0.4314977438420  0.2513652113182  0.4140964582684 1.0
C      1  0.4204355714053  0.4997410563713  0.2183302409244 1.0
C      1  0.4216331674219  0.7463308952166  0.4307725417939 1.0
C      1  0.4265285836559  0.6602755998294  0.7171241518963 1.0
C      1  0.4218280338674  0.3237915196837  0.7286811348585 1.0
C      1  0.5969420785282  0.7386766232646  0.4184232414059 1.0
C      1  0.5978327899297  0.4821682787460  0.2248345050541 1.0
C      1  0.6098923588984  0.2682566973867  0.4371221818050 1.0
C      1  0.5972092863849  0.3490769048236  0.7323921320008 1.0
C      1  0.5990124227918  0.6676167459019  0.6938525247056 1.0
C      1  0.3977009327581  0.7613732745763  0.5991662127093 1.0
C      1  0.3930562853377  0.4799175567935  0.7508892527875 1.0
C      1  0.4014996574666  0.2498214211518  0.5705742591403 1.0
C      1  0.3956725470060  0.3583566914801  0.2836096743174 1.0
C      1  0.3955490290754  0.6527398041914  0.2985547350485 1.0
C      1  0.1776935272939  0.5701213892646  0.4818098665779 1.0
C      1  0.1813801425035  0.5157572169569  0.4045766787646 1.0
C      1  0.1816924132452  0.4212053499173  0.4119544132975 1.0
C      1  0.1841184476232  0.4525086260637  0.6078334397422 1.0
C      1  0.1811319166694  0.5353298849862  0.5725360956308 1.0
C      1  0.8072346229054  0.5871666714211  0.5096443383833 1.0
C      1  0.8077509933303  0.5125818313294  0.5708736633820 1.0
C      1  0.8139680152762  0.4265766534527  0.5251661970982 1.0
C      1  0.8191381688839  0.4452934582287  0.4350740520905 1.0
C      1  0.8216247834240  0.5430997930047  0.4246426283424 1.0
C      1  0.4895652815211  0.3686618909333  0.2570730632540 1.0
C      1  0.4967066533537  0.2357247059202  0.5496930131784 1.0
C      1  0.4842839738790  0.4552824804645  0.7725153852346 1.0
C      1  0.4909686700680  0.7696577553191  0.6271411824494 1.0
C      1  0.4886602042192  0.6791854361040  0.3106808938329 1.0
C      1  0.5036084603040  0.3592352033110  0.7560983885178 1.0
C      1  0.5151984059911  0.2418410470360  0.4537696237556 1.0
C      1  0.5037979146387  0.4568303453772  0.2187298096101 1.0
C      1  0.5039130891059  0.7386251275932  0.3882080624295 1.0
C      1  0.5086295523725  0.7016155937141  0.6978801610315 1.0
C      1  0.3700881096074  0.5780257249147  0.2505346647186 1.0
C      1  0.3736696689822  0.2990661924018  0.3521046753288 1.0
C      1  0.3718204343250  0.2863450786511  0.6535017004897 1.0
C      1  0.3835724715385  0.5672731251199  0.6977042474234 1.0
C      1  0.3659222418706  0.7577630502634  0.5087328894112 1.0
C      1  0.6074220705983  0.5665691531005  0.6972410256583 1.0
C      1  0.6269457311907  0.2985381910668  0.6599005556933 1.0
C      1  0.6347872181039  0.3094991355832  0.3547119718026 1.0
C      1  0.6242235154725  0.5674003985830  0.2587780995302 1.0
C      1  0.6244124102704  0.7643934639873  0.5032295103471 1.0
C      1  0.7552739433351  0.4731940994212  0.6406015073531 1.0
C      1  0.7644183285135  0.6668365528269  0.5240999793859 1.0
C      1  0.7680115699923  0.5361537083285  0.3449831809697 1.0
C      1  0.7685644150967  0.4347667245473  0.3536232046602 1.0
C      1  0.7618335797825  0.3836762767575  0.5947173232804 1.0
C      1  0.2270154409851  0.5452436441582  0.3294082767853 1.0
C      1  0.2278087418375  0.6504511604801  0.5092988680201 1.0
C      1  0.2327324202931  0.6123343287102  0.6012991603344 1.0
C      1  0.2216041727295  0.3835317527422  0.6355514007699 1.0
C      1  0.2266533492568  0.3517879365267  0.4204125161466 1.0
C      1  0.3996674870827  0.5041044469270  0.4300895528238 1.0
C      1  0.5917995275496  0.4937408475341  0.4310162452456 1.0
END
