TITL C-60237-424-1 -5.894 3375.00 -1004.84082029 0 0 125 (C1) n - 1
REM
REM Run started: at 2020.12.03 07:17:35 in /rds/project/t2_vol4/rds-t2-cs072/BORA/CARBON/AIRSS/Generating-Clusters/Str-Search/Higher-Symm/C100-200
REM VASP from code version vasp.5.4.4.18Apr17-6-g9f103f2a35 (build Oct 11 2019 16:45:47) gamma-only
REM
REM
REM
REM
REM ./C.cell (533062f00bc710175b3da973d35f2034)
REM AIRSS Version 0.9.1 bugfix July 2018 build 013d7b7c2542+ Fri, 06 Jul 2018 19:26:36 +0100
REM compiler GCC version 4.8.5 20150623 (Red Hat 4.8.5-39)
REM options -cpp -mtune=generic -march=x86-64 -g -O0
REM seed 7848876 297030685 490131895 -2013120911 835994644 222957657 -1352782112 1184053269 -1549657874 1041913773 907999486 1839428231
REM
REM C.POTCAR (d86ddea03c3ceb6dc662c8ad6801f873)
REM 
CELL 1.54180   15.00000   15.00000   15.00000   90.00000   90.00000   90.00000
LATT -1
SFAC C  
C      1  0.4447600766438  0.2233478740521  0.5611735454465 1.0
C      1  0.4260583123193  0.2235598431137  0.4683642984999 1.0
C      1  0.5088825992500  0.2228234537765  0.4206553476634 1.0
C      1  0.5788013163145  0.2231169650873  0.4842430839154 1.0
C      1  0.5391708338164  0.2239693064530  0.5709719241349 1.0
C      1  0.5551125529372  0.7710552443063  0.5588663060669 1.0
C      1  0.5751830759424  0.7697468264697  0.4670525402108 1.0
C      1  0.4927998335809  0.7694374544358  0.4193592923728 1.0
C      1  0.4214894778479  0.7713653129363  0.4815372008785 1.0
C      1  0.4600164617290  0.7713412826892  0.5677183758641 1.0
C      1  0.4845239313436  0.6987393881439  0.3506949449200 1.0
C      1  0.6381198667282  0.6988922123527  0.4375454324840 1.0
C      1  0.6024414327594  0.7000648307657  0.6096388995298 1.0
C      1  0.4270188439039  0.6995435597113  0.6274812556198 1.0
C      1  0.3547777406620  0.6986145307620  0.4688648877098 1.0
C      1  0.5182684205363  0.2961178190841  0.3541734964855 1.0
C      1  0.3650853545462  0.2964965964886  0.4393011890004 1.0
C      1  0.3969587874605  0.2956043956864  0.6106389210909 1.0
C      1  0.5718858791212  0.2951244504907  0.6321094785396 1.0
C      1  0.6462774786937  0.2954263696961  0.4731160207280 1.0
C      1  0.4638567467110  0.5232941568299  0.3692440466106 1.0
C      1  0.6162428997316  0.5233116270137  0.4247707651747 1.0
C      1  0.6108958280745  0.5260508078233  0.5860385021790 1.0
C      1  0.4576422911822  0.5274859216220  0.6262880330847 1.0
C      1  0.3631763520334  0.5252792889486  0.4976852885690 1.0
C      1  0.5483995201143  0.4662826946259  0.3755670327520 1.0
C      1  0.3949062680170  0.4678858294554  0.4194496854619 1.0
C      1  0.3870436211824  0.4697124468240  0.5812516577828 1.0
C      1  0.5387806306956  0.4684320151153  0.6303208793732 1.0
C      1  0.6370608544789  0.4668538282668  0.5080521899466 1.0
C      1  0.5222257958829  0.3776382517261  0.4179351719245 1.0
C      1  0.5883278132769  0.3775791724079  0.4973303300773 1.0
C      1  0.5322938180990  0.3781769064322  0.5847021582227 1.0
C      1  0.4309989678301  0.3790883611212  0.5603190857256 1.0
C      1  0.4258503722977  0.3784993162365  0.4563910101028 1.0
C      1  0.4832531649930  0.6141596796700  0.4116987818129 1.0
C      1  0.4128950668960  0.6150693734732  0.4897274246981 1.0
C      1  0.4667687220402  0.6163394942738  0.5791706307394 1.0
C      1  0.5691848944568  0.6156404725514  0.5589810928614 1.0
C      1  0.5798860128321  0.6144216403637  0.4543412118901 1.0
C      1  0.1961024011620  0.5680191377663  0.6056605850218 1.0
C      1  0.3070665294293  0.5708424179579  0.2484327489187 1.0
C      1  0.6800959867287  0.5706857867054  0.2376639046489 1.0
C      1  0.8052027283062  0.5688319655685  0.5897569351156 1.0
C      1  0.5046851178068  0.5663930485696  0.8076118018281 1.0
C      1  0.7994268402583  0.4310743553248  0.6015894886344 1.0
C      1  0.6892662250388  0.4331556649474  0.2494496098253 1.0
C      1  0.3201906078454  0.4335601196738  0.2439456544518 1.0
C      1  0.1916939199971  0.4287224949533  0.5916891651944 1.0
C      1  0.4934328065862  0.4295375998234  0.8087314269356 1.0
C      1  0.2567956927727  0.2310924089431  0.3551792698708 1.0
C      1  0.5640034227362  0.2308822087873  0.2246077231797 1.0
C      1  0.7815987674289  0.2275548904039  0.4757863797562 1.0
C      1  0.6104317690351  0.2223340566070  0.7595537835871 1.0
C      1  0.2827831859381  0.2261969928913  0.6855236457587 1.0
C      1  0.7414628787510  0.7754661240283  0.3561877372146 1.0
C      1  0.4377022964481  0.7762513577098  0.2274121862957 1.0
C      1  0.2185931403001  0.7679518969488  0.4751639871128 1.0
C      1  0.3882785219023  0.7722544282217  0.7550243312799 1.0
C      1  0.7130691411107  0.7744280216508  0.6842774403034 1.0
C      1  0.3161249980493  0.7635632467490  0.7139365909047 1.0
C      1  0.2382724426515  0.7651620455613  0.3942636369888 1.0
C      1  0.5205789068565  0.7688394389469  0.2198595339074 1.0
C      1  0.7748239293998  0.7673101679587  0.4323609824854 1.0
C      1  0.6493377974387  0.7672880692841  0.7378862962395 1.0
C      1  0.6824718760805  0.2317328341852  0.7180768441585 1.0
C      1  0.7639213956706  0.2347195288588  0.3943698068884 1.0
C      1  0.4809477657983  0.2363883720644  0.2177113279676 1.0
C      1  0.2229351174627  0.2364995602403  0.4312269275087 1.0
C      1  0.3463910102261  0.2316070489358  0.7392134357540 1.0
C      1  0.4273411316636  0.2846700416785  0.7179264237739 1.0
C      1  0.2709391861059  0.2882515404363  0.5000615045253 1.0
C      1  0.4304675454496  0.2896568296705  0.2842456261025 1.0
C      1  0.6856590212474  0.2889221376469  0.3672095140533 1.0
C      1  0.6856491470824  0.2870837302691  0.6362633680529 1.0
C      1  0.5708619125308  0.7110794978903  0.7155498331365 1.0
C      1  0.7299519867521  0.7107223526456  0.4996615522738 1.0
C      1  0.5716715710153  0.7120750820100  0.2823284952684 1.0
C      1  0.3162228919751  0.7108917924896  0.3659161999442 1.0
C      1  0.3156983394686  0.7079914512863  0.6324772880384 1.0
C      1  0.3962711397916  0.7175662989677  0.2965653729787 1.0
C      1  0.6624330301964  0.7176707901553  0.3371037371814 1.0
C      1  0.7055506799009  0.7170196218346  0.6028949873021 1.0
C      1  0.4649711550979  0.7170409892596  0.7232319328372 1.0
C      1  0.2750380572979  0.7126281093032  0.5351044220291 1.0
C      1  0.6052414080935  0.2836479832191  0.2982642761857 1.0
C      1  0.3396813168459  0.2839831448578  0.3390039975655 1.0
C      1  0.2938296667865  0.2815982094193  0.6036867280500 1.0
C      1  0.5337635362689  0.2774671733629  0.7273461635128 1.0
C      1  0.7259126164273  0.2813624871036  0.5383434693980 1.0
C      1  0.2546194987703  0.4961262587434  0.2832146861251 1.0
C      1  0.6307894763906  0.4954484798829  0.1995693573562 1.0
C      1  0.8282048465782  0.4942335585883  0.5307539170014 1.0
C      1  0.5703215445732  0.4930230683800  0.8166291293183 1.0
C      1  0.2068387057018  0.4918286643706  0.6696276042019 1.0
C      1  0.7488974617134  0.5088440474593  0.2783901760928 1.0
C      1  0.3668502172370  0.5087577535514  0.1962337621225 1.0
C      1  0.1655718861966  0.5050501063493  0.5322344062563 1.0
C      1  0.4280805346148  0.5030712956158  0.8134021906996 1.0
C      1  0.7898267868650  0.5058105046124  0.6676472164142 1.0
C      1  0.8077314003327  0.5113563077478  0.3460637800340 1.0
C      1  0.7438427623704  0.5044681863036  0.7449514770950 1.0
C      1  0.3447228331336  0.5012043763352  0.7575425727776 1.0
C      1  0.1610267197800  0.5059644941303  0.4426932096134 1.0
C      1  0.4497091671096  0.5108516827791  0.1619185206746 1.0
C      1  0.2263501607384  0.4987280237855  0.3790356777225 1.0
C      1  0.2543320553644  0.4925328322706  0.7460453195576 1.0
C      1  0.6541977536260  0.4948573958624  0.7605961297853 1.0
C      1  0.7950779709783  0.4971406662188  0.4358863673863 1.0
C      1  0.5307156656219  0.4976028730358  0.2026686688596 1.0
C      1  0.7635120341889  0.6476435131525  0.5682921179216 1.0
C      1  0.5152148639927  0.6476798153913  0.7669311370092 1.0
C      1  0.2493233324548  0.6418396292099  0.5975068754213 1.0
C      1  0.3285438907457  0.6492031735634  0.2900543240521 1.0
C      1  0.6473623748160  0.6497796321311  0.2700734297862 1.0
C      1  0.2381109971970  0.3535905624134  0.5680950475730 1.0
C      1  0.4830985160133  0.3473212987640  0.7698427530315 1.0
C      1  0.7508720397345  0.3525670463464  0.5992481663707 1.0
C      1  0.6709293381835  0.3551911274176  0.2947490321175 1.0
C      1  0.3569915185099  0.3556543491612  0.2759575035683 1.0
C      1  0.5121622287318  0.4917363704458  0.2938036445990 1.0
C      1  0.3800473326769  0.5023311652709  0.6714167988991 1.0
C      1  0.6148066307274  0.4955498475137  0.6765076419814 1.0
C      1  0.3061791251894  0.4953304150448  0.4271208989377 1.0
C      1  0.7029738529661  0.4920729230964  0.4471862595407 1.0
END
