TITL C-6063-1373-91 -4.71 3375.00 -810.87669046 0 0 99 (C1) n - 1
REM
REM Run started: at 2020.12.18 12:20:00 in /gpfs/home/chem/mssmkc/CARBON/AIRSS/Generating-Clusters/Str-Search/Higher-Symm/C4-100
REM VASP from code version vasp.5.4.4.18Apr17-6-g9f103f2a35 (build Oct 11 2019 16:45:47) gamma-only
REM
REM
REM
REM
REM ./C.cell (6bd13a13d554368a30d355f37ece5b26)
REM AIRSS Version 0.9.1 bugfix July 2018 build 013d7b7c2542+ Fri, 06 Jul 2018 19:26:36 +0100
REM compiler GCC version 6.3.0
REM options -cpp -iprefix /gpfs/warwick/csc/orac/software/Core/GCCcore/6.3.0/bin/../lib/gcc/x86_64-pc-linux-gnu/6.3.0/ -mtune=generic -march=x86-64 -g -O0
REM seed 2116424888 1881788767 -1707322704 123673294 2101624360 1625080946 -1961190047 2050668109 1257050817 1711876153 1200388915 -844199129
REM
REM C.POTCAR (d86ddea03c3ceb6dc662c8ad6801f873)
REM 
CELL 1.54180   15.00000   15.00000   15.00000   90.00000   90.00000   90.00000
LATT -1
SFAC C  
C      1  0.6543950855606  0.3019889442903  0.6999296362073 1.0
C      1  0.2421011309218  0.3130122224021  0.5427521008649 1.0
C      1  0.5908336850316  0.2910749964631  0.2678500780103 1.0
C      1  0.7619192854470  0.4673462264106  0.7297459674910 1.0
C      1  0.1859292672190  0.5044095703313  0.6075135772267 1.0
C      1  0.5645537926652  0.4533821293212  0.1461279701254 1.0
C      1  0.2508679795829  0.6380614600810  0.5006449614648 1.0
C      1  0.6401268621712  0.7056490040739  0.3577900372108 1.0
C      1  0.5746893139637  0.6928406795142  0.7136182638945 1.0
C      1  0.7884380864338  0.4362642032483  0.6554429866835 1.0
C      1  0.2255034750492  0.4593650303736  0.6653071136607 1.0
C      1  0.4844330469504  0.4302181293607  0.1550207160291 1.0
C      1  0.6308701321948  0.5105519810232  0.6698811261201 1.0
C      1  0.2993060631222  0.4930559599017  0.5102495121067 1.0
C      1  0.5820446883980  0.4726111400013  0.2893369811169 1.0
C      1  0.3036664373744  0.4282269229714  0.7099774052471 1.0
C      1  0.4271571950648  0.4173210647342  0.2368468442384 1.0
C      1  0.7707292870807  0.4149576812393  0.5657159094437 1.0
C      1  0.6935470092197  0.6172261546132  0.3613521989671 1.0
C      1  0.5215465813966  0.6400135936890  0.7689204626578 1.0
C      1  0.2763899986020  0.6356045563407  0.4081695195094 1.0
C      1  0.7317377366186  0.5788938366721  0.5375209603212 1.0
C      1  0.3836674656037  0.5751463022051  0.6261184273124 1.0
C      1  0.4270682592248  0.5623981261283  0.2754576137274 1.0
C      1  0.5863938931095  0.2871896133072  0.4681833875708 1.0
C      1  0.4780486658813  0.2885207596483  0.6023965937067 1.0
C      1  0.4186985772922  0.3074034040862  0.4432185628706 1.0
C      1  0.7737304427119  0.4912670673688  0.4987003063170 1.0
C      1  0.3550399548452  0.5006569538241  0.7563800583444 1.0
C      1  0.3581038594485  0.4915848757808  0.2529969670505 1.0
C      1  0.3613226528569  0.6811300710589  0.3903429633607 1.0
C      1  0.6522013705637  0.7253324226796  0.4500164888132 1.0
C      1  0.4833830623289  0.6808190248175  0.6816242331392 1.0
C      1  0.6696241947871  0.3110315311170  0.2487866218083 1.0
C      1  0.6307712003283  0.3264982061888  0.7763950455335 1.0
C      1  0.1872847443157  0.3414848324467  0.4854276465102 1.0
C      1  0.4984424252148  0.6124688844119  0.5214770775193 1.0
C      1  0.4809024330504  0.5753849733074  0.4310426158443 1.0
C      1  0.5775817588290  0.5895918108621  0.4781273890211 1.0
C      1  0.7226102781564  0.4734949245531  0.2495786617646 1.0
C      1  0.6021122576267  0.4915882667645  0.8164393979461 1.0
C      1  0.1827798876277  0.5038169966261  0.4264010795760 1.0
C      1  0.4671652819270  0.6143979711486  0.6095630191878 1.0
C      1  0.4224232854725  0.6151216578660  0.3603591715451 1.0
C      1  0.6734165636585  0.6263240737937  0.4619027196290 1.0
C      1  0.2872513625860  0.4837512119461  0.3095493321806 1.0
C      1  0.7566299653649  0.4746732561890  0.4093402186481 1.0
C      1  0.4449811684232  0.4875881099379  0.7795654426085 1.0
C      1  0.3858684544499  0.7425822575460  0.5438133527007 1.0
C      1  0.5035567817814  0.7631768934464  0.4201842913043 1.0
C      1  0.5540166138413  0.7696693288895  0.5801770812977 1.0
C      1  0.6217367559743  0.7390778364143  0.6470736398023 1.0
C      1  0.3036463773435  0.6877592004905  0.5661441413033 1.0
C      1  0.5499728030640  0.7356121960598  0.3354532347710 1.0
C      1  0.5061728888996  0.6957817847017  0.2653462721146 1.0
C      1  0.7099066857034  0.7129203542432  0.6258881067319 1.0
C      1  0.3069048112478  0.6417653711014  0.6518581633470 1.0
C      1  0.3288098258575  0.4407676777680  0.4433096072763 1.0
C      1  0.6231835919850  0.4361690707585  0.3663345026388 1.0
C      1  0.5459793139069  0.4614671174874  0.6665960452645 1.0
C      1  0.5200810717036  0.5488651499664  0.7989034386505 1.0
C      1  0.2400020831820  0.5518715745538  0.3657098167034 1.0
C      1  0.7339357719345  0.5365361136590  0.3320587394140 1.0
C      1  0.2828155006891  0.3980057782305  0.3657071348926 1.0
C      1  0.7114286881542  0.3884605788298  0.3808597132758 1.0
C      1  0.4951647402583  0.4078852279095  0.7393771228624 1.0
C      1  0.3500227606847  0.3490472989402  0.6756236932751 1.0
C      1  0.4200273276628  0.3291404710986  0.2874457316032 1.0
C      1  0.7174057562598  0.3347466532594  0.5421743396199 1.0
C      1  0.6812293131863  0.3219209857090  0.4557421913095 1.0
C      1  0.4440918440623  0.3349155433611  0.6861551690623 1.0
C      1  0.3566572001489  0.3226020980310  0.3549268104647 1.0
C      1  0.7603626328432  0.6547874999293  0.5946205100515 1.0
C      1  0.3340753950608  0.5876561642192  0.7145587793503 1.0
C      1  0.4652026713673  0.6365877108388  0.2215409202198 1.0
C      1  0.5729571609066  0.4511244892091  0.4377729455076 1.0
C      1  0.5214504688930  0.4574472758692  0.5809222069509 1.0
C      1  0.4196188949722  0.4127773001293  0.4573628026650 1.0
C      1  0.2107909424829  0.5423855686737  0.5182169717593 1.0
C      1  0.6299249262985  0.4822152518511  0.2100527755238 1.0
C      1  0.6778733747114  0.5046194960033  0.7532126603109 1.0
C      1  0.5734276842810  0.7683850526108  0.4876999982351 1.0
C      1  0.4605766191398  0.7533816577245  0.6091542252871 1.0
C      1  0.4102384636583  0.7434917847559  0.4489077011511 1.0
C      1  0.6619334484699  0.5225751602188  0.5834392207394 1.0
C      1  0.3678527643696  0.4992502828303  0.5727607333659 1.0
C      1  0.4861981130557  0.4796880007190  0.3029855751846 1.0
C      1  0.5107353778589  0.2821696809111  0.4079118247218 1.0
C      1  0.5686867908570  0.2813676058079  0.5639127987601 1.0
C      1  0.4024058348380  0.2808523489823  0.5423921114462 1.0
C      1  0.5086986020221  0.2892284979909  0.3138858317881 1.0
C      1  0.6531631083048  0.2974793085980  0.6084278086230 1.0
C      1  0.3213147041311  0.3055435252359  0.5895547945116 1.0
C      1  0.7261133955636  0.3806309810360  0.2793641137244 1.0
C      1  0.5782049304163  0.3988693937145  0.8002210913248 1.0
C      1  0.1936701102574  0.4051285826091  0.4183218379511 1.0
C      1  0.4366357990663  0.4453536169281  0.5475140726075 1.0
C      1  0.4821973550439  0.4741112702581  0.4060885564030 1.0
C      1  0.5906524178459  0.4914060147701  0.5232292220174 1.0
END
