TITL C-6063-1373-7 -2.627 3375.00 -422.07368909 0 0 53 (C1) n - 1
REM
REM Run started: at 2020.12.17 18:46:29 in /gpfs/home/chem/mssmkc/CARBON/AIRSS/Generating-Clusters/Str-Search/Higher-Symm/C4-100
REM VASP from code version vasp.5.4.4.18Apr17-6-g9f103f2a35 (build Oct 11 2019 16:45:47) gamma-only
REM
REM
REM
REM
REM ./C.cell (6bd13a13d554368a30d355f37ece5b26)
REM AIRSS Version 0.9.1 bugfix July 2018 build 013d7b7c2542+ Fri, 06 Jul 2018 19:26:36 +0100
REM compiler GCC version 6.3.0
REM options -cpp -iprefix /gpfs/warwick/csc/orac/software/Core/GCCcore/6.3.0/bin/../lib/gcc/x86_64-pc-linux-gnu/6.3.0/ -mtune=generic -march=x86-64 -g -O0
REM seed -1510854267 -1241080879 -604718071 -1367233211 -265413313 1821540297 1317612263 347144374 1885542868 -772968899 1497709495 1404909678
REM
REM C.POTCAR (d86ddea03c3ceb6dc662c8ad6801f873)
REM 
CELL 1.54180   15.00000   15.00000   15.00000   90.00000   90.00000   90.00000
LATT -1
SFAC C  
C      1  0.5554248530926  0.5379893916505  0.7101661853041 1.0
C      1  0.4636450630897  0.3401524461657  0.6670054587221 1.0
C      1  0.5642609679941  0.6075630237376  0.6462219999317 1.0
C      1  0.3186664354668  0.6684692448224  0.3413269984956 1.0
C      1  0.4925187871718  0.3368593217603  0.5773960671814 1.0
C      1  0.5110187354656  0.5861816468826  0.2292754973803 1.0
C      1  0.6282995727340  0.4699611315871  0.7131952422471 1.0
C      1  0.6645160780049  0.5258460199530  0.2723479677339 1.0
C      1  0.5129363256806  0.6884576432255  0.6219970417062 1.0
C      1  0.3778867699563  0.5972899625013  0.3425508577861 1.0
C      1  0.2359621691251  0.6791387855104  0.4931412068681 1.0
C      1  0.5805242857037  0.3199526486864  0.5464832799599 1.0
C      1  0.7167406602103  0.3998820548656  0.3449306570547 1.0
C      1  0.5198049673401  0.5088369947911  0.1748414820356 1.0
C      1  0.4506274122467  0.3511641252336  0.4211075239062 1.0
C      1  0.4845437553153  0.4235137051415  0.1842234929599 1.0
C      1  0.3850261143320  0.4790385140641  0.7238163389297 1.0
C      1  0.4641949688163  0.4831892721722  0.4973544615640 1.0
C      1  0.5193204788674  0.3488043962710  0.7446029145430 1.0
C      1  0.4281906283295  0.6856978676885  0.5980227036675 1.0
C      1  0.3932743175023  0.5508853297103  0.5024411835733 1.0
C      1  0.3021503787588  0.5071018201071  0.6714491505391 1.0
C      1  0.7024266306564  0.3823471552734  0.4349470082196 1.0
C      1  0.2600688988610  0.5786554961373  0.6380387903669 1.0
C      1  0.4795750709719  0.3482442895729  0.3367762682228 1.0
C      1  0.5978017603803  0.5481859800430  0.2091562805969 1.0
C      1  0.5263182217164  0.4847153627266  0.4328923968398 1.0
C      1  0.5433570058986  0.3848267085571  0.4060455122393 1.0
C      1  0.3140823802264  0.4188822006675  0.6228085091006 1.0
C      1  0.2720144511265  0.6333023348001  0.5668659159334 1.0
C      1  0.6684611405384  0.6068332345616  0.5096742566622 1.0
C      1  0.4694653999651  0.3732505072655  0.2486097090411 1.0
C      1  0.6314850643684  0.6394184179597  0.5820398533739 1.0
C      1  0.3834436750269  0.3924394074137  0.6843580155983 1.0
C      1  0.3494698932087  0.5360904492999  0.4126512970795 1.0
C      1  0.2651022288480  0.6783554521372  0.4127267528482 1.0
C      1  0.6916193310616  0.5472712250763  0.4460026200163 1.0
C      1  0.5089280013767  0.4244026457593  0.8004244111097 1.0
C      1  0.7334907998911  0.4605198661280  0.5771197855137 1.0
C      1  0.5963747626175  0.3988850599384  0.7683260787967 1.0
C      1  0.3733596934413  0.6290226150024  0.5570978791761 1.0
C      1  0.5447521888279  0.5607588730955  0.3749816513572 1.0
C      1  0.4744245332669  0.5918218649094  0.3164644297431 1.0
C      1  0.6018384056728  0.7242204340974  0.6264828367519 1.0
C      1  0.7290438215128  0.4615614921230  0.4849040137986 1.0
C      1  0.6948807296045  0.4645966436086  0.6501976156991 1.0
C      1  0.6410226522326  0.5576152356964  0.3593111155833 1.0
C      1  0.6157703694677  0.3453945759493  0.4658907252553 1.0
C      1  0.3273121013253  0.4092170938241  0.5324185049710 1.0
C      1  0.7228024078506  0.4492677586820  0.2771896458645 1.0
C      1  0.4755232333016  0.5034269635796  0.7569922351122 1.0
C      1  0.3114681968449  0.4868655551750  0.4747177939675 1.0
C      1  0.4247834247075  0.3836297544118  0.5099902790719 1.0
END
