TITL C-60987-9195-17 -0.775 3375.00 -113.34046117 0 0 15 (C1) n - 1
REM
REM Run started: at 2020.12.04 05:20:35 in /rds/project/t2_vol4/rds-t2-cs072/BORA/CARBON/AIRSS/Generating-Clusters/Str-Search/Higher-Symm/C10-100
REM VASP from code version vasp.5.4.4.18Apr17-6-g9f103f2a35 (build Oct 11 2019 16:45:47) gamma-only
REM
REM
REM
REM
REM ./C.cell (f39ce9773e2efe3fa5bbdf770a4156b8)
REM AIRSS Version 0.9.1 bugfix July 2018 build 013d7b7c2542+ Fri, 06 Jul 2018 19:26:36 +0100
REM compiler GCC version 4.8.5 20150623 (Red Hat 4.8.5-39)
REM options -cpp -mtune=generic -march=x86-64 -g -O0
REM seed 301447149 -482136392 57121499 -1660379165 -2076918363 148478421 -1073259227 -482814231 943690374 -2138869274 -1414949454 969477617
REM
REM C.POTCAR (d86ddea03c3ceb6dc662c8ad6801f873)
REM 
CELL 1.54180   15.00000   15.00000   15.00000   90.00000   90.00000   90.00000
LATT -1
SFAC C  
C      1  0.5901453144095  0.4576253075492  0.3710114682154 1.0
C      1  0.5182156576646  0.3779364746973  0.4941985773199 1.0
C      1  0.5868901275738  0.4559235321852  0.6196155979619 1.0
C      1  0.5639594737220  0.6112187212322  0.5766947186981 1.0
C      1  0.5686428194285  0.6081130826608  0.4170243064116 1.0
C      1  0.5908175954741  0.5469846003574  0.3640970885269 1.0
C      1  0.5189073079451  0.6235652495689  0.4946091990247 1.0
C      1  0.5852787818779  0.5454344342238  0.6244180852791 1.0
C      1  0.5619369923219  0.3881601646227  0.5768221499210 1.0
C      1  0.5656500032026  0.3905837718028  0.4146034577839 1.0
C      1  0.3875194323764  0.4612577728649  0.5531045697293 1.0
C      1  0.3628435304611  0.5496303566642  0.5578943440897 1.0
C      1  0.4250192114671  0.4075900808000  0.4901380991906 1.0
C      1  0.4345365353159  0.5765244443898  0.4948730903458 1.0
C      1  0.4051377167596  0.4994520063808  0.4508954475021 1.0
END
