TITL C-6063-1373-81 -2.276 3375.00 -388.46235388 0 0 48 (C6) n - 1
REM
REM Run started: at 2020.12.18 10:56:48 in /gpfs/home/chem/mssmkc/CARBON/AIRSS/Generating-Clusters/Str-Search/Higher-Symm/C4-100
REM VASP from code version vasp.5.4.4.18Apr17-6-g9f103f2a35 (build Oct 11 2019 16:45:47) gamma-only
REM
REM
REM
REM
REM ./C.cell (6bd13a13d554368a30d355f37ece5b26)
REM AIRSS Version 0.9.1 bugfix July 2018 build 013d7b7c2542+ Fri, 06 Jul 2018 19:26:36 +0100
REM compiler GCC version 6.3.0
REM options -cpp -iprefix /gpfs/warwick/csc/orac/software/Core/GCCcore/6.3.0/bin/../lib/gcc/x86_64-pc-linux-gnu/6.3.0/ -mtune=generic -march=x86-64 -g -O0
REM seed -99221742 18696646 119776108 -1157876688 -2095056889 -2113636362 -94224571 1984034018 -789432535 -377148150 1176193546 1754818800
REM
REM C.POTCAR (d86ddea03c3ceb6dc662c8ad6801f873)
REM 
CELL 1.54180   15.00000   15.00000   15.00000   90.00000   90.00000   90.00000
LATT -1
SFAC C  
C      1  0.6570429391827  0.4582414245005  0.5615405026353 1.0
C      1  0.5426076344730  0.3430577722704  0.5615933421696 1.0
C      1  0.3856225301211  0.3849393468487  0.5614704788078 1.0
C      1  0.3429570124309  0.5417586095082  0.5615404522481 1.0
C      1  0.4573923351308  0.6569422671039  0.5615933378136 1.0
C      1  0.6143774055728  0.6150607194780  0.5614705334919 1.0
C      1  0.6731735787075  0.5452318030204  0.5204971849066 1.0
C      1  0.6258975348352  0.3724682308183  0.5204099241239 1.0
C      1  0.4526875056323  0.3272309805095  0.5205317588475 1.0
C      1  0.3268263856959  0.4547682423128  0.5204971086368 1.0
C      1  0.3741024127252  0.6275318494194  0.5204099573745 1.0
C      1  0.5473124690100  0.6727691335023  0.5205318838592 1.0
C      1  0.5508809674662  0.5803504115758  0.3355786664601 1.0
C      1  0.5951719566143  0.4959906615611  0.3355448921864 1.0
C      1  0.5442932574029  0.4154845581917  0.3354250602268 1.0
C      1  0.4491190417105  0.4196495318394  0.3355783592756 1.0
C      1  0.4048280712566  0.5040092762276  0.3355446998174 1.0
C      1  0.4557068101282  0.5845153345491  0.3354251530510 1.0
C      1  0.5935898953104  0.4756369665309  0.7443919643447 1.0
C      1  0.5258293912040  0.4067228820771  0.7444573637568 1.0
C      1  0.4323609309033  0.4313070900525  0.7443313532096 1.0
C      1  0.4064100230215  0.5243630225178  0.7443920042955 1.0
C      1  0.4741705524189  0.5932770884676  0.7444574435260 1.0
C      1  0.5676390180741  0.5686929027573  0.7443313706636 1.0
C      1  0.4283002922393  0.4271365933834  0.6398879103588 1.0
C      1  0.4009653541884  0.5258556599479  0.6399096775967 1.0
C      1  0.4726484430542  0.5987028936820  0.6399540273826 1.0
C      1  0.5716996232679  0.5728634908167  0.6398879627190 1.0
C      1  0.5990346239816  0.4741444142951  0.6399097109862 1.0
C      1  0.5273514779762  0.4012972370279  0.6399540195569 1.0
C      1  0.3423913893122  0.6482225177099  0.4313405074359 1.0
C      1  0.5492869329765  0.7105241904703  0.4314481553766 1.0
C      1  0.7068689939226  0.5622831254317  0.4314495765959 1.0
C      1  0.6576086447292  0.3517773695524  0.4313405618562 1.0
C      1  0.4507130927073  0.2894758198612  0.4314479982460 1.0
C      1  0.2931310807986  0.4377169155377  0.4314494873502 1.0
C      1  0.5317114408055  0.2643168473688  0.3990075912681 1.0
C      1  0.3119464019529  0.3549903281562  0.3991296073318 1.0
C      1  0.2801231647733  0.5906314719827  0.3989616446271 1.0
C      1  0.4682885096693  0.7356830362752  0.3990075839788 1.0
C      1  0.6880537213997  0.6450096460147  0.3991298337708 1.0
C      1  0.7198770170689  0.4093685966674  0.3989617624650 1.0
C      1  0.5855135904528  0.3301188309186  0.3675458655550 1.0
C      1  0.3958455584013  0.3413238514444  0.3677942233522 1.0
C      1  0.3103709854267  0.5110725695845  0.3677984589454 1.0
C      1  0.4144864569698  0.6698811006018  0.3675458650849 1.0
C      1  0.6041543978275  0.6586760822467  0.3677945226728 1.0
C      1  0.6896291470701  0.4889273053827  0.3677986497587 1.0
END
