TITL C-6250-3542-42 -4.786 3375.00 -907.52211047 0 0 110 (C1) n - 1
REM
REM Run started: at 2020.12.19 05:59:04 in /gpfs/home/chem/mssmkc/CARBON/AIRSS/Generating-Clusters/Str-Search/Higher-Symm
REM VASP from code version vasp.5.4.4.18Apr17-6-g9f103f2a35 (build Oct 11 2019 16:45:47) gamma-only
REM
REM
REM
REM
REM ./C.cell (533062f00bc710175b3da973d35f2034)
REM AIRSS Version 0.9.1 bugfix July 2018 build 013d7b7c2542+ Fri, 06 Jul 2018 19:26:36 +0100
REM compiler GCC version 6.3.0
REM options -cpp -iprefix /gpfs/warwick/csc/orac/software/Core/GCCcore/6.3.0/bin/../lib/gcc/x86_64-pc-linux-gnu/6.3.0/ -mtune=generic -march=x86-64 -g -O0
REM seed -94940436 -684957086 1582272762 -850434562 1837636963 1916564205 1966624404 -2104985214 796292045 1496392865 13680563 1099397448
REM
REM C.POTCAR (d86ddea03c3ceb6dc662c8ad6801f873)
REM 
CELL 1.54180   15.00000   15.00000   15.00000   90.00000   90.00000   90.00000
LATT -1
SFAC C  
C      1  0.3874973053916  0.2653864448897  0.5787930651413 1.0
C      1  0.2206575454118  0.5377027443325  0.5734447402621 1.0
C      1  0.4382061773024  0.7726366024753  0.5789411597126 1.0
C      1  0.7187255817109  0.6336201092885  0.5924070586918 1.0
C      1  0.6959453450103  0.3141025752048  0.6075928807348 1.0
C      1  0.2346978063125  0.6261168724093  0.5268057168817 1.0
C      1  0.5228871203555  0.7823154455580  0.5313001838657 1.0
C      1  0.7791002020879  0.5631037114354  0.5454360046790 1.0
C      1  0.6387256557956  0.2516018306488  0.5515036752455 1.0
C      1  0.3086549158967  0.2959008384366  0.5320990694428 1.0
C      1  0.6050253360193  0.7486410979105  0.3884775223768 1.0
C      1  0.7626610476551  0.4678389192244  0.4107704915497 1.0
C      1  0.5570419521596  0.2381399899433  0.4048692662912 1.0
C      1  0.2756433775598  0.3715043188796  0.3905590791953 1.0
C      1  0.2994759175775  0.6911131899462  0.3863341880488 1.0
C      1  0.5559281587472  0.3108453657320  0.6694308877616 1.0
C      1  0.3174088315885  0.3875708159590  0.6535484174853 1.0
C      1  0.3280793528309  0.6253269103234  0.6481661323557 1.0
C      1  0.5564249686634  0.6932113926467  0.6550609074406 1.0
C      1  0.7118231605301  0.5015044040844  0.6884961525632 1.0
C      1  0.3841653238204  0.2371963485343  0.4051996315852 1.0
C      1  0.2420837266541  0.5348425334342  0.3930156860731 1.0
C      1  0.4339086325435  0.7980384025227  0.3980261255364 1.0
C      1  0.7406505806246  0.6350440287114  0.4000968802425 1.0
C      1  0.7184256870770  0.3062535052305  0.4099698399852 1.0
C      1  0.3685272563267  0.3163619202846  0.2571726139515 1.0
C      1  0.2853814187838  0.5871771718329  0.2425820148309 1.0
C      1  0.5019463438625  0.7370415552859  0.2610483596605 1.0
C      1  0.6814832564657  0.5656514087346  0.2436335067105 1.0
C      1  0.6311328198188  0.3035091824618  0.2694819716728 1.0
C      1  0.4063295711496  0.7177251813646  0.2540965172021 1.0
C      1  0.6488633051261  0.6540961247540  0.2615924777929 1.0
C      1  0.6813474497881  0.3777632571410  0.2447513578674 1.0
C      1  0.4606266512256  0.2737063960866  0.2618493773447 1.0
C      1  0.2740094573061  0.4710503750810  0.2414164476354 1.0
C      1  0.6098943910561  0.5235455503857  0.4123682402086 1.0
C      1  0.6021868959895  0.4181417787505  0.4114831113118 1.0
C      1  0.4487583936792  0.4072577345464  0.4086277407486 1.0
C      1  0.3461761001485  0.5237014655311  0.4060037027809 1.0
C      1  0.4746117346303  0.6232813161556  0.4229920450717 1.0
C      1  0.5891441604412  0.7205525787559  0.2929815861368 1.0
C      1  0.6468018536101  0.4720390329016  0.2658579415743 1.0
C      1  0.5444919275653  0.2909580114736  0.3149766974997 1.0
C      1  0.3179593301993  0.3956831370938  0.2933191396675 1.0
C      1  0.3443039057504  0.6505254731898  0.2978849081839 1.0
C      1  0.4545768735305  0.3884207085581  0.7876356938401 1.0
C      1  0.4120155517578  0.4818704133199  0.7550098383498 1.0
C      1  0.4535587523083  0.5757045307786  0.7620704561265 1.0
C      1  0.5545878591636  0.5730217486808  0.7705699727242 1.0
C      1  0.5799112951262  0.4746625287170  0.7798504404292 1.0
C      1  0.6744713224375  0.4695641668468  0.3641847986768 1.0
C      1  0.5277507296144  0.3891589263392  0.3546880278498 1.0
C      1  0.3661170742175  0.4313942192707  0.3731814247091 1.0
C      1  0.4066083959990  0.5860372562788  0.3507899676420 1.0
C      1  0.5401866262001  0.5752389143559  0.3773980212826 1.0
C      1  0.2656411232854  0.3722980057228  0.5782089632204 1.0
C      1  0.2962235626500  0.6826386552832  0.5750817083607 1.0
C      1  0.5963973640171  0.7413612241916  0.5781999487738 1.0
C      1  0.7475900111208  0.4812519998414  0.5975144671248 1.0
C      1  0.5538386285198  0.2424907439425  0.5939252907963 1.0
C      1  0.4613909471131  0.7292089194793  0.6662200461348 1.0
C      1  0.6885514154388  0.6008036297204  0.6843910076451 1.0
C      1  0.6506257467505  0.3444216971832  0.6859132483815 1.0
C      1  0.4012706865563  0.3361198372059  0.6450519055136 1.0
C      1  0.2656495504175  0.5475578195778  0.6621562758184 1.0
C      1  0.7095668246529  0.3138649357662  0.3168816934766 1.0
C      1  0.3896695592826  0.2454038624079  0.3123332334089 1.0
C      1  0.2335294874917  0.5332974523153  0.2956250243589 1.0
C      1  0.4374993218796  0.7862226963840  0.3065452101873 1.0
C      1  0.7217930861150  0.6221815917268  0.3088764993279 1.0
C      1  0.7231906316180  0.3918279158782  0.5489271952455 1.0
C      1  0.4704016603196  0.2271840687189  0.5459124302946 1.0
C      1  0.2183262457113  0.4466586539404  0.5317546818718 1.0
C      1  0.3545401457816  0.7477904848451  0.5343649215680 1.0
C      1  0.6722074847690  0.7061221952430  0.5371608108374 1.0
C      1  0.4787133312532  0.6419044539485  0.6122940376364 1.0
C      1  0.6811752163875  0.5481947923398  0.5616143579097 1.0
C      1  0.5515011390595  0.3869422095436  0.5927719997843 1.0
C      1  0.4561906706068  0.3992420415861  0.5818573334956 1.0
C      1  0.3495188416802  0.5346946956015  0.6030348131295 1.0
C      1  0.6594654000118  0.4367335881974  0.7284484489033 1.0
C      1  0.4668617091731  0.3276000408343  0.7194739571423 1.0
C      1  0.3363391100181  0.4771713601275  0.6849080568706 1.0
C      1  0.4166532929728  0.6417888704100  0.6914889062905 1.0
C      1  0.6084444417014  0.6358132451084  0.7196274951764 1.0
C      1  0.4721468432189  0.2210494489397  0.4504791710364 1.0
C      1  0.2224377999612  0.4439664891916  0.4381097612922 1.0
C      1  0.3548577370512  0.7548898205704  0.4381553155443 1.0
C      1  0.6795175314088  0.7056995372032  0.4401615056833 1.0
C      1  0.7620182250263  0.3811723081171  0.4574589231717 1.0
C      1  0.6115907210062  0.5137489558278  0.5094190599552 1.0
C      1  0.6189268936093  0.4126803585251  0.5149092032426 1.0
C      1  0.4491734306630  0.4501435096215  0.4974690855506 1.0
C      1  0.3828279417548  0.5286333418820  0.5072272059660 1.0
C      1  0.4618606792937  0.5984165364547  0.5187713076910 1.0
C      1  0.7790506046179  0.5580802797349  0.4473454222419 1.0
C      1  0.6417035093923  0.2532424299473  0.4536991666061 1.0
C      1  0.3091166346486  0.2879310812150  0.4389623338101 1.0
C      1  0.2417540798708  0.6287310784704  0.4322038181562 1.0
C      1  0.5247688801225  0.7849786056821  0.4368734833518 1.0
C      1  0.5309422532247  0.4149542594367  0.8430234673220 1.0
C      1  0.5107739015678  0.4351990233843  0.1815544032444 1.0
C      1  0.5113988961996  0.4732701793972  0.6224512879952 1.0
C      1  0.4925758473442  0.5451909667756  0.3047228164579 1.0
C      1  0.5230687729431  0.4073887490673  0.0144734966252 1.0
C      1  0.5190902746221  0.5203665430162  0.5375090967632 1.0
C      1  0.5320545693170  0.4113307361694  0.9320337592167 1.0
C      1  0.5055263202254  0.4975817365978  0.7120654760363 1.0
C      1  0.5370263984243  0.4630360042161  0.2680592417119 1.0
C      1  0.5145127055268  0.4197787707673  0.1009347600125 1.0
END
