TITL C-6250-3542-6 -7.013 3375.00 -1199.43636749 0 0 151 (C1) n - 1
REM
REM Run started: at 2020.12.17 22:26:39 in /gpfs/home/chem/mssmkc/CARBON/AIRSS/Generating-Clusters/Str-Search/Higher-Symm
REM VASP from code version vasp.5.4.4.18Apr17-6-g9f103f2a35 (build Oct 11 2019 16:45:47) gamma-only
REM
REM
REM
REM
REM ./C.cell (533062f00bc710175b3da973d35f2034)
REM AIRSS Version 0.9.1 bugfix July 2018 build 013d7b7c2542+ Fri, 06 Jul 2018 19:26:36 +0100
REM compiler GCC version 6.3.0
REM options -cpp -iprefix /gpfs/warwick/csc/orac/software/Core/GCCcore/6.3.0/bin/../lib/gcc/x86_64-pc-linux-gnu/6.3.0/ -mtune=generic -march=x86-64 -g -O0
REM seed -1090311699 -323312681 126417995 -1398872130 804836029 316880466 1430821501 329084930 -1673888544 -1100760922 1415016588 -1212369239
REM
REM C.POTCAR (d86ddea03c3ceb6dc662c8ad6801f873)
REM 
CELL 1.54180   15.00000   15.00000   15.00000   90.00000   90.00000   90.00000
LATT -1
SFAC C  
C      1  0.7485810994667  0.3445180303332  0.6946934013200 1.0
C      1  0.4501871238031  0.2359756991930  0.7825124070539 1.0
C      1  0.2863271419666  0.3185581000531  0.7022853945071 1.0
C      1  0.2256674602183  0.6100498734388  0.7782073290019 1.0
C      1  0.4258949966208  0.7648676398525  0.7371839453520 1.0
C      1  0.6128782595073  0.7568440840619  0.6914687802003 1.0
C      1  0.7952818898912  0.5140694629420  0.7715701922120 1.0
C      1  0.7204018820055  0.6731084891521  0.2852984797576 1.0
C      1  0.7665796529829  0.4340462850478  0.2853309512044 1.0
C      1  0.6083029625838  0.2500668688917  0.2893177272507 1.0
C      1  0.3644311304992  0.2490526111621  0.2952819176988 1.0
C      1  0.2266984421311  0.4486213499556  0.2803952350282 1.0
C      1  0.2885446310413  0.6856096081498  0.2843261009926 1.0
C      1  0.5068719841178  0.7921193576156  0.3010907755020 1.0
C      1  0.7382127684673  0.7671655661104  0.5962195216663 1.0
C      1  0.8322548359733  0.5417847521842  0.6100525550405 1.0
C      1  0.7116997999522  0.2045691802173  0.6179705510990 1.0
C      1  0.4617912385503  0.1757514572682  0.6245532148074 1.0
C      1  0.1654080281858  0.3680737888948  0.6188059535250 1.0
C      1  0.1857406900095  0.6115726714803  0.6108059171935 1.0
C      1  0.4353441521064  0.8092733288849  0.6579248433122 1.0
C      1  0.3347450448715  0.4008004428139  0.7435620206510 1.0
C      1  0.3099501840550  0.5746060566801  0.7630908687069 1.0
C      1  0.4591114771810  0.6736554885379  0.7489972687500 1.0
C      1  0.5674096992908  0.6751973642164  0.7422780110450 1.0
C      1  0.6956117587643  0.5078504244496  0.7544317413689 1.0
C      1  0.6665303079804  0.4038617058046  0.7382313290989 1.0
C      1  0.4840265512888  0.3193088458084  0.7551691811323 1.0
C      1  0.7932692240607  0.2704297537085  0.4645397236361 1.0
C      1  0.4888781903574  0.1261711309323  0.4437690639938 1.0
C      1  0.2058742279045  0.2712489962087  0.4765915436950 1.0
C      1  0.1272685985008  0.5894885245716  0.4341087113045 1.0
C      1  0.3383176230165  0.8475054942253  0.4649621255656 1.0
C      1  0.6645573735894  0.8438982900266  0.4807168744912 1.0
C      1  0.8774423869604  0.5814575474063  0.4323355969201 1.0
C      1  0.4910844677978  0.3010652028806  0.5798803344940 1.0
C      1  0.3263737851259  0.3980940397568  0.5814745255580 1.0
C      1  0.3045647931581  0.5594667708767  0.5625171267545 1.0
C      1  0.4224831628451  0.6762577140524  0.5784482770660 1.0
C      1  0.6067792998831  0.6596459957714  0.5750523068402 1.0
C      1  0.6852522154237  0.5190433998959  0.5835807292778 1.0
C      1  0.6498110774044  0.3553176511201  0.5734935879783 1.0
C      1  0.2076023581483  0.5204987202063  0.5594087213485 1.0
C      1  0.3296264783493  0.7145558664412  0.5618137613498 1.0
C      1  0.5731284138811  0.7539500516230  0.5943832249769 1.0
C      1  0.8057560234327  0.6239548272176  0.5635902309243 1.0
C      1  0.7535216359168  0.3777267802200  0.5910540032553 1.0
C      1  0.5478532245579  0.2115803595379  0.5666424293023 1.0
C      1  0.3224027398123  0.2950050845735  0.6051999484452 1.0
C      1  0.2932062519799  0.7723097647674  0.4966834955045 1.0
C      1  0.5857082057405  0.8242125716429  0.5175362860296 1.0
C      1  0.8281022184236  0.6467302703281  0.4778902711603 1.0
C      1  0.8075660040747  0.3489707086297  0.5060976406242 1.0
C      1  0.5636780445726  0.1607828195803  0.4829117566586 1.0
C      1  0.2783404164650  0.2453887556004  0.5224937146206 1.0
C      1  0.1537813153483  0.5131084317015  0.4754549074786 1.0
C      1  0.4937779346084  0.7504208641365  0.3977307364954 1.0
C      1  0.6848677657687  0.6594558910421  0.3840134973024 1.0
C      1  0.7360894081381  0.4539036432167  0.3857157210139 1.0
C      1  0.6099183690659  0.2839819855366  0.3877812188992 1.0
C      1  0.3936334916896  0.2843139906562  0.3926073081937 1.0
C      1  0.2640622275816  0.4435794980372  0.3790409155845 1.0
C      1  0.3008922663169  0.6527498850414  0.3830967302623 1.0
C      1  0.7498783432134  0.5828348209475  0.2755056276828 1.0
C      1  0.7108218928941  0.3572780965559  0.2782756995226 1.0
C      1  0.5132576837767  0.2417932527921  0.2843039642046 1.0
C      1  0.3010563606100  0.3190092726535  0.2790719675212 1.0
C      1  0.2437204501965  0.5416521552804  0.2702750337101 1.0
C      1  0.3695532776276  0.7369783350265  0.2839030743331 1.0
C      1  0.5934092210772  0.7552706470783  0.2859732869462 1.0
C      1  0.4907183544253  0.3887927690419  0.5316930926586 1.0
C      1  0.4075999440645  0.4353087989652  0.5297505241273 1.0
C      1  0.3916123404063  0.5297493625841  0.5166699993367 1.0
C      1  0.4574396111408  0.5991218121964  0.5222235247300 1.0
C      1  0.5533768024123  0.5921229326754  0.5186712635365 1.0
C      1  0.6051450410838  0.5107569515110  0.5274999159596 1.0
C      1  0.5818133042366  0.4200610276332  0.5264648932634 1.0
C      1  0.3948166658363  0.5290954948276  0.3441599298027 1.0
C      1  0.4482270800282  0.6031845065606  0.3447566523972 1.0
C      1  0.5395822708930  0.6038719252742  0.3471654616600 1.0
C      1  0.5960118075666  0.5280032467290  0.3199477344947 1.0
C      1  0.5811220753424  0.4367750163453  0.3539597730960 1.0
C      1  0.5021778066857  0.3960973107057  0.3534286045556 1.0
C      1  0.4214045110261  0.4379786469537  0.3172652282966 1.0
C      1  0.7845194418514  0.5085275852261  0.2332101379108 1.0
C      1  0.6764769353075  0.2834035185803  0.2365085455048 1.0
C      1  0.4348107325175  0.2171027653481  0.2445675844564 1.0
C      1  0.2379582542756  0.3682798441664  0.2343705208834 1.0
C      1  0.2444818604877  0.6241316462254  0.2312807380158 1.0
C      1  0.4312616689748  0.7942083741046  0.2478106438977 1.0
C      1  0.6709374691285  0.7384273481804  0.2416553999558 1.0
C      1  0.6675359747810  0.5493653057431  0.6686426254182 1.0
C      1  0.6114128556232  0.3692910566735  0.6640086652878 1.0
C      1  0.5296373024305  0.3275499816268  0.6715919501875 1.0
C      1  0.3442450155711  0.4499655104643  0.6678893631731 1.0
C      1  0.3448028677411  0.5508049508466  0.6668381330219 1.0
C      1  0.4303895178067  0.6101549084845  0.6661738284791 1.0
C      1  0.5901767874070  0.6084426747099  0.6665461992559 1.0
C      1  0.1959478387076  0.3253273489139  0.6864311104335 1.0
C      1  0.1893518621775  0.6188138258602  0.6978007352122 1.0
C      1  0.3987740219477  0.8570546274760  0.7334164644790 1.0
C      1  0.6981014861693  0.7809044715384  0.6749003784061 1.0
C      1  0.8362761472868  0.5310286305139  0.6989311644989 1.0
C      1  0.7436531744140  0.2548424776698  0.6795000447724 1.0
C      1  0.4539720914539  0.1829770665445  0.7122712494678 1.0
C      1  0.4655071440511  0.5785834369625  0.0960660173443 1.0
C      1  0.5470420638027  0.5687338557140  0.1416225102661 1.0
C      1  0.6089496956642  0.4985797353032  0.1358251213925 1.0
C      1  0.5922072847322  0.4226824371792  0.0823476317930 1.0
C      1  0.5163382251810  0.3864716841039  0.0792592216670 1.0
C      1  0.4432167310498  0.4149816824992  0.1311702617008 1.0
C      1  0.4232368812784  0.5061070307416  0.1391037165733 1.0
C      1  0.7431270985569  0.2036274586869  0.4485355744385 1.0
C      1  0.4057117288094  0.1356057922408  0.4555198118980 1.0
C      1  0.1538384740675  0.3317463005785  0.4470024926694 1.0
C      1  0.1444853971467  0.6726451224541  0.4350533970100 1.0
C      1  0.4165712831563  0.8746304632429  0.4685281230439 1.0
C      1  0.7367841346704  0.7927820608984  0.5009137937621 1.0
C      1  0.8816993215641  0.4984211752202  0.4352869704263 1.0
C      1  0.4828315785975  0.4112627441422  0.7928408073786 1.0
C      1  0.3920009455684  0.4486660070887  0.8164768199700 1.0
C      1  0.3866751760330  0.5432623379821  0.8219180630427 1.0
C      1  0.4632791334327  0.6067748864184  0.8252220967962 1.0
C      1  0.5623555557547  0.6060405663740  0.8232803905779 1.0
C      1  0.6188222092850  0.5303844585018  0.8204253064965 1.0
C      1  0.5807277128968  0.4425318952899  0.7993555201214 1.0
C      1  0.7126936119703  0.6728006105927  0.5572120791766 1.0
C      1  0.7702953477193  0.4740907782273  0.5634241770117 1.0
C      1  0.6430538634994  0.2496276061900  0.5606452393598 1.0
C      1  0.4076241835327  0.2495439642203  0.5768535970283 1.0
C      1  0.2241449747354  0.4218140443595  0.5600216793005 1.0
C      1  0.2629764989178  0.6477555472044  0.5512560059674 1.0
C      1  0.4744605572059  0.7621916275383  0.5800295488028 1.0
C      1  0.2402753635499  0.6928708323772  0.4571316994794 1.0
C      1  0.4916540735624  0.8123686922824  0.4841216915493 1.0
C      1  0.7418996952899  0.6974470831053  0.4594739188741 1.0
C      1  0.8034716084477  0.4430225305315  0.4651192202194 1.0
C      1  0.6444473372291  0.2180206847950  0.4594732111754 1.0
C      1  0.3679665652146  0.2254032585805  0.4792829310836 1.0
C      1  0.1945432850575  0.4230910604196  0.4542071422998 1.0
C      1  0.4038611491194  0.6882755729192  0.3679246870234 1.0
C      1  0.5815160010426  0.6893765250216  0.3684552638145 1.0
C      1  0.6925289373559  0.5536736569103  0.3546112812472 1.0
C      1  0.6603127430052  0.3810816995230  0.3666300697776 1.0
C      1  0.5002734946057  0.2994228754711  0.3693373894593 1.0
C      1  0.3440422853271  0.3746086675665  0.3532134802830 1.0
C      1  0.3001995469601  0.5438432236450  0.3603993719323 1.0
C      1  0.5598281978407  0.5033999770388  0.2219647530993 1.0
C      1  0.5185754541111  0.4719899977826  0.7208636135577 1.0
C      1  0.4646896434490  0.4552002394082  0.2197359559198 1.0
C      1  0.5099006419361  0.5480479970633  0.6723580481520 1.0
END
