TITL C-6250-3542-15 -6.258 3375.00 -1059.20841817 0 0 129 (C1) n - 1
REM
REM Run started: at 2020.12.18 06:36:13 in /gpfs/home/chem/mssmkc/CARBON/AIRSS/Generating-Clusters/Str-Search/Higher-Symm
REM VASP from code version vasp.5.4.4.18Apr17-6-g9f103f2a35 (build Oct 11 2019 16:45:47) gamma-only
REM
REM
REM
REM
REM ./C.cell (533062f00bc710175b3da973d35f2034)
REM AIRSS Version 0.9.1 bugfix July 2018 build 013d7b7c2542+ Fri, 06 Jul 2018 19:26:36 +0100
REM compiler GCC version 6.3.0
REM options -cpp -iprefix /gpfs/warwick/csc/orac/software/Core/GCCcore/6.3.0/bin/../lib/gcc/x86_64-pc-linux-gnu/6.3.0/ -mtune=generic -march=x86-64 -g -O0
REM seed -214310018 -59663139 1366916328 604087220 1753240262 -1043093619 1722146420 1067361098 -286317852 -931163189 382451665 -1459887673
REM
REM C.POTCAR (d86ddea03c3ceb6dc662c8ad6801f873)
REM 
CELL 1.54180   15.00000   15.00000   15.00000   90.00000   90.00000   90.00000
LATT -1
SFAC C  
C      1  0.2392147840345  0.5323876283932  0.5062039900758 1.0
C      1  0.7599799247050  0.5320718499998  0.4956071506522 1.0
C      1  0.6548011840271  0.5787793240422  0.8111827885590 1.0
C      1  0.3465211437823  0.5782936002194  0.1894443158355 1.0
C      1  0.7467795255278  0.7308282125321  0.3385478099899 1.0
C      1  0.2525527460023  0.7313797557946  0.6639468227702 1.0
C      1  0.4338708307074  0.6467762735065  0.6460825658540 1.0
C      1  0.5667243853978  0.6473022090767  0.3572881955641 1.0
C      1  0.2223323622531  0.5509852817295  0.3010991593334 1.0
C      1  0.7775212969346  0.5517340447179  0.6993657838252 1.0
C      1  0.3304053821340  0.3675599153893  0.2503352802663 1.0
C      1  0.6670301768360  0.3701753451125  0.7524540667636 1.0
C      1  0.5063135450177  0.3706529257001  0.3326672743414 1.0
C      1  0.4951649196453  0.3728387788669  0.6683230017396 1.0
C      1  0.6277414503629  0.2967682191494  0.2606951407523 1.0
C      1  0.3722864110007  0.2953657778617  0.7407906600652 1.0
C      1  0.4629233376553  0.5199375949499  0.3154705658555 1.0
C      1  0.5352809006361  0.5144684654650  0.6884574205818 1.0
C      1  0.5070222462266  0.4797029587673  0.1244185070353 1.0
C      1  0.4986197072524  0.4829591574501  0.8807193104182 1.0
C      1  0.5076786139886  0.5719151431228  0.1435023243500 1.0
C      1  0.4945624787135  0.5728112631835  0.8590951658794 1.0
C      1  0.4312668150647  0.6212244169287  0.1736142019466 1.0
C      1  0.5708527959390  0.6231691287593  0.8284451583974 1.0
C      1  0.7174391048105  0.2514316541380  0.4042599711937 1.0
C      1  0.2823040725959  0.2499530061008  0.5970574249745 1.0
C      1  0.7138700127046  0.3020678660864  0.5946869038483 1.0
C      1  0.2869675706523  0.3007333518593  0.4076924341759 1.0
C      1  0.5126281662128  0.4303734478360  0.7428011948608 1.0
C      1  0.4726852199632  0.4348488773357  0.2750460582771 1.0
C      1  0.4657097287965  0.3689597482572  0.5232546393220 1.0
C      1  0.5355943162124  0.3707853804392  0.4777167397084 1.0
C      1  0.6276756448333  0.5140816965386  0.2233131652608 1.0
C      1  0.3761276658646  0.5152932614962  0.7752573930175 1.0
C      1  0.5961909996330  0.1797685600519  0.5641528753370 1.0
C      1  0.4048446228251  0.1788632019199  0.4374876373699 1.0
C      1  0.3109035276545  0.5834670587089  0.2840474947363 1.0
C      1  0.6879251691160  0.5807582199771  0.7160010461967 1.0
C      1  0.4299108154843  0.4378127223146  0.8147311593901 1.0
C      1  0.5862077761285  0.4391883225074  0.1729717001609 1.0
C      1  0.8027382614230  0.6039654731573  0.4340887857358 1.0
C      1  0.1967285439337  0.6043978984749  0.5680563598579 1.0
C      1  0.6621104449844  0.5173125332831  0.4821022248332 1.0
C      1  0.3371617943276  0.5181373194093  0.5192031792004 1.0
C      1  0.4639751821372  0.5511435413597  0.6258482405846 1.0
C      1  0.5353183259407  0.5522207126403  0.3774758364600 1.0
C      1  0.5285643317980  0.2183585308044  0.6167785529442 1.0
C      1  0.4724078299154  0.2157976378023  0.3833534190343 1.0
C      1  0.4005651707789  0.8206299883438  0.6429608401599 1.0
C      1  0.5994708046816  0.8205428865833  0.3598152750786 1.0
C      1  0.3954451161669  0.1583173719120  0.5343260914751 1.0
C      1  0.6057230612452  0.1582195787500  0.4672422607476 1.0
C      1  0.3028004114791  0.1890638252861  0.5305892141524 1.0
C      1  0.6975237983812  0.1908131076656  0.4711833248152 1.0
C      1  0.2163869812020  0.3943472114155  0.6279917940654 1.0
C      1  0.7841233635869  0.3951123072256  0.3739965067338 1.0
C      1  0.6710777987244  0.4914415421501  0.8478640195150 1.0
C      1  0.3335475979767  0.4892047965168  0.1549182827424 1.0
C      1  0.4223650444659  0.5932601576805  0.7966555364526 1.0
C      1  0.5790124840095  0.5928877920195  0.2054233660136 1.0
C      1  0.6870568379622  0.7960108951356  0.3773791040241 1.0
C      1  0.3128968044290  0.7961786363908  0.6254496307971 1.0
C      1  0.6261125664574  0.7448705903245  0.5202241006542 1.0
C      1  0.3740433153950  0.7446167761945  0.4827807409784 1.0
C      1  0.7958104893322  0.4680376903858  0.7389706118149 1.0
C      1  0.2036467334036  0.4676919908953  0.2618334328563 1.0
C      1  0.2237861974958  0.6330024305738  0.4853933301643 1.0
C      1  0.7755585313632  0.6324477403644  0.5167886755261 1.0
C      1  0.3760046019414  0.5559299774180  0.3457909102123 1.0
C      1  0.6219824823239  0.5472248669623  0.6565485607187 1.0
C      1  0.4140983005400  0.3922176888275  0.2091956592250 1.0
C      1  0.5850551223435  0.3907145641185  0.7982305279697 1.0
C      1  0.5213791643000  0.5618055824312  0.5443342879936 1.0
C      1  0.4780274001805  0.5628793058312  0.4588788999467 1.0
C      1  0.4422625169233  0.2952587705477  0.3412762671367 1.0
C      1  0.5588923346091  0.2991995475941  0.6571066653126 1.0
C      1  0.3966132147319  0.8068782347367  0.3263880450769 1.0
C      1  0.5874023179367  0.7667887422422  0.7467201878173 1.0
C      1  0.7236084247961  0.7122757642460  0.5267170197371 1.0
C      1  0.2765780465298  0.7124785948632  0.4760428103743 1.0
C      1  0.7041668024981  0.7833861547686  0.4737231107008 1.0
C      1  0.2963014119550  0.7834905058677  0.5290245654921 1.0
C      1  0.5681402705194  0.1966913263119  0.3896536631042 1.0
C      1  0.4329412963712  0.1982190343024  0.6111891685045 1.0
C      1  0.7502473765134  0.4450565451711  0.3162948459047 1.0
C      1  0.2520903256338  0.4436484176575  0.6852079494938 1.0
C      1  0.7292362044281  0.4304524762014  0.7926792552488 1.0
C      1  0.2715656399640  0.4295622868742  0.2095903589320 1.0
C      1  0.5265150079939  0.7898242594372  0.4077918693847 1.0
C      1  0.4736320797230  0.7902559953856  0.5949180528772 1.0
C      1  0.2091762992863  0.4519956026772  0.4455816858297 1.0
C      1  0.7912745137661  0.4522752613341  0.5557893318859 1.0
C      1  0.6166474885919  0.4916456204015  0.3926701681339 1.0
C      1  0.3830831492010  0.4913182811747  0.6076243238345 1.0
C      1  0.4279007857572  0.7918957760045  0.4104438484124 1.0
C      1  0.5720272711954  0.7926402158442  0.5919857215909 1.0
C      1  0.7668288965272  0.3302477979932  0.4379289834300 1.0
C      1  0.2331805110279  0.3293291035077  0.5637143219063 1.0
C      1  0.5363664571827  0.6990497271941  0.7780510117529 1.0
C      1  0.4653253074777  0.6980585675356  0.2243739439590 1.0
C      1  0.6862164876306  0.2186495312078  0.5610605024526 1.0
C      1  0.3146639136746  0.2172668370662  0.4409436365453 1.0
C      1  0.3256056523082  0.4980757562759  0.6937402972514 1.0
C      1  0.6753170716178  0.4971486045901  0.3065606406468 1.0
C      1  0.8034079427865  0.4796459705877  0.6420859297750 1.0
C      1  0.1965584191482  0.4794647739852  0.3591911202376 1.0
C      1  0.5879148248263  0.4462509631815  0.8739054777316 1.0
C      1  0.4175309880524  0.4432005670974  0.1306050198101 1.0
C      1  0.2346408911342  0.3575603032984  0.4692415234531 1.0
C      1  0.7657170280266  0.3582333340101  0.5325986317694 1.0
C      1  0.5696199569720  0.3986627098435  0.3986315820294 1.0
C      1  0.4327326074254  0.3992244807439  0.6025103648885 1.0
C      1  0.6136011651561  0.5378155268383  0.5568087091337 1.0
C      1  0.3851365466605  0.5416433904662  0.4448601185309 1.0
C      1  0.3450911712331  0.3219871471199  0.3314319167428 1.0
C      1  0.6544585817484  0.3250516397364  0.6704361529874 1.0
C      1  0.5543549187819  0.6671621789263  0.2639314307430 1.0
C      1  0.4471444714675  0.6685473084512  0.7388699461300 1.0
C      1  0.3597373338830  0.2455115289014  0.6604127184652 1.0
C      1  0.6404934326357  0.2456478734271  0.3404498109594 1.0
C      1  0.3908459906713  0.3468999967687  0.8040973930253 1.0
C      1  0.6112816597335  0.3503455953130  0.1979268225288 1.0
C      1  0.2149946624966  0.6598598160501  0.6416959692752 1.0
C      1  0.7845974585520  0.6593566332552  0.3604845799372 1.0
C      1  0.4396364181817  0.7033901561079  0.5570029565068 1.0
C      1  0.5610833336461  0.7035574860407  0.4463428710857 1.0
C      1  0.6045797220495  0.8092818344211  0.6757645696272 1.0
C      1  0.4146266798725  0.7661482566012  0.2543335615863 1.0
C      1  0.5004892465294  0.6510356951945  0.5018122881460 1.0
END
