TITL C-6242-5555-41 -6.983 3375.00 -1212.33434727 0 0 145 (C1) n - 1
REM
REM Run started: at 2020.12.19 04:09:55 in /gpfs/home/chem/mssmkc/CARBON/AIRSS/Generating-Clusters/Str-Search/Higher-Symm
REM VASP from code version vasp.5.4.4.18Apr17-6-g9f103f2a35 (build Oct 11 2019 16:45:47) gamma-only
REM
REM
REM
REM
REM ./C.cell (533062f00bc710175b3da973d35f2034)
REM AIRSS Version 0.9.1 bugfix July 2018 build 013d7b7c2542+ Fri, 06 Jul 2018 19:26:36 +0100
REM compiler GCC version 6.3.0
REM options -cpp -iprefix /gpfs/warwick/csc/orac/software/Core/GCCcore/6.3.0/bin/../lib/gcc/x86_64-pc-linux-gnu/6.3.0/ -mtune=generic -march=x86-64 -g -O0
REM seed -710546578 -1329447979 -254674842 -876776265 -179226279 1482028907 -658833940 1300491320 -1541007385 -796143553 218699120 -1719564947
REM
REM C.POTCAR (d86ddea03c3ceb6dc662c8ad6801f873)
REM 
CELL 1.54180   15.00000   15.00000   15.00000   90.00000   90.00000   90.00000
LATT -1
SFAC C  
C      1  0.7100155881263  0.6843309119764  0.6519092850946 1.0
C      1  0.7067407739111  0.2718452237007  0.5828180362530 1.0
C      1  0.7228900399181  0.5408256068438  0.2502273675698 1.0
C      1  0.2829739941003  0.6750167359890  0.6786898417067 1.0
C      1  0.2825623040740  0.2817761476328  0.5754948842123 1.0
C      1  0.2821418062948  0.5400725925003  0.2669943138581 1.0
C      1  0.3942433074725  0.2668329211065  0.6993949159122 1.0
C      1  0.3964420536415  0.4391085180933  0.2016988228811 1.0
C      1  0.3930080874862  0.7966502123860  0.6364987876839 1.0
C      1  0.5962511469712  0.2681140764020  0.7016596886188 1.0
C      1  0.5971500729506  0.4384468589543  0.2037403964282 1.0
C      1  0.5883141478529  0.7991997722935  0.6300831769259 1.0
C      1  0.6762545808870  0.4323750259398  0.5343749512818 1.0
C      1  0.7043755249925  0.5390184270110  0.4216454291440 1.0
C      1  0.6901355848536  0.5383990750422  0.5329893635105 1.0
C      1  0.3033796483406  0.4542976706652  0.5197941428568 1.0
C      1  0.3272022861043  0.4857767952199  0.4236988169819 1.0
C      1  0.2851273643609  0.5646313208319  0.5462972032186 1.0
C      1  0.8115283929178  0.7060890904197  0.4275616778725 1.0
C      1  0.8078418358610  0.4166411734039  0.6418910268634 1.0
C      1  0.8166524436447  0.3979341992477  0.3338905028095 1.0
C      1  0.2327625611452  0.7058573034060  0.4728278878654 1.0
C      1  0.1745254164851  0.3960847586850  0.6609280653112 1.0
C      1  0.1699520622619  0.4061876871165  0.3154072163272 1.0
C      1  0.5604155800482  0.5336268290287  0.9003610650013 1.0
C      1  0.5447673140236  0.1218037639955  0.3489895753190 1.0
C      1  0.5530047536329  0.8163540012444  0.2339401517159 1.0
C      1  0.4763639975191  0.5289766312121  0.9085722933738 1.0
C      1  0.4600339865790  0.1198453342775  0.3429475739296 1.0
C      1  0.4711548179371  0.8119509128888  0.2530604232134 1.0
C      1  0.5370122214264  0.2837257924394  0.3724880294318 1.0
C      1  0.5500425201181  0.7335043243611  0.4170206404616 1.0
C      1  0.5382671675810  0.4882913413606  0.7413015486908 1.0
C      1  0.4435299702690  0.2792837603949  0.3767611103611 1.0
C      1  0.4602092544680  0.7165778330209  0.4341428102760 1.0
C      1  0.4454431596167  0.4927813226804  0.7513410176963 1.0
C      1  0.1377918332865  0.5570486464749  0.4814061565789 1.0
C      1  0.1056873956400  0.4886654869770  0.5375432260461 1.0
C      1  0.0975017049374  0.4823975762960  0.4421785793251 1.0
C      1  0.8814718504416  0.5664633487650  0.4542695964038 1.0
C      1  0.8761461033203  0.5188394810842  0.5376641544520 1.0
C      1  0.8979382648691  0.4742120798534  0.4563046710221 1.0
C      1  0.6729474505846  0.7575728506310  0.6021873990244 1.0
C      1  0.6870164516999  0.2955566315428  0.6722246477798 1.0
C      1  0.6894995690824  0.4522280699477  0.2391082985106 1.0
C      1  0.3029031140121  0.7551183256414  0.6288129043915 1.0
C      1  0.3038012279666  0.2924299723406  0.6691117385018 1.0
C      1  0.3042140312654  0.4534857812804  0.2343973328125 1.0
C      1  0.1235442855588  0.4419161125165  0.6143001471753 1.0
C      1  0.1104945422357  0.4321947450426  0.3670695671466 1.0
C      1  0.2245445393370  0.6041906735290  0.4662517634954 1.0
C      1  0.8213565883667  0.5052896507426  0.6153351001369 1.0
C      1  0.8710800503192  0.4118688244162  0.3945404546921 1.0
C      1  0.8355415487635  0.6244239926443  0.3944849477422 1.0
C      1  0.4759369116090  0.5415742300455  0.4055250459640 1.0
C      1  0.4405989151385  0.5764518013112  0.5990341626866 1.0
C      1  0.4411337280067  0.3728960009566  0.5284132860816 1.0
C      1  0.5564735413065  0.5799640635025  0.3509410091681 1.0
C      1  0.5389726242738  0.5834060085525  0.6100527467377 1.0
C      1  0.5347126282114  0.3508806240145  0.5204751242573 1.0
C      1  0.4491488162810  0.5129774468348  0.1684675152541 1.0
C      1  0.4472214497453  0.7792851848877  0.7148601627205 1.0
C      1  0.4474121268360  0.2021405606152  0.6495141650389 1.0
C      1  0.5475268291495  0.5122097019019  0.1673127486438 1.0
C      1  0.5450209576704  0.7815156027744  0.7114013853732 1.0
C      1  0.5455572573303  0.1998684258044  0.6525423040037 1.0
C      1  0.6199413860787  0.5222035279918  0.3949548148764 1.0
C      1  0.5933278516726  0.5721550229605  0.5354093305504 1.0
C      1  0.5863859350476  0.4291374810591  0.5226411617204 1.0
C      1  0.4100568888785  0.4573453712927  0.3986049947223 1.0
C      1  0.3835799501985  0.5986638646413  0.5292947903449 1.0
C      1  0.3900236313503  0.4353543444061  0.5769304055678 1.0
C      1  0.6742218668416  0.1894500522462  0.4527788444718 1.0
C      1  0.6828703033021  0.6997832527552  0.2359350152190 1.0
C      1  0.6801467840940  0.6002150845441  0.7867683239660 1.0
C      1  0.3244015648310  0.2119512342635  0.4426997730985 1.0
C      1  0.3531344311675  0.6818421923063  0.2866705270893 1.0
C      1  0.3319160957133  0.5832121671941  0.7942946185424 1.0
C      1  0.4452307415051  0.3619106817042  0.2325973425512 1.0
C      1  0.4408308786070  0.8169303602220  0.5545095987410 1.0
C      1  0.4441828809003  0.3290725135463  0.7532805549613 1.0
C      1  0.5444817478788  0.3636642421764  0.2339120126845 1.0
C      1  0.5362056108665  0.8209138116337  0.5532558146943 1.0
C      1  0.5443829529217  0.3299743585461  0.7525271083372 1.0
C      1  0.6737782334399  0.1903964613803  0.5475380923226 1.0
C      1  0.6806676861548  0.6076401330464  0.1994143806469 1.0
C      1  0.6770968029075  0.6847526167915  0.7409637880603 1.0
C      1  0.3237522250362  0.2060270266300  0.5349455206110 1.0
C      1  0.3289795259435  0.6079959215724  0.2263136724594 1.0
C      1  0.3284058266499  0.6698110531167  0.7628679098159 1.0
C      1  0.4236175888149  0.5664641152559  0.8315320595532 1.0
C      1  0.4134827800772  0.1788014780795  0.4097197516714 1.0
C      1  0.4173212922457  0.7380727174162  0.2402777399413 1.0
C      1  0.6153790956490  0.5977731577321  0.8574869379491 1.0
C      1  0.6008795758443  0.1325559871096  0.4235586681284 1.0
C      1  0.6047618439143  0.7461980930899  0.2027692045904 1.0
C      1  0.5808479253710  0.5479362480066  0.6870375145133 1.0
C      1  0.5784337949275  0.3016510079702  0.4526798359534 1.0
C      1  0.5938483612881  0.6668258955209  0.3648968634877 1.0
C      1  0.3996119257269  0.5105717104040  0.6615679710857 1.0
C      1  0.4069372028281  0.3547557516301  0.4363237834632 1.0
C      1  0.4184307940525  0.6259122579191  0.4364259770085 1.0
C      1  0.3954068606649  0.3073079352546  0.2943585981158 1.0
C      1  0.4016550060889  0.7805948138658  0.4723442573881 1.0
C      1  0.3956510272941  0.4090640136580  0.7712742311647 1.0
C      1  0.5890192377472  0.3120670213526  0.3008185068413 1.0
C      1  0.5901057148156  0.7971092222362  0.4764826329633 1.0
C      1  0.5910443417174  0.4137069220701  0.7627589285778 1.0
C      1  0.7340811784958  0.3788750557158  0.6920493841230 1.0
C      1  0.7331711531223  0.3841749328119  0.2944315377706 1.0
C      1  0.7516788023624  0.7564780133241  0.4565562668366 1.0
C      1  0.2521370233124  0.3646385903903  0.7049058022520 1.0
C      1  0.2518487479281  0.3847422580547  0.2778299178679 1.0
C      1  0.2602985003079  0.7598014116324  0.5471329054546 1.0
C      1  0.4557918460958  0.6789990670335  0.1727176717359 1.0
C      1  0.4665143754863  0.6605234582807  0.8276185868001 1.0
C      1  0.4560162347149  0.1417297048402  0.4968273422659 1.0
C      1  0.5491144358666  0.6793677116048  0.1587690736732 1.0
C      1  0.5580546943597  0.6749637610671  0.8375194022579 1.0
C      1  0.5459092544579  0.1207462695596  0.5047726194802 1.0
C      1  0.6797273437657  0.7774908737957  0.5075083602417 1.0
C      1  0.6781861223957  0.4379012799615  0.7358496174260 1.0
C      1  0.6772468705748  0.3224052469319  0.3344803521991 1.0
C      1  0.3089995536552  0.7652188035716  0.4689537795134 1.0
C      1  0.3063160915437  0.4286635555369  0.7463983482255 1.0
C      1  0.3069107636363  0.3236168543045  0.3225473660376 1.0
C      1  0.2630813176024  0.5883907850101  0.6448720249209 1.0
C      1  0.2673853277187  0.3513117774248  0.5105584778242 1.0
C      1  0.2823949665375  0.5630081615737  0.3772915255136 1.0
C      1  0.7371271367468  0.5711822829564  0.6243224466262 1.0
C      1  0.7182832670729  0.3404726728891  0.5172193077992 1.0
C      1  0.7502507395455  0.5879355233885  0.3445044078576 1.0
C      1  0.5914829947746  0.1538868192681  0.5828294177944 1.0
C      1  0.5948929047111  0.5947496646732  0.1577242009865 1.0
C      1  0.5983932887496  0.7320864848398  0.7718445940945 1.0
C      1  0.4050325878062  0.1681078521797  0.5714939757092 1.0
C      1  0.4055442971692  0.5973880260672  0.1689583676104 1.0
C      1  0.4101023661318  0.7186729115196  0.7784895665836 1.0
C      1  0.3487207410880  0.6371656546045  0.3673834644989 1.0
C      1  0.3058254042508  0.5261880716418  0.7146478814376 1.0
C      1  0.3047148542605  0.3091382208920  0.4240228847378 1.0
C      1  0.6856343027372  0.6715917346497  0.3264166804285 1.0
C      1  0.6796202382089  0.5350320345521  0.7064716132039 1.0
C      1  0.6793411555340  0.2916813282891  0.4324589003379 1.0
C      1  0.5544316411001  0.5112622678669  0.4692128875979 1.0
END
