TITL C-6250-3542-54 -6.978 3375.00 -1185.94709096 0 0 145 (C1) n - 1
REM
REM Run started: at 2020.12.19 15:14:25 in /gpfs/home/chem/mssmkc/CARBON/AIRSS/Generating-Clusters/Str-Search/Higher-Symm
REM VASP from code version vasp.5.4.4.18Apr17-6-g9f103f2a35 (build Oct 11 2019 16:45:47) gamma-only
REM
REM
REM
REM
REM ./C.cell (533062f00bc710175b3da973d35f2034)
REM AIRSS Version 0.9.1 bugfix July 2018 build 013d7b7c2542+ Fri, 06 Jul 2018 19:26:36 +0100
REM compiler GCC version 6.3.0
REM options -cpp -iprefix /gpfs/warwick/csc/orac/software/Core/GCCcore/6.3.0/bin/../lib/gcc/x86_64-pc-linux-gnu/6.3.0/ -mtune=generic -march=x86-64 -g -O0
REM seed 1195219915 460067768 524512276 -1629771609 -1250812391 -700653253 -1917812377 -658325345 -586295087 -1676999785 -1535920216 -1070920348
REM
REM C.POTCAR (d86ddea03c3ceb6dc662c8ad6801f873)
REM 
CELL 1.54180   15.00000   15.00000   15.00000   90.00000   90.00000   90.00000
LATT -1
SFAC C  
C      1  0.1589589070236  0.5991139312727  0.4796402365930 1.0
C      1  0.6174395381200  0.6250754103236  0.7476103375421 1.0
C      1  0.6497422294749  0.6154759550482  0.2528312496362 1.0
C      1  0.1674455030314  0.3639541852835  0.5064154490671 1.0
C      1  0.6526555186760  0.3705468393937  0.2424311319183 1.0
C      1  0.6459010221725  0.3785533767226  0.7651942145394 1.0
C      1  0.4251517199771  0.1753934177571  0.4344905078749 1.0
C      1  0.4612154114601  0.1845491212453  0.5889034001876 1.0
C      1  0.5799340808665  0.1658861764009  0.4835062845560 1.0
C      1  0.4369888824355  0.8301284776846  0.5728764819417 1.0
C      1  0.4768510628031  0.8263650759699  0.4110139084416 1.0
C      1  0.5905100206702  0.8313300496335  0.5274550836701 1.0
C      1  0.2497962557667  0.2001743150666  0.6210576337864 1.0
C      1  0.7191488653381  0.2157820047419  0.6628088829144 1.0
C      1  0.5076203362602  0.2171701347893  0.2376135824410 1.0
C      1  0.2667625187047  0.7739631519761  0.3975756623394 1.0
C      1  0.7139164549223  0.7934439830633  0.3379786252151 1.0
C      1  0.5239846324431  0.8128106789428  0.7723042340606 1.0
C      1  0.5690346434720  0.8288216679393  0.4361659640111 1.0
C      1  0.4122455239239  0.8274399800539  0.4794570669188 1.0
C      1  0.5287002851782  0.8445766429339  0.6002321597758 1.0
C      1  0.5559831926421  0.1625845820188  0.5753232986066 1.0
C      1  0.3909744596978  0.1643399900069  0.5268099461854 1.0
C      1  0.5143508720776  0.1639765759935  0.4115433123327 1.0
C      1  0.2683672808213  0.1867035045561  0.2902129708785 1.0
C      1  0.4389643873296  0.2291218493201  0.7479042759377 1.0
C      1  0.7460409945699  0.2310706159270  0.4479132046982 1.0
C      1  0.3094150925042  0.7874552899170  0.6919455224866 1.0
C      1  0.4292927291683  0.8009289060980  0.2425958762882 1.0
C      1  0.7567103873765  0.8080752565767  0.5637045807801 1.0
C      1  0.6234620136776  0.7938528725911  0.3627490084804 1.0
C      1  0.3286693294627  0.7804072703596  0.4669858479460 1.0
C      1  0.5669562057567  0.8278399605196  0.6885075420012 1.0
C      1  0.6158681440395  0.2010799483092  0.6561021969510 1.0
C      1  0.2953473876512  0.1768169862877  0.5393153886878 1.0
C      1  0.5546251646936  0.2085819411008  0.3276810438027 1.0
C      1  0.6596784627174  0.2658574255742  0.2249428018969 1.0
C      1  0.1743711882869  0.2657150588053  0.5014158718085 1.0
C      1  0.6556613102593  0.2770073712486  0.7910170438428 1.0
C      1  0.6527079219579  0.7206628802668  0.7726493938448 1.0
C      1  0.1727007205853  0.6901096111763  0.5081740661211 1.0
C      1  0.6532492599499  0.7079523592973  0.2061722895499 1.0
C      1  0.7742420374089  0.2070030918818  0.5932510597911 1.0
C      1  0.4218103355498  0.1959290801254  0.2214656916258 1.0
C      1  0.2881058220796  0.1928890964913  0.7035729162931 1.0
C      1  0.7777728292204  0.8206916356700  0.4014236133828 1.0
C      1  0.4344106187439  0.8327192074823  0.7867419920815 1.0
C      1  0.2854832135396  0.8120029635458  0.3140815093999 1.0
C      1  0.4591198367154  0.5570551734941  0.2281859899330 1.0
C      1  0.3027588849584  0.5343022227899  0.6527718580419 1.0
C      1  0.7322933930430  0.5274878544271  0.5999222421958 1.0
C      1  0.4524233847837  0.4455584039521  0.7741571948843 1.0
C      1  0.3093825011040  0.4689299819523  0.3404918125626 1.0
C      1  0.7701820395061  0.4515976260536  0.3917958626911 1.0
C      1  0.2358481446831  0.2056232318552  0.4640748290491 1.0
C      1  0.5940099777720  0.2085977929128  0.7611024276977 1.0
C      1  0.6568023408359  0.2041983348979  0.2975623815077 1.0
C      1  0.2243135142843  0.7191546292524  0.5833465518443 1.0
C      1  0.5677960343177  0.7497698299119  0.2055566787799 1.0
C      1  0.6592373681865  0.7779597713253  0.6910813802964 1.0
C      1  0.7251374194377  0.7295076930696  0.2638014070870 1.0
C      1  0.1971095523755  0.7109313616707  0.4179956044681 1.0
C      1  0.5717476814164  0.7391170079160  0.8149811752135 1.0
C      1  0.7329997595960  0.2738937627300  0.7386776108060 1.0
C      1  0.1814251130313  0.2613982726282  0.5976621494087 1.0
C      1  0.5722801534092  0.2686655438474  0.1873569988695 1.0
C      1  0.4258334504701  0.5790233214579  0.3969666349213 1.0
C      1  0.4690556502074  0.5037018499871  0.6081607748143 1.0
C      1  0.6456604323029  0.5268646931651  0.4478187794774 1.0
C      1  0.4364200296219  0.3609724019884  0.6252033954634 1.0
C      1  0.4849091293113  0.4651663124177  0.3545648204181 1.0
C      1  0.6438607577765  0.4121112110746  0.5227384778336 1.0
C      1  0.3395960058829  0.1862703480657  0.2382151028133 1.0
C      1  0.3501447875887  0.2029029445338  0.7561802897578 1.0
C      1  0.8041964575203  0.2037390491046  0.5143296125143 1.0
C      1  0.3549413156374  0.8232994773870  0.7667742685901 1.0
C      1  0.3386938955952  0.8254148231857  0.2524425852760 1.0
C      1  0.7969454429678  0.8295168841908  0.4813889148952 1.0
C      1  0.2217701223855  0.4681769716897  0.3736116548887 1.0
C      1  0.5229828033449  0.4878676586277  0.8284719147589 1.0
C      1  0.7673752260915  0.4851638027906  0.3008333522716 1.0
C      1  0.2204456352316  0.5094127054932  0.6083490802925 1.0
C      1  0.5369062819982  0.5133451396927  0.1814657033843 1.0
C      1  0.7338618350375  0.5155363385600  0.6938130215257 1.0
C      1  0.5342242105498  0.3901253011228  0.3639046972675 1.0
C      1  0.4296209205668  0.4205506842353  0.5557510844041 1.0
C      1  0.6095783801878  0.3588863503563  0.5867949022463 1.0
C      1  0.5598942117275  0.5639156529786  0.5810585136539 1.0
C      1  0.4455428035278  0.6254681258053  0.4759209747480 1.0
C      1  0.6018126293871  0.6039957072583  0.4223654392245 1.0
C      1  0.6180761189233  0.4681769958940  0.8025839434077 1.0
C      1  0.6933152076942  0.4617163944731  0.2372558587016 1.0
C      1  0.1854982617374  0.4419203887903  0.4610474288729 1.0
C      1  0.6311443458518  0.5286923821828  0.2120439194518 1.0
C      1  0.6627196226783  0.5372028720993  0.7583771495656 1.0
C      1  0.1830284748130  0.5213152850477  0.5201686880334 1.0
C      1  0.3833731900896  0.5686034392614  0.6135996067253 1.0
C      1  0.6451634690920  0.5115357112537  0.5470851635004 1.0
C      1  0.4930503290705  0.5683748446269  0.3227782133418 1.0
C      1  0.3931218699250  0.4770065783488  0.3936228017468 1.0
C      1  0.6742034832037  0.4306018734748  0.4207092261239 1.0
C      1  0.4894518824809  0.4246642762352  0.6827227415684 1.0
C      1  0.3212065656116  0.7233985485746  0.5496054614711 1.0
C      1  0.6372126241321  0.7101540132893  0.6207862159994 1.0
C      1  0.5576814858219  0.7385612456463  0.3091911748893 1.0
C      1  0.3748977266909  0.3291158949077  0.4318607566657 1.0
C      1  0.5808900969200  0.2979956701929  0.3825615887878 1.0
C      1  0.5657937466453  0.2891075349783  0.6407358019625 1.0
C      1  0.3626122002137  0.4402758337121  0.7722038577747 1.0
C      1  0.8181869664278  0.4819266116060  0.4652327901870 1.0
C      1  0.2983993866662  0.5418197369009  0.2742403226135 1.0
C      1  0.3685529479162  0.5625432375910  0.2221111357705 1.0
C      1  0.8044107489013  0.4981193451961  0.5468621207608 1.0
C      1  0.2972578087174  0.4554301955524  0.7129767389817 1.0
C      1  0.7098314709470  0.2043908265724  0.3703647178522 1.0
C      1  0.2745185198481  0.2095775980931  0.3770248181201 1.0
C      1  0.5113147183954  0.2036449018050  0.7913196868034 1.0
C      1  0.7430145013405  0.8265178072563  0.6511329418421 1.0
C      1  0.2212758236978  0.7557073145451  0.6676714139816 1.0
C      1  0.4914331308830  0.7801800798388  0.1707221523646 1.0
C      1  0.7481263116654  0.6352505785424  0.2786531201187 1.0
C      1  0.1754941755899  0.6215782804913  0.3834809132734 1.0
C      1  0.5445290015305  0.6445676948208  0.8198684135453 1.0
C      1  0.7471530393132  0.3703458987308  0.7370663904987 1.0
C      1  0.1769254027396  0.3564614360673  0.6072998910477 1.0
C      1  0.5686028110523  0.3626708730367  0.1746833513224 1.0
C      1  0.3797128914613  0.6359668856607  0.5485741492425 1.0
C      1  0.5952691269167  0.6344740702410  0.6474285190559 1.0
C      1  0.5765967072398  0.6318330719084  0.3294076396483 1.0
C      1  0.3925069978567  0.4090173175654  0.4677444809768 1.0
C      1  0.6275606482717  0.3762787637917  0.3448655307735 1.0
C      1  0.5829789079120  0.3786346619857  0.6819084218464 1.0
C      1  0.2114564993164  0.5567715020758  0.3275651402113 1.0
C      1  0.5075231033329  0.5734449818614  0.8562656599619 1.0
C      1  0.8063961479692  0.5700391890028  0.2925790451532 1.0
C      1  0.2160627335518  0.4265819989067  0.6563125129705 1.0
C      1  0.5197983530329  0.4308183517872  0.1450979017531 1.0
C      1  0.7913381624249  0.4417838663026  0.7097238573432 1.0
C      1  0.3666180842961  0.7814579313566  0.6177580214192 1.0
C      1  0.6649496639990  0.7745971820328  0.5517579903678 1.0
C      1  0.4712811113527  0.7846086245705  0.3251241918593 1.0
C      1  0.3648598334433  0.2480992947026  0.3999056417497 1.0
C      1  0.6452142460741  0.2324035197931  0.4490085292410 1.0
C      1  0.4629221028349  0.2659668316166  0.6477926149837 1.0
C      1  0.5384119226244  0.6157204979576  0.4940265198596 1.0
END
