TITL C-6250-3542-33 -7.506 3375.00 -1321.58944704 0 0 162 (C1) n - 1
REM
REM Run started: at 2020.12.18 21:44:00 in /gpfs/home/chem/mssmkc/CARBON/AIRSS/Generating-Clusters/Str-Search/Higher-Symm
REM VASP from code version vasp.5.4.4.18Apr17-6-g9f103f2a35 (build Oct 11 2019 16:45:47) gamma-only
REM
REM
REM
REM
REM ./C.cell (533062f00bc710175b3da973d35f2034)
REM AIRSS Version 0.9.1 bugfix July 2018 build 013d7b7c2542+ Fri, 06 Jul 2018 19:26:36 +0100
REM compiler GCC version 6.3.0
REM options -cpp -iprefix /gpfs/warwick/csc/orac/software/Core/GCCcore/6.3.0/bin/../lib/gcc/x86_64-pc-linux-gnu/6.3.0/ -mtune=generic -march=x86-64 -g -O0
REM seed 1754610555 158930238 2141835448 -559265857 -122680679 -1094572929 -945413968 -1445513335 -217176559 245162656 -1202762807 1808416251
REM
REM C.POTCAR (d86ddea03c3ceb6dc662c8ad6801f873)
REM 
CELL 1.54180   15.00000   15.00000   15.00000   90.00000   90.00000   90.00000
LATT -1
SFAC C  
C      1  0.3591181175957  0.6659963077028  0.4384499762869 1.0
C      1  0.5831199398255  0.6573346392639  0.2851486099645 1.0
C      1  0.7652402298172  0.4618983082329  0.2466547215660 1.0
C      1  0.4940370558992  0.5685271537300  0.8566103005989 1.0
C      1  0.5926662161967  0.3387677950456  0.2151287950441 1.0
C      1  0.8660772184391  0.5200907346263  0.6385454995335 1.0
C      1  0.1187066830182  0.4102632601961  0.5134522332835 1.0
C      1  0.7919577711360  0.6056381373692  0.4273777061463 1.0
C      1  0.3568954476910  0.5780652414500  0.2250129336090 1.0
C      1  0.4995857022241  0.4081504301594  0.6479318059482 1.0
C      1  0.2288366099491  0.6301047326136  0.5583882294522 1.0
C      1  0.1834064139032  0.2846362415910  0.4224712054628 1.0
C      1  0.2646582775739  0.6570484468853  0.7969982648902 1.0
C      1  0.4493255721328  0.6888267470662  0.4714269481871 1.0
C      1  0.2651141199766  0.8489825451572  0.5425148580514 1.0
C      1  0.8242204985117  0.5838537970643  0.3320484285219 1.0
C      1  0.5094630996753  0.2616752760141  0.5060367820208 1.0
C      1  0.6239258320235  0.5148113718035  0.3647844487148 1.0
C      1  0.8482044315377  0.5623279406397  0.5508665116740 1.0
C      1  0.1593285269002  0.5589589816761  0.5233574589179 1.0
C      1  0.7442540072676  0.7640989265750  0.3222369634410 1.0
C      1  0.2411394589668  0.6655386704130  0.6491945594866 1.0
C      1  0.3027830491681  0.2507760884623  0.5678609198799 1.0
C      1  0.4825925705718  0.8483869166355  0.4137913273097 1.0
C      1  0.5231740595346  0.2726277973161  0.7699821826210 1.0
C      1  0.4827980895249  0.6594462968536  0.5543209122527 1.0
C      1  0.4039602983731  0.1200403223551  0.5229760801322 1.0
C      1  0.2934538873216  0.7456333767538  0.7764696325020 1.0
C      1  0.4578571340443  0.4510210055344  0.3376129827229 1.0
C      1  0.5918767367949  0.7923837156650  0.6090866273682 1.0
C      1  0.1919153744900  0.4557492887535  0.6498097611105 1.0
C      1  0.8414555369078  0.4458429816954  0.4057140857962 1.0
C      1  0.5474969289519  0.4571394333816  0.3348100537020 1.0
C      1  0.5076653874946  0.7532652717920  0.4348389607964 1.0
C      1  0.3770070384104  0.2891293894490  0.7349339784434 1.0
C      1  0.6615583017637  0.5892858441213  0.1670303744143 1.0
C      1  0.3169911424165  0.8699008809170  0.4619893677222 1.0
C      1  0.1171758529389  0.4748634084226  0.5840753976186 1.0
C      1  0.6860565514704  0.4275735295590  0.7670316453537 1.0
C      1  0.5623553827330  0.1670061386179  0.5195813282353 1.0
C      1  0.7525216650645  0.3737725433546  0.2008519581372 1.0
C      1  0.2946667952269  0.4982779165209  0.7773420985710 1.0
C      1  0.7118976867862  0.4641246796478  0.5050610469445 1.0
C      1  0.4955992370606  0.2970879345137  0.2404729301097 1.0
C      1  0.4056763327782  0.5287439620636  0.8567539453918 1.0
C      1  0.4574369579425  0.5158908428291  0.4883724401037 1.0
C      1  0.4676583572858  0.7675050849958  0.7147616831815 1.0
C      1  0.8387232906775  0.5781229492690  0.7029287448425 1.0
C      1  0.4203056298014  0.1166797172675  0.4278457141796 1.0
C      1  0.6892692321399  0.3204152707413  0.1946525978569 1.0
C      1  0.7223377068780  0.7827747463136  0.5003662965351 1.0
C      1  0.2067489199323  0.4814501241812  0.3874093101483 1.0
C      1  0.2174035485210  0.6147675795412  0.7232865208384 1.0
C      1  0.5979055676066  0.1829167940981  0.6756328285532 1.0
C      1  0.6209322877490  0.4684811748548  0.8324055278589 1.0
C      1  0.7405372131499  0.1662609277548  0.5593590296336 1.0
C      1  0.7618375348427  0.6307794892136  0.6918181546098 1.0
C      1  0.2405629104868  0.3660078798646  0.6304010059891 1.0
C      1  0.3370485825974  0.5839469828170  0.8027740047458 1.0
C      1  0.5480029320323  0.3573963701201  0.7256419128160 1.0
C      1  0.6545842559870  0.6832033910419  0.2082134034510 1.0
C      1  0.6202886565094  0.6150452538015  0.3642787833174 1.0
C      1  0.6572415697260  0.3099678718501  0.4646216527004 1.0
C      1  0.2015914977720  0.7909362170790  0.4968532470879 1.0
C      1  0.4395877065149  0.6085239343275  0.6310283690219 1.0
C      1  0.3656157335513  0.4429155220161  0.8200098876659 1.0
C      1  0.6552238876675  0.3360824724591  0.7223385381219 1.0
C      1  0.4996474769410  0.1676645531266  0.6632240788007 1.0
C      1  0.3193929442353  0.6031774438998  0.5084348048162 1.0
C      1  0.4894333403860  0.6267110079400  0.7756353345033 1.0
C      1  0.5189255631783  0.6320135423604  0.2088468470235 1.0
C      1  0.2101670525246  0.2932860250767  0.5745668828442 1.0
C      1  0.7231156714172  0.7496371179978  0.4071077452021 1.0
C      1  0.4940190952554  0.8018151651175  0.6312109060040 1.0
C      1  0.1501041441117  0.3148953374199  0.5073962212183 1.0
C      1  0.2616073735753  0.4468712063549  0.5675781292385 1.0
C      1  0.5757768179506  0.3296724769166  0.5271593557492 1.0
C      1  0.6715940240140  0.4354668767655  0.6024030519650 1.0
C      1  0.4287089134077  0.3855769298861  0.2624912315487 1.0
C      1  0.7362540634343  0.7123523773628  0.6442384355436 1.0
C      1  0.7044187891796  0.3432161287852  0.6313084454049 1.0
C      1  0.3231550697778  0.8202745137909  0.6089933419310 1.0
C      1  0.1497136738391  0.6384875410389  0.4534596126493 1.0
C      1  0.5510262053257  0.3839403712439  0.1342562167441 1.0
C      1  0.3546782543741  0.4631314589912  0.5854444276772 1.0
C      1  0.8360624422590  0.2714976777156  0.4629185111785 1.0
C      1  0.3920860737926  0.5499277103385  0.5606417834040 1.0
C      1  0.4140440953502  0.5031559527365  0.4091247371906 1.0
C      1  0.4333959845739  0.2632276406440  0.4507995425043 1.0
C      1  0.6302402600710  0.6152143771870  0.4711242088627 1.0
C      1  0.1899606495741  0.3284630330063  0.3385867789323 1.0
C      1  0.4991440071057  0.2190228786916  0.3026615386916 1.0
C      1  0.8254587351817  0.6474496286697  0.5189293429017 1.0
C      1  0.4846422751774  0.1335935934182  0.5747059496317 1.0
C      1  0.3792417552287  0.7316027535115  0.7332943712727 1.0
C      1  0.8028774197695  0.5131333643568  0.4756830059711 1.0
C      1  0.7911126826433  0.2046121732944  0.5009506609506 1.0
C      1  0.2865014537918  0.5317377778413  0.2610142701886 1.0
C      1  0.7766294399618  0.7271495445509  0.5584864195187 1.0
C      1  0.8039390053425  0.3596966055783  0.6374314724420 1.0
C      1  0.3360617529244  0.5644366039928  0.4137488141442 1.0
C      1  0.5783189385428  0.5325758918937  0.8781676735084 1.0
C      1  0.2675184007178  0.4398979351248  0.2578080141228 1.0
C      1  0.6150920591295  0.2430039319222  0.7452776334111 1.0
C      1  0.3421754418420  0.2757878092689  0.4751309231722 1.0
C      1  0.7230844312006  0.3771401237865  0.4561910283545 1.0
C      1  0.3359422775164  0.3223428266111  0.6485756686213 1.0
C      1  0.5502733191922  0.5048171984405  0.5202343984170 1.0
C      1  0.5507588469211  0.4420924953852  0.7716379660024 1.0
C      1  0.2914192103551  0.7504455149021  0.6743550414619 1.0
C      1  0.5150582736711  0.4895443801970  0.7053922857921 1.0
C      1  0.4158954190292  0.8367808930981  0.5768766446102 1.0
C      1  0.7389223844252  0.7063038906494  0.2529793544264 1.0
C      1  0.4387267729473  0.1895837922334  0.3775315212714 1.0
C      1  0.8120143720410  0.3544387219205  0.4301164069113 1.0
C      1  0.6406885755974  0.7238677989798  0.6533400463224 1.0
C      1  0.5728000221395  0.6148759275955  0.5531619591032 1.0
C      1  0.8551658177908  0.4247233355039  0.6438519943534 1.0
C      1  0.7013057106907  0.6514692782209  0.4160030752429 1.0
C      1  0.4264831808450  0.6207365907523  0.2190657285654 1.0
C      1  0.2229037705561  0.5145037839296  0.7220898795783 1.0
C      1  0.4094328627267  0.8657557428158  0.4824217325607 1.0
C      1  0.4699795097909  0.3295036291308  0.1304675303822 1.0
C      1  0.2116233690161  0.6465285647574  0.3813125254862 1.0
C      1  0.5697713235579  0.5595257569099  0.1567508824415 1.0
C      1  0.3220813898637  0.1582672156227  0.5433484868189 1.0
C      1  0.6799618485687  0.4574610979614  0.3019120009539 1.0
C      1  0.7877532839343  0.6219607070377  0.2537078580192 1.0
C      1  0.2616790939094  0.8016330842885  0.4194598987011 1.0
C      1  0.3896353388394  0.3529743274400  0.8037246610761 1.0
C      1  0.2547916661451  0.5608298527056  0.3538692142328 1.0
C      1  0.1682499408553  0.7069918895150  0.5181870635280 1.0
C      1  0.6362761577353  0.8156631607373  0.5261546076839 1.0
C      1  0.2781151749537  0.2650062926993  0.4081290792234 1.0
C      1  0.6073570743141  0.6252578199700  0.6506192815735 1.0
C      1  0.5802049557120  0.1998634568724  0.3441027312495 1.0
C      1  0.6003164255490  0.1587025307284  0.4283802249501 1.0
C      1  0.6432058839416  0.1871124546841  0.5842933097061 1.0
C      1  0.6562630998568  0.2838998649341  0.5666844410790 1.0
C      1  0.4897285629807  0.8499263257165  0.3144734365425 1.0
C      1  0.4020657576281  0.3939185345959  0.6208047542059 1.0
C      1  0.6346077849591  0.5151688400248  0.4640592343617 1.0
C      1  0.6078026783720  0.4071315209419  0.2824287395220 1.0
C      1  0.2810771042802  0.2987291484397  0.3147439046162 1.0
C      1  0.5687125844794  0.4210780628575  0.5738659383389 1.0
C      1  0.3288943630531  0.3640791147734  0.2664865208350 1.0
C      1  0.5250498624906  0.8108268771033  0.2502540699190 1.0
C      1  0.5220943021586  0.5850236558642  0.6897773682467 1.0
C      1  0.1958680569234  0.4711581077202  0.4841276466330 1.0
C      1  0.5641480882676  0.7275351185123  0.2195194089504 1.0
C      1  0.4530351653847  0.4205787064699  0.1667727597121 1.0
C      1  0.6860259908122  0.5775120193577  0.6862606998785 1.0
C      1  0.5692913151969  0.8142347414528  0.4545717657030 1.0
C      1  0.4514885102422  0.2257780347557  0.7269095941222 1.0
C      1  0.3995036977135  0.6342231707017  0.7327690822012 1.0
C      1  0.6487466223531  0.2333634917329  0.4026915580898 1.0
C      1  0.5278566451052  0.4773966188971  0.1377689152272 1.0
C      1  0.2834246737008  0.7141418664984  0.3912171440469 1.0
C      1  0.7443133801360  0.5537658582969  0.1997795880771 1.0
C      1  0.6897404831112  0.4836845687375  0.6897081764526 1.0
C      1  0.1932781537089  0.4208742969877  0.3205472848681 1.0
C      1  0.8302040373870  0.4881450566297  0.3232581686913 1.0
END
