TITL C-6250-3542-38 -7.097 3375.00 -1080.61679471 0 0 136 (C1) n - 1
REM
REM Run started: at 2020.12.19 02:07:46 in /gpfs/home/chem/mssmkc/CARBON/AIRSS/Generating-Clusters/Str-Search/Higher-Symm
REM VASP from code version vasp.5.4.4.18Apr17-6-g9f103f2a35 (build Oct 11 2019 16:45:47) gamma-only
REM
REM
REM
REM
REM ./C.cell (533062f00bc710175b3da973d35f2034)
REM AIRSS Version 0.9.1 bugfix July 2018 build 013d7b7c2542+ Fri, 06 Jul 2018 19:26:36 +0100
REM compiler GCC version 6.3.0
REM options -cpp -iprefix /gpfs/warwick/csc/orac/software/Core/GCCcore/6.3.0/bin/../lib/gcc/x86_64-pc-linux-gnu/6.3.0/ -mtune=generic -march=x86-64 -g -O0
REM seed 782494420 246606907 865376502 76906826 -724379630 784485690 488199932 -626623961 1764813953 -1319663773 1643615955 -1317431661
REM
REM C.POTCAR (d86ddea03c3ceb6dc662c8ad6801f873)
REM 
CELL 1.54180   15.00000   15.00000   15.00000   90.00000   90.00000   90.00000
LATT -1
SFAC C  
C      1  0.7246163359986  0.4017051210724  0.8625622981771 1.0
C      1  0.6681457457494  0.3314398429512  0.9059277544193 1.0
C      1  0.4785986296732  0.2856478422560  0.8124103180296 1.0
C      1  0.3902581026796  0.3032411730597  0.7848457186803 1.0
C      1  0.3128392758319  0.3004077149369  0.7344876604950 1.0
C      1  0.2407347675358  0.5166630249179  0.8018398820048 1.0
C      1  0.2576745813419  0.6018187772689  0.8370076310975 1.0
C      1  0.3278515708565  0.6340828662064  0.8674271033151 1.0
C      1  0.5361357458007  0.7170411978121  0.8592528630797 1.0
C      1  0.6088449135971  0.6771218176338  0.8085333452651 1.0
C      1  0.7082654247951  0.4920313330192  0.8469861367916 1.0
C      1  0.5635498579097  0.2798440834763  0.6569608429318 1.0
C      1  0.3230603064765  0.2932194993080  0.5673578326986 1.0
C      1  0.1880182356398  0.3857358801818  0.5364701854609 1.0
C      1  0.2443279759163  0.5162050085922  0.6312568766036 1.0
C      1  0.2720211088596  0.6928989611903  0.5877760184222 1.0
C      1  0.4218854086770  0.7842672167583  0.5403832826055 1.0
C      1  0.6110680091662  0.7715342514679  0.5685286146184 1.0
C      1  0.7037509109805  0.6456432750108  0.6671108530122 1.0
C      1  0.8798373639762  0.5729021138298  0.6726911087045 1.0
C      1  0.8687968845158  0.4148479615669  0.7012939423180 1.0
C      1  0.7220929626827  0.3288253564814  0.6474051251152 1.0
C      1  0.7891749023079  0.4001266131693  0.2497239964252 1.0
C      1  0.6858530233233  0.2565821661777  0.2366066325440 1.0
C      1  0.5240530354848  0.1874623663988  0.2270889847703 1.0
C      1  0.3516536690642  0.2142417308506  0.2448448631219 1.0
C      1  0.2351342300803  0.3302497913876  0.3110618313983 1.0
C      1  0.1749396484699  0.4978844588945  0.2907130188885 1.0
C      1  0.2309963932997  0.6615060402389  0.3170140847400 1.0
C      1  0.3711419405180  0.7554651225849  0.3594247961995 1.0
C      1  0.5449164922680  0.7729813564181  0.3603051031996 1.0
C      1  0.7019072565355  0.7195011553028  0.3159808327125 1.0
C      1  0.7946095199819  0.5753374567782  0.2754524161548 1.0
C      1  0.4665613117444  0.6902223568178  0.2488455009990 1.0
C      1  0.5701166446444  0.6730530096808  0.2382801787882 1.0
C      1  0.6457982538358  0.6009582726252  0.2250560217849 1.0
C      1  0.6735236412359  0.5009199806984  0.2105311356759 1.0
C      1  0.6408123707123  0.4019445694496  0.1980862943804 1.0
C      1  0.5580002267762  0.3368667343111  0.1872799301331 1.0
C      1  0.4520210342619  0.3237215596758  0.1823398831919 1.0
C      1  0.3536316599970  0.3644556501593  0.1879841915513 1.0
C      1  0.2998442331675  0.4508395830869  0.2027389788317 1.0
C      1  0.3102141750643  0.5565625195940  0.2211754114452 1.0
C      1  0.3699451735681  0.6460248385374  0.2398150411198 1.0
C      1  0.6748329456769  0.7023231214012  0.7466775044891 1.0
C      1  0.9227717273406  0.6566962043306  0.7011577899029 1.0
C      1  0.9536487529073  0.4271164314241  0.7575432486624 1.0
C      1  0.6986945029934  0.2736909134677  0.8310385046054 1.0
C      1  0.5476545164859  0.2521465605595  0.7532677057053 1.0
C      1  0.2752601976847  0.2653891251575  0.6521632422076 1.0
C      1  0.1499723511547  0.3130385637863  0.4788834613176 1.0
C      1  0.1871290645104  0.5000810037679  0.7203555284909 1.0
C      1  0.2064137225482  0.7304284402868  0.6478087363976 1.0
C      1  0.3900057681548  0.8634395737120  0.4965170584280 1.0
C      1  0.6411797851219  0.8257323952990  0.4973805010752 1.0
C      1  0.4100668214858  0.5889772457447  0.8775289029323 1.0
C      1  0.4921068460960  0.6307414970681  0.8734190364807 1.0
C      1  0.5804202637679  0.5969281350592  0.8517740051269 1.0
C      1  0.6242762698332  0.5166853877798  0.8774989381219 1.0
C      1  0.5590473584340  0.4526667973230  0.9120589426965 1.0
C      1  0.5841979371892  0.3596090115627  0.9257266316455 1.0
C      1  0.4963925656506  0.3413158117248  0.8877050566216 1.0
C      1  0.4648933274871  0.4357937804486  0.8994030093160 1.0
C      1  0.3241490594021  0.3706118579387  0.7943251316907 1.0
C      1  0.3135651140971  0.4580957070921  0.8284629733592 1.0
C      1  0.3945767518642  0.4913671242667  0.8729930722743 1.0
C      1  0.7308334688468  0.6411109617887  0.2778378620741 1.0
C      1  0.7704075941682  0.4904459884590  0.2506741447056 1.0
C      1  0.7193988101847  0.3421234250866  0.2338207963993 1.0
C      1  0.5960307492051  0.2442769108709  0.2216431307372 1.0
C      1  0.4400224301619  0.2228303628172  0.2194776743029 1.0
C      1  0.3029881484419  0.2931117451496  0.2464405999629 1.0
C      1  0.2214930191943  0.4202303511608  0.2677452707203 1.0
C      1  0.2178570421737  0.5780896441380  0.2808324469857 1.0
C      1  0.3141792025154  0.6994677203067  0.3080041912577 1.0
C      1  0.4584828864898  0.7528987105615  0.3251050007883 1.0
C      1  0.6126725529003  0.7375803543100  0.3045696847438 1.0
C      1  0.6660559037941  0.3922021574558  0.5922363298019 1.0
C      1  0.5688120366350  0.3796005092892  0.6287191006146 1.0
C      1  0.5112474080363  0.3092429004046  0.5771310734591 1.0
C      1  0.4123347654768  0.3465909395877  0.5785117262503 1.0
C      1  0.4194817987416  0.4337308616013  0.6325050063984 1.0
C      1  0.3499905661343  0.5061297170688  0.6106187830377 1.0
C      1  0.4001189830035  0.5922528979780  0.6173575527504 1.0
C      1  0.4906318435722  0.6064696652660  0.6250720439541 1.0
C      1  0.5526198612735  0.5433715034131  0.6551615202825 1.0
C      1  0.6482335687472  0.5673870118097  0.6263762833333 1.0
C      1  0.7009808320695  0.4862065364300  0.6022444731291 1.0
C      1  0.3480377991684  0.7140226963903  0.5266598987056 1.0
C      1  0.5185083997964  0.7466758293448  0.5289568362443 1.0
C      1  0.6709674111517  0.7386731947249  0.6385153673840 1.0
C      1  0.8037746136411  0.6275665273223  0.6574065412858 1.0
C      1  0.9185186738008  0.4848833435723  0.6589084610941 1.0
C      1  0.7917585985994  0.3640046561308  0.7121451992879 1.0
C      1  0.6626897590858  0.2654918459832  0.6748068684485 1.0
C      1  0.3204184840079  0.1927909736689  0.5838514489127 1.0
C      1  0.2623049084463  0.3371730605283  0.4933973725060 1.0
C      1  0.1716358231864  0.4540691617345  0.5934441815432 1.0
C      1  0.2249705198869  0.6111962265565  0.5986718781652 1.0
C      1  0.6549341819075  0.5154630639365  0.1121318961633 1.0
C      1  0.6267750184162  0.4253597371373  0.1006755045522 1.0
C      1  0.5529501886057  0.3662378887702  0.0912442378758 1.0
C      1  0.4573973762876  0.3552794598660  0.0874813081912 1.0
C      1  0.3706841748607  0.3957788810935  0.0903749835613 1.0
C      1  0.3212609938349  0.4773638132644  0.1042116024391 1.0
C      1  0.3265626736832  0.5711887482839  0.1242183277483 1.0
C      1  0.3792585858255  0.6509775711858  0.1391998287730 1.0
C      1  0.4646574246217  0.6909685685041  0.1439166576631 1.0
C      1  0.5580174983110  0.6713684203310  0.1380194228654 1.0
C      1  0.6268928905463  0.6057468931428  0.1263627871474 1.0
C      1  0.5194341572446  0.3440466053933  0.4831137206333 1.0
C      1  0.4354697337535  0.3823923803170  0.4875956681076 1.0
C      1  0.4318444009301  0.4738783797417  0.4646417912273 1.0
C      1  0.3750191600359  0.5319697507429  0.5081716463275 1.0
C      1  0.3980948296280  0.6278926736836  0.5225716977046 1.0
C      1  0.4991752624366  0.6450746430688  0.5285778142722 1.0
C      1  0.5593116348017  0.5802217931845  0.4790554428176 1.0
C      1  0.6419290422571  0.5762388005495  0.5176969917970 1.0
C      1  0.7009679018231  0.5006822076270  0.5102112973788 1.0
C      1  0.6646308979259  0.4128099100438  0.4895132229957 1.0
C      1  0.5815680250906  0.4103673067571  0.4519918444561 1.0
C      1  0.2417462188307  0.1751398194472  0.6280595942940 1.0
C      1  0.2124437985595  0.3102818404085  0.4082568712348 1.0
C      1  0.1100987808819  0.4706958719355  0.6741213102975 1.0
C      1  0.1470231756204  0.6696109680709  0.5995461219646 1.0
C      1  0.3545741360993  0.7847721894012  0.4531612672447 1.0
C      1  0.5662340052705  0.7934296766020  0.4498388629466 1.0
C      1  0.6970396628721  0.7912052683635  0.7137599090025 1.0
C      1  0.8726754124880  0.6851993185986  0.6232776077809 1.0
C      1  0.0125251596079  0.4592376279663  0.6930244247753 1.0
C      1  0.7634998065025  0.3398159909729  0.8010286583113 1.0
C      1  0.6419130162355  0.2363012491721  0.7647940962427 1.0
C      1  0.5243754529333  0.4977057243311  0.4235799853204 1.0
C      1  0.5075462743233  0.4997414532477  0.3284339612432 1.0
C      1  0.5119029850273  0.4542794128142  0.6537868284136 1.0
C      1  0.4852479944957  0.4928047600972  0.2483022535138 1.0
END
