TITL C-6242-5555-10 -7.898 3375.00 -1474.14619170 0 0 178 (C1) n - 1
REM
REM Run started: at 2020.12.18 03:22:26 in /gpfs/home/chem/mssmkc/CARBON/AIRSS/Generating-Clusters/Str-Search/Higher-Symm
REM VASP from code version vasp.5.4.4.18Apr17-6-g9f103f2a35 (build Oct 11 2019 16:45:47) gamma-only
REM
REM
REM
REM
REM ./C.cell (533062f00bc710175b3da973d35f2034)
REM AIRSS Version 0.9.1 bugfix July 2018 build 013d7b7c2542+ Fri, 06 Jul 2018 19:26:36 +0100
REM compiler GCC version 6.3.0
REM options -cpp -iprefix /gpfs/warwick/csc/orac/software/Core/GCCcore/6.3.0/bin/../lib/gcc/x86_64-pc-linux-gnu/6.3.0/ -mtune=generic -march=x86-64 -g -O0
REM seed 1220814604 -763380533 681728080 1664960586 -1046402925 -1213396537 -1610842513 -1906375331 1544961755 -2131703964 -828983565 -62808473
REM
REM C.POTCAR (d86ddea03c3ceb6dc662c8ad6801f873)
REM 
CELL 1.54180   15.00000   15.00000   15.00000   90.00000   90.00000   90.00000
LATT -1
SFAC C  
C      1  0.1859513721280  0.5209417027091  0.5277792936559 1.0
C      1  0.2577119011916  0.6811450897994  0.5304967514409 1.0
C      1  0.3980275074300  0.7940153956096  0.5363853593153 1.0
C      1  0.5766499756374  0.8065479241748  0.5413733462427 1.0
C      1  0.7312502128670  0.7191824261485  0.5363016074186 1.0
C      1  0.8161921107194  0.5633405088823  0.5189948959292 1.0
C      1  0.8031794739487  0.3865393872809  0.5084466194388 1.0
C      1  0.6956439220071  0.2431864225044  0.5052310706577 1.0
C      1  0.5278512456233  0.1820640859813  0.5097078528744 1.0
C      1  0.3526496831086  0.2261093215017  0.5217997620359 1.0
C      1  0.2249089020960  0.3433402701874  0.5331842453360 1.0
C      1  0.8958503619154  0.4255448623560  0.3701178461440 1.0
C      1  0.8031258130324  0.2182977040045  0.3741407116625 1.0
C      1  0.5904852228744  0.1309397816260  0.3581218277711 1.0
C      1  0.3660117453474  0.1233646246301  0.3833094363643 1.0
C      1  0.1970623148103  0.2805513035713  0.3851188973429 1.0
C      1  0.0794889622774  0.4806105563785  0.4177512488958 1.0
C      1  0.1434873375784  0.6959075272824  0.4047977612651 1.0
C      1  0.2918841097988  0.8691146088491  0.4257103492428 1.0
C      1  0.5207463487886  0.9021389370366  0.4084805240968 1.0
C      1  0.7403794060565  0.8460485670684  0.4168118200898 1.0
C      1  0.8674521968692  0.6535176866075  0.3833401013683 1.0
C      1  0.5970563140109  0.2514392403260  0.4921936854777 1.0
C      1  0.4482340799146  0.2415004143962  0.4980865639035 1.0
C      1  0.3192489586511  0.3207478491168  0.5099378103527 1.0
C      1  0.2022103137612  0.4298265350243  0.4906298139367 1.0
C      1  0.2623209524876  0.5827950694252  0.4963030158075 1.0
C      1  0.3502189047689  0.7087719984764  0.5068021117854 1.0
C      1  0.4902196922882  0.7633512555475  0.5152181891167 1.0
C      1  0.6358470249718  0.7319956108742  0.5123608283709 1.0
C      1  0.7387573256412  0.6241457524177  0.5073628122785 1.0
C      1  0.7695372406974  0.4793487291879  0.4938837383676 1.0
C      1  0.7175876509947  0.3391361807109  0.4871275414535 1.0
C      1  0.3802864796559  0.3836250384125  0.8151492508240 1.0
C      1  0.3178185720017  0.4513120647123  0.8434008375374 1.0
C      1  0.3364098537432  0.5430560262625  0.8120473332767 1.0
C      1  0.3985477753901  0.6013330024302  0.8679778143146 1.0
C      1  0.4858234069256  0.6248457392705  0.8845128631049 1.0
C      1  0.5646625651050  0.5857527304966  0.8269994439878 1.0
C      1  0.6416543300451  0.5570026122899  0.8877714986198 1.0
C      1  0.6414331142652  0.4626188290054  0.8998786951340 1.0
C      1  0.5683758086948  0.4254430504388  0.8503122142648 1.0
C      1  0.5289621981165  0.3398705918329  0.8695185241373 1.0
C      1  0.4323155772791  0.3425881272360  0.8847816386073 1.0
C      1  0.5108399574808  0.1321260550287  0.2995323016210 1.0
C      1  0.3214017929842  0.1764581923427  0.3125706277655 1.0
C      1  0.1756961840528  0.3613836688328  0.3389546656713 1.0
C      1  0.0934090281386  0.5414560734594  0.3408103752294 1.0
C      1  0.1969594494173  0.7564108261801  0.3481356203479 1.0
C      1  0.3520590459084  0.8701506279350  0.3488173163858 1.0
C      1  0.5958155069759  0.8883463471829  0.3465956870945 1.0
C      1  0.7646061604018  0.7959287175074  0.3363027154121 1.0
C      1  0.8847015246438  0.5892153478182  0.3083621742500 1.0
C      1  0.8706424379703  0.3537164330690  0.3054562758756 1.0
C      1  0.7426622503756  0.2025277001546  0.2960905534226 1.0
C      1  0.6046536216515  0.8206494539517  0.2828711777643 1.0
C      1  0.6959880038754  0.7759380330523  0.2747094908138 1.0
C      1  0.8358363914162  0.5795700027848  0.2332778280353 1.0
C      1  0.8039460104029  0.3457463226040  0.2406124585196 1.0
C      1  0.7391488274277  0.2686148089162  0.2333094894688 1.0
C      1  0.4710861223410  0.1924651641541  0.2429862643799 1.0
C      1  0.3756281573332  0.2156684719374  0.2502693217853 1.0
C      1  0.2002730584384  0.4259001294087  0.2772054787163 1.0
C      1  0.1594016141450  0.5148911209635  0.2801240613703 1.0
C      1  0.2687279773716  0.7331268244788  0.2926131269348 1.0
C      1  0.3482234923401  0.7958737018672  0.2908120743794 1.0
C      1  0.5933721399918  0.6341444735527  0.7287906746769 1.0
C      1  0.6687405857923  0.5642769338761  0.7010317277886 1.0
C      1  0.6913588830442  0.4713937886698  0.6973610184620 1.0
C      1  0.6582975159984  0.3790018208013  0.6943805348607 1.0
C      1  0.5794354924163  0.3230381260639  0.6908649057412 1.0
C      1  0.4832052559118  0.3179281873414  0.6942018167689 1.0
C      1  0.3958179791910  0.3704505010633  0.7143591284311 1.0
C      1  0.3574087312032  0.4638781951280  0.6629964014370 1.0
C      1  0.3464361650621  0.5568941179502  0.7122396489159 1.0
C      1  0.4070916551545  0.6354081959262  0.7008933049089 1.0
C      1  0.4961552605874  0.6609417207939  0.7001374847568 1.0
C      1  0.6620765022737  0.6304707330716  0.9391609517050 1.0
C      1  0.6723421501252  0.4035957156848  0.9725283147143 1.0
C      1  0.6662168115097  0.3133579211503  0.9445884802523 1.0
C      1  0.5951227221323  0.2869075216698  0.9082239125051 1.0
C      1  0.4007793982070  0.3447264280628  0.9787276930425 1.0
C      1  0.3129381405725  0.3767893794930  0.9753625949151 1.0
C      1  0.2755666713895  0.4304110056672  0.9226255225373 1.0
C      1  0.2260423009508  0.6177413060432  0.8588382491795 1.0
C      1  0.3100641437231  0.6257179115886  0.8798209269284 1.0
C      1  0.5132452216981  0.6656416162801  0.9694283139727 1.0
C      1  0.6045854473744  0.6867835697418  0.9655315601695 1.0
C      1  0.3600819934554  0.5501177259295  0.4757821578887 1.0
C      1  0.4071299097448  0.6396297009194  0.4870299455440 1.0
C      1  0.4973712295437  0.6747081517571  0.4877644092901 1.0
C      1  0.5920858433682  0.6540861885870  0.4851617307376 1.0
C      1  0.6588432463844  0.5830858114524  0.4819385152332 1.0
C      1  0.6787062900719  0.4873503760987  0.4753426775377 1.0
C      1  0.6444528745520  0.3953102007463  0.4727659537308 1.0
C      1  0.5655563024941  0.3381104514643  0.4783529434805 1.0
C      1  0.4693725023708  0.3316537828103  0.4868543283667 1.0
C      1  0.3886300453451  0.3833070461921  0.5048422412305 1.0
C      1  0.3798240540040  0.4728226064586  0.5422095928694 1.0
C      1  0.2860784532237  0.6368002522459  0.2801002067674 1.0
C      1  0.4307177261620  0.7563466515804  0.2652992477704 1.0
C      1  0.5275169459210  0.7666200105590  0.2621340390632 1.0
C      1  0.6943945765543  0.6884997717265  0.2382566919515 1.0
C      1  0.7500058931656  0.6107948227866  0.2263311865275 1.0
C      1  0.7353034213802  0.4049476596405  0.2134259307887 1.0
C      1  0.6655519057509  0.3319659101911  0.1972444206443 1.0
C      1  0.4930262788006  0.2849535616626  0.2080098340281 1.0
C      1  0.3941786654062  0.3120816835359  0.2214256056828 1.0
C      1  0.2902906925708  0.4656325318396  0.2430702768732 1.0
C      1  0.2413398100348  0.5577281066392  0.2554542311850 1.0
C      1  0.5174473931047  0.3603256475089  0.2739856100376 1.0
C      1  0.4243599715439  0.3801169295329  0.2924048795151 1.0
C      1  0.3686432519512  0.4521247502661  0.3155593325265 1.0
C      1  0.3750571653944  0.5287448258987  0.3713474639338 1.0
C      1  0.3741373570715  0.6083120327969  0.3112257076016 1.0
C      1  0.4415794449199  0.6596791718876  0.2775431621861 1.0
C      1  0.5364472501910  0.6696597964207  0.2646644421936 1.0
C      1  0.6163718216952  0.6319127136898  0.2509447650448 1.0
C      1  0.6721168107956  0.5541002256697  0.2463256503569 1.0
C      1  0.6695074566225  0.4627109246546  0.2549314458233 1.0
C      1  0.6044069309919  0.3902534277275  0.2609238513875 1.0
C      1  0.1050192763500  0.6144041346264  0.4037587715196 1.0
C      1  0.2186787556881  0.8128371156754  0.4260353764031 1.0
C      1  0.4291364057577  0.8966854604712  0.4069672929254 1.0
C      1  0.6599114864736  0.8909293568019  0.4208602076309 1.0
C      1  0.8227588442534  0.7349372412399  0.3910280584536 1.0
C      1  0.9034887438802  0.5184727033717  0.3737851836534 1.0
C      1  0.8626080751250  0.2891069357948  0.3784093961458 1.0
C      1  0.6782532273050  0.1592009301959  0.3572955403884 1.0
C      1  0.4555152139197  0.1038297672490  0.3768963272002 1.0
C      1  0.2594759392468  0.2117222177049  0.3790946019303 1.0
C      1  0.1334289918917  0.4000362106388  0.4241930162862 1.0
C      1  0.4585847083832  0.2343588469255  0.6508596296825 1.0
C      1  0.3264298772649  0.3051998694650  0.6663131926810 1.0
C      1  0.2611715539765  0.4408348935440  0.6516242852951 1.0
C      1  0.2609431384448  0.5892085598490  0.6648551770190 1.0
C      1  0.3521017964224  0.7088076072437  0.6661828714474 1.0
C      1  0.4936417864494  0.7535023673060  0.6680253584147 1.0
C      1  0.6409332175566  0.7215799051655  0.6805881941835 1.0
C      1  0.7440396410223  0.6121425476558  0.6608069298819 1.0
C      1  0.7799278216229  0.4686800182952  0.6502152253761 1.0
C      1  0.7271228537797  0.3284450765078  0.6440267544663 1.0
C      1  0.6071649968323  0.2395435187315  0.6428907550151 1.0
C      1  0.7230153555884  0.7020021326817  0.6402714979470 1.0
C      1  0.8099544127675  0.5543074574757  0.6229948383574 1.0
C      1  0.7963765293135  0.3842572148532  0.6120307220325 1.0
C      1  0.6952824641189  0.2463351056720  0.6091194488561 1.0
C      1  0.5331502994181  0.1870139114831  0.6142458671905 1.0
C      1  0.3657762262201  0.2306075261727  0.6273892375390 1.0
C      1  0.2497008588933  0.3514557943017  0.6318280617178 1.0
C      1  0.2138489773225  0.5188297562028  0.6254064708253 1.0
C      1  0.2697748104570  0.6755287487251  0.6325985359849 1.0
C      1  0.4056440364041  0.7800595946795  0.6382912008825 1.0
C      1  0.5782582570238  0.7838698476177  0.6444269938241 1.0
C      1  0.6094988477294  0.3415300412812  0.1133824703332 1.0
C      1  0.5205976607534  0.3132630825357  0.1148361330925 1.0
C      1  0.4379545989965  0.3393263491873  0.0680538154498 1.0
C      1  0.3728862413631  0.3634691504431  0.1387861414997 1.0
C      1  0.3278723894975  0.4444926227738  0.1509463392025 1.0
C      1  0.3514628126630  0.5188666383557  0.0987140014536 1.0
C      1  0.3961201050227  0.5790220157276  0.0643226173751 1.0
C      1  0.4812364965175  0.6164359729911  0.0468757120607 1.0
C      1  0.5485198376677  0.5649656425868  0.0840580642607 1.0
C      1  0.6012417358502  0.5007604498937  0.0813078061724 1.0
C      1  0.6389196541564  0.4200619921537  0.0590030327352 1.0
C      1  0.7825714130681  0.7766597650466  0.4695782535178 1.0
C      1  0.8828834547126  0.5819328354118  0.4457429064955 1.0
C      1  0.8733324849644  0.3630788258622  0.4401965659130 1.0
C      1  0.7348325460120  0.1859586041566  0.4321190428357 1.0
C      1  0.5314292321076  0.1147787272655  0.4345442795789 1.0
C      1  0.3109323047246  0.1686795812983  0.4492740137953 1.0
C      1  0.1516538381274  0.3054132879175  0.4682134208840 1.0
C      1  0.0999515052625  0.5494790855092  0.4794110833980 1.0
C      1  0.1902617841690  0.7381369215951  0.4789203343748 1.0
C      1  0.3705957695709  0.8731037492342  0.4805416701442 1.0
C      1  0.5860893696739  0.8889272882146  0.4821847713189 1.0
C      1  0.5120636814299  0.4909274674854  0.7062665315566 1.0
C      1  0.5323526872828  0.4948091425427  0.7925873884365 1.0
END
