TITL C-6250-3542-1 -6.216 3375.00 -1107.93188829 0 0 138 (C2) n - 1
REM
REM Run started: at 2020.12.17 17:50:58 in /gpfs/home/chem/mssmkc/CARBON/AIRSS/Generating-Clusters/Str-Search/Higher-Symm
REM VASP from code version vasp.5.4.4.18Apr17-6-g9f103f2a35 (build Oct 11 2019 16:45:47) gamma-only
REM
REM
REM
REM
REM ./C.cell (533062f00bc710175b3da973d35f2034)
REM AIRSS Version 0.9.1 bugfix July 2018 build 013d7b7c2542+ Fri, 06 Jul 2018 19:26:36 +0100
REM compiler GCC version 6.3.0
REM options -cpp -iprefix /gpfs/warwick/csc/orac/software/Core/GCCcore/6.3.0/bin/../lib/gcc/x86_64-pc-linux-gnu/6.3.0/ -mtune=generic -march=x86-64 -g -O0
REM seed 736856749 -949123515 343318979 -1411615815 903193391 -870088596 1849987127 -1813246260 885638580 621160957 1248202320 797766798
REM
REM C.POTCAR (d86ddea03c3ceb6dc662c8ad6801f873)
REM 
CELL 1.54180   15.00000   15.00000   15.00000   90.00000   90.00000   90.00000
LATT -1
SFAC C  
C      1  0.4086506211333  0.4530896507793  0.8326445748642 1.0
C      1  0.4153677009875  0.2298223326888  0.2943905173580 1.0
C      1  0.4127894981738  0.8104760954993  0.3703363549505 1.0
C      1  0.5870568976749  0.4528094087954  0.8333816137466 1.0
C      1  0.5899422484599  0.2300025064587  0.2960123598380 1.0
C      1  0.5881913383017  0.8108230645102  0.3711385621401 1.0
C      1  0.4128015761220  0.4526759556804  0.1667842672136 1.0
C      1  0.4100948273664  0.2300601571157  0.7041872445349 1.0
C      1  0.4117658003373  0.8109092329012  0.6285942186374 1.0
C      1  0.5912561507457  0.4527371228324  0.1673855846574 1.0
C      1  0.5847476671464  0.2299122827160  0.7056979072063 1.0
C      1  0.5870914918023  0.8107152191676  0.6294717396610 1.0
C      1  0.2749375937724  0.4185372259153  0.4523224486471 1.0
C      1  0.2727593196764  0.5805133248197  0.4538496438200 1.0
C      1  0.2711971756881  0.4999460245389  0.5944085708674 1.0
C      1  0.7271239773871  0.4208290731968  0.4516511088883 1.0
C      1  0.7290067727189  0.5818608082575  0.4555782822833 1.0
C      1  0.7253725639113  0.4977564533982  0.5949250034732 1.0
C      1  0.2728666189608  0.4209345934727  0.5485184146028 1.0
C      1  0.2709254136442  0.5819441002409  0.5443350799104 1.0
C      1  0.2745864421371  0.4975884384554  0.4051604937166 1.0
C      1  0.7249059553787  0.4186085178739  0.5478556286751 1.0
C      1  0.7271573603444  0.5805619143258  0.5460753519431 1.0
C      1  0.7287323403631  0.4997628235880  0.4056462030449 1.0
C      1  0.3116589673961  0.5189635339385  0.3136484741959 1.0
C      1  0.3043977245862  0.6541814485087  0.6076500722839 1.0
C      1  0.3045669264990  0.3288294160293  0.5792383652936 1.0
C      1  0.6913857225442  0.5211771826116  0.3143922057398 1.0
C      1  0.6939315454677  0.6526856517799  0.6097468207463 1.0
C      1  0.6887573312070  0.3277634432018  0.5745905761476 1.0
C      1  0.3085017043874  0.5215078242034  0.6856096192046 1.0
C      1  0.3060731096093  0.6524591716686  0.3900631372647 1.0
C      1  0.3111396297248  0.3275923530363  0.4257977702907 1.0
C      1  0.6883071893951  0.5193502625948  0.6864168955148 1.0
C      1  0.6955966732892  0.6540565674273  0.3921592326553 1.0
C      1  0.6954347954640  0.3287052809034  0.4211500938225 1.0
C      1  0.5590163462919  0.3250779663390  0.3007929285013 1.0
C      1  0.5579426544940  0.7582929675028  0.4505826328633 1.0
C      1  0.5533810766132  0.4106403839458  0.7496791449012 1.0
C      1  0.4451616803533  0.3249144604697  0.2996096013111 1.0
C      1  0.4424626496145  0.7580444002910  0.4499699047612 1.0
C      1  0.4420217010408  0.4109764429098  0.7487910424096 1.0
C      1  0.5547481110065  0.3250009587781  0.7006684055437 1.0
C      1  0.5573913776381  0.7582175556217  0.5498178772276 1.0
C      1  0.5578686816812  0.4107788106475  0.2513274801396 1.0
C      1  0.4409727474956  0.3251672397138  0.6994855676976 1.0
C      1  0.4420625424149  0.7582848086880  0.5492042547752 1.0
C      1  0.4465348061382  0.4104726105992  0.2504868473127 1.0
C      1  0.2382897593233  0.2580158179921  0.5682338790439 1.0
C      1  0.2793134819002  0.6041171781567  0.2952641539131 1.0
C      1  0.2391197614856  0.6814783683247  0.6748459422080 1.0
C      1  0.7221978539052  0.2701620637123  0.5100529074058 1.0
C      1  0.7227888928640  0.6069180851456  0.2968752731262 1.0
C      1  0.7593616999787  0.6786642266932  0.6773232091805 1.0
C      1  0.2778800490880  0.2700935625362  0.4906019609682 1.0
C      1  0.2771115043554  0.6073023480250  0.7029743261992 1.0
C      1  0.2406498320346  0.6782619187287  0.3224615143107 1.0
C      1  0.7618444718734  0.2581480395185  0.4324345991542 1.0
C      1  0.7205249526155  0.6045985352116  0.7046276305734 1.0
C      1  0.7606984460815  0.6811930148702  0.3247788653705 1.0
C      1  0.4076725512658  0.6733794589326  0.4010835987625 1.0
C      1  0.4063554464812  0.4963991371000  0.7005571878409 1.0
C      1  0.4091327961125  0.3251764074961  0.3970555214824 1.0
C      1  0.5936331683614  0.6738466469804  0.4023433390360 1.0
C      1  0.5903304241299  0.4957914565645  0.7016991264371 1.0
C      1  0.5941259030853  0.3259844397417  0.3984481000049 1.0
C      1  0.4064068821291  0.6738984494624  0.5975184089865 1.0
C      1  0.4096631785249  0.4956000715602  0.2985255690464 1.0
C      1  0.4058868125973  0.3261177280539  0.6018324517419 1.0
C      1  0.5923046148119  0.6736160572670  0.5987476756120 1.0
C      1  0.5935220845341  0.4962172945034  0.2994372558406 1.0
C      1  0.5907735255564  0.3252991815382  0.6032253099916 1.0
C      1  0.4498940774543  0.4992967806515  0.3937545342414 1.0
C      1  0.4479359611238  0.5901124753789  0.5536162537869 1.0
C      1  0.4475867286342  0.4061524216905  0.5517121607517 1.0
C      1  0.5524389383094  0.4995654845829  0.3944582773295 1.0
C      1  0.5510794714117  0.5899560847677  0.5544415414176 1.0
C      1  0.5503451722406  0.4061199673412  0.5529017680784 1.0
C      1  0.4475833892403  0.4996793434184  0.6055848661447 1.0
C      1  0.4490031641245  0.5899029092349  0.4455924677543 1.0
C      1  0.4496632472887  0.4060212169498  0.4473751151724 1.0
C      1  0.5501405225368  0.4994020932741  0.6064616404295 1.0
C      1  0.5521540215827  0.5900655690575  0.4463649973920 1.0
C      1  0.5524515272671  0.4061289570476  0.4485079636966 1.0
C      1  0.3295145510045  0.9306038809979  0.4260970988717 1.0
C      1  0.3144096972940  0.3450388296469  0.8986490093979 1.0
C      1  0.3231914918787  0.2173042472807  0.1685418934635 1.0
C      1  0.6705814083441  0.9311890174188  0.4274293262502 1.0
C      1  0.6838412437058  0.3454984564699  0.8975067151396 1.0
C      1  0.6793811821811  0.2168525307597  0.1682518776124 1.0
C      1  0.3294869483251  0.9312657952110  0.5721505724510 1.0
C      1  0.3164151027639  0.3454697271432  0.1022497596759 1.0
C      1  0.3207909266246  0.2168148722604  0.8319214732418 1.0
C      1  0.6704611192964  0.9307307526787  0.5736231105645 1.0
C      1  0.6856617525385  0.3447526829269  0.1012943444348 1.0
C      1  0.6773760878595  0.2174646080620  0.8310552894767 1.0
C      1  0.3515606754302  0.4240887727255  0.1070981482381 1.0
C      1  0.3615755468636  0.8855480939430  0.6382802284655 1.0
C      1  0.3585827423944  0.1835238614473  0.7618222856762 1.0
C      1  0.6513410789727  0.4237178447047  0.1067548926004 1.0
C      1  0.6381018050837  0.8847715658678  0.6394716456859 1.0
C      1  0.6383157614068  0.1837127699891  0.7618810768498 1.0
C      1  0.3485096347066  0.4240835053983  0.8932257925584 1.0
C      1  0.3619367452782  0.8846487795329  0.3602952500534 1.0
C      1  0.3621885267575  0.1836730708830  0.2378175138730 1.0
C      1  0.6484000618931  0.4239610945434  0.8928040301504 1.0
C      1  0.6385500644344  0.8853476988042  0.3613278132586 1.0
C      1  0.6416424779512  0.1836259193959  0.2384310753258 1.0
C      1  0.5860092770721  0.1626577997517  0.5426201231839 1.0
C      1  0.5890199264794  0.6294717667680  0.1891485549212 1.0
C      1  0.5838189189627  0.7001668703066  0.7705905144539 1.0
C      1  0.4124493215686  0.1635990115405  0.5390454353567 1.0
C      1  0.4141293100982  0.6292649971248  0.1886869152193 1.0
C      1  0.4130790770100  0.7002090066998  0.7696642103487 1.0
C      1  0.5877434182045  0.1634790068718  0.4611518308992 1.0
C      1  0.5856230248658  0.6295330191567  0.8113539395007 1.0
C      1  0.5867406128858  0.6999660584522  0.2301530493164 1.0
C      1  0.4139762692951  0.1625708287524  0.4575767203005 1.0
C      1  0.4108216669221  0.6297682960555  0.8107217095461 1.0
C      1  0.4161403230640  0.7000493461519  0.2291387068488 1.0
C      1  0.4430213046602  0.7322271647648  0.6841456187506 1.0
C      1  0.4421625597798  0.2219226708814  0.6090365794719 1.0
C      1  0.4466357486642  0.5404010106219  0.2041731083197 1.0
C      1  0.5549230290836  0.7321484557113  0.6847319960268 1.0
C      1  0.5530681773079  0.2213580453020  0.6105120852470 1.0
C      1  0.5567811060418  0.5404828060520  0.2045194446535 1.0
C      1  0.4449939556232  0.7319239343266  0.3150944067765 1.0
C      1  0.4469054755169  0.2211904895902  0.3896382219028 1.0
C      1  0.4430533530960  0.5407529777830  0.7954467340631 1.0
C      1  0.5569023670707  0.7320679997795  0.3156789173142 1.0
C      1  0.5578940837082  0.2217880325308  0.3911626392310 1.0
C      1  0.5532646731409  0.5406020082167  0.7959383320659 1.0
C      1  0.2834323113883  0.2625240910961  0.8973885490350 1.0
C      1  0.7160547350636  0.2634369523474  0.8955397615038 1.0
C      1  0.2985597286945  0.9692426223816  0.4989522771488 1.0
C      1  0.2845380399922  0.2633047085941  0.1040661538225 1.0
C      1  0.7012423666821  0.9692535232280  0.5006617095437 1.0
C      1  0.7166918441736  0.2622490609211  0.1025320141971 1.0
END
