TITL C-6250-3542-39 -8.296 3375.00 -1477.49059702 0 0 180 (Cs) n - 1
REM
REM Run started: at 2020.12.19 04:18:57 in /gpfs/home/chem/mssmkc/CARBON/AIRSS/Generating-Clusters/Str-Search/Higher-Symm
REM VASP from code version vasp.5.4.4.18Apr17-6-g9f103f2a35 (build Oct 11 2019 16:45:47) gamma-only
REM
REM
REM
REM
REM ./C.cell (533062f00bc710175b3da973d35f2034)
REM AIRSS Version 0.9.1 bugfix July 2018 build 013d7b7c2542+ Fri, 06 Jul 2018 19:26:36 +0100
REM compiler GCC version 6.3.0
REM options -cpp -iprefix /gpfs/warwick/csc/orac/software/Core/GCCcore/6.3.0/bin/../lib/gcc/x86_64-pc-linux-gnu/6.3.0/ -mtune=generic -march=x86-64 -g -O0
REM seed 1266572621 603112586 -1224436883 1824003502 835554902 1877798064 42381011 -1309679800 -1515561948 -172069856 1605413808 1931517965
REM
REM C.POTCAR (d86ddea03c3ceb6dc662c8ad6801f873)
REM 
CELL 1.54180   15.00000   15.00000   15.00000   90.00000   90.00000   90.00000
LATT -1
SFAC C  
C      1  0.3067728323899  0.1535779557688  0.4534156612837 1.0
C      1  0.8255997667103  0.5261950120605  0.4239494044477 1.0
C      1  0.3082696140143  0.7788848090381  0.4250475192547 1.0
C      1  0.3067718091486  0.1535772635633  0.5465859605408 1.0
C      1  0.8255989349564  0.5261936672611  0.5760512355711 1.0
C      1  0.3082702588412  0.7788859701917  0.5749550471266 1.0
C      1  0.6877630561807  0.4734431310957  0.7188925190259 1.0
C      1  0.4089651260162  0.6726171961490  0.7021720350938 1.0
C      1  0.3633962425682  0.3415715520716  0.6772098198386 1.0
C      1  0.6877630177724  0.4734441342289  0.2811077649429 1.0
C      1  0.4089653671161  0.6726185575656  0.2978295140912 1.0
C      1  0.3633942316060  0.3415724666351  0.3227888493390 1.0
C      1  0.9073137212012  0.4970478468338  0.2578914270571 1.0
C      1  0.3107191939829  0.8460453275929  0.2540820097503 1.0
C      1  0.3727326970147  0.2200707899959  0.2350842248741 1.0
C      1  0.9073150014196  0.4970469094387  0.7421085132276 1.0
C      1  0.3107221838450  0.8460440465494  0.7459188312000 1.0
C      1  0.3727321891542  0.2200714980018  0.7649161947084 1.0
C      1  0.7077291083313  0.4341879287849  0.3624040441861 1.0
C      1  0.4504664366514  0.6916018150457  0.3936234320430 1.0
C      1  0.3279147636710  0.3890112683303  0.4009633907823 1.0
C      1  0.7077288595489  0.4341871206130  0.6375964732536 1.0
C      1  0.4504675868933  0.6916040988516  0.6063784867259 1.0
C      1  0.3279149490404  0.3890092922804  0.5990362041015 1.0
C      1  0.4315812988449  0.5067893783375  0.6848808438037 1.0
C      1  0.4906940146508  0.4279941485411  0.6784861700156 1.0
C      1  0.5296754821731  0.5213475740107  0.6942586429840 1.0
C      1  0.4315808755570  0.5067884762191  0.3151187262123 1.0
C      1  0.4906937377270  0.4279951789154  0.3215130620967 1.0
C      1  0.5296748075944  0.5213475951817  0.3057380100064 1.0
C      1  0.3741408634222  0.1977593711463  0.5955151922632 1.0
C      1  0.8455947523618  0.5892262381677  0.6380404446868 1.0
C      1  0.2377320152999  0.7711998918312  0.6332150543165 1.0
C      1  0.3741436523747  0.1977567403630  0.4044856349578 1.0
C      1  0.8455958858528  0.5892277245810  0.3619620631552 1.0
C      1  0.2377313144191  0.7712000554772  0.3667866357010 1.0
C      1  0.3710866338583  0.8510614606817  0.5466004027413 1.0
C      1  0.2251495904464  0.2109652770156  0.5512195637347 1.0
C      1  0.8846646678291  0.4513852463618  0.5456742045004 1.0
C      1  0.3710850780439  0.8510610560687  0.4533988954751 1.0
C      1  0.2251511510587  0.2109662375642  0.4487808482621 1.0
C      1  0.8846650715096  0.4513850003751  0.4543259377859 1.0
C      1  0.4853736746574  0.6028081519930  0.4431131029425 1.0
C      1  0.3936403551400  0.4474889224844  0.4501594422338 1.0
C      1  0.5567748934766  0.4675245523521  0.4557211245786 1.0
C      1  0.4853747941033  0.6028095515361  0.5568878133322 1.0
C      1  0.3936403035597  0.4474898370294  0.5498408181597 1.0
C      1  0.5567756213822  0.4675241950374  0.5442775210523 1.0
C      1  0.2382725140814  0.7938330294388  0.7250186492142 1.0
C      1  0.3823728125158  0.2800663159910  0.8311378079628 1.0
C      1  0.8760104965719  0.5813001720355  0.7276344295742 1.0
C      1  0.2382721490095  0.7938314196270  0.2749828465351 1.0
C      1  0.3823713211983  0.2800699089432  0.1688625035333 1.0
C      1  0.8760120807070  0.5813019141442  0.2723674879392 1.0
C      1  0.3253623160216  0.6100746032801  0.5910944637283 1.0
C      1  0.5035185523934  0.3055022668070  0.5923739366564 1.0
C      1  0.6634271203473  0.5812946014603  0.5986088874542 1.0
C      1  0.3253596803567  0.6100724148514  0.4089046374028 1.0
C      1  0.5035196399039  0.3055014547335  0.4076248337249 1.0
C      1  0.6634264975844  0.5812958293524  0.4013916489629 1.0
C      1  0.3488640204595  0.3685312661356  0.1572465029118 1.0
C      1  0.5805794430577  0.3721712084835  0.1627754217507 1.0
C      1  0.4801067554402  0.5898840940694  0.1562455524804 1.0
C      1  0.3488641418654  0.3685296982315  0.8427542478422 1.0
C      1  0.5805785408722  0.3721705748211  0.8372226666217 1.0
C      1  0.4801089662132  0.5898847033897  0.8437567805365 1.0
C      1  0.6845202311288  0.2699643700754  0.4092743865381 1.0
C      1  0.6501953808646  0.7675315735432  0.4084253165887 1.0
C      1  0.1763549203489  0.5224979506092  0.4067518422453 1.0
C      1  0.6845196662905  0.2699650350707  0.5907258566415 1.0
C      1  0.6501963977024  0.7675301748647  0.5915746345420 1.0
C      1  0.1763603224489  0.5224972058361  0.5932536848630 1.0
C      1  0.8900674753627  0.3865554304339  0.6210262973201 1.0
C      1  0.4291647800769  0.8499538593312  0.6295385179696 1.0
C      1  0.2330639609721  0.2696081381436  0.6210323478927 1.0
C      1  0.8900676382192  0.3865553786890  0.3789735655804 1.0
C      1  0.4291628021115  0.8499533104691  0.3704610227760 1.0
C      1  0.2330656050745  0.2696092697246  0.3789672666544 1.0
C      1  0.7481116016178  0.7199489104799  0.6977577419596 1.0
C      1  0.1537439206446  0.6172092288202  0.6941044856197 1.0
C      1  0.6440649517924  0.1726784178959  0.7080408546743 1.0
C      1  0.7481128713126  0.7199507162446  0.3022425544991 1.0
C      1  0.1537472845018  0.6172071700411  0.3059004725100 1.0
C      1  0.6440648841474  0.1726763274873  0.2919579653482 1.0
C      1  0.4047052478516  0.5425491790834  0.5910212497167 1.0
C      1  0.4890873830735  0.4088953229284  0.5811441403896 1.0
C      1  0.5649698384480  0.5488126516928  0.5996793873506 1.0
C      1  0.4047044292205  0.5425474115229  0.4089781000513 1.0
C      1  0.4890871743976  0.4088950895812  0.4188554365538 1.0
C      1  0.5649693031334  0.5488131718982  0.4003197768362 1.0
C      1  0.3287335322946  0.2461198559187  0.6727766753202 1.0
C      1  0.9157814881584  0.4230998849677  0.7019527574238 1.0
C      1  0.3844388903961  0.8643299628106  0.7084858117345 1.0
C      1  0.3287347214918  0.2461189795997  0.3272231644560 1.0
C      1  0.9157795262945  0.4231004607939  0.2980467524463 1.0
C      1  0.3844365608854  0.8643321914308  0.2915146136811 1.0
C      1  0.4646574691642  0.3307884188799  0.6927242919471 1.0
C      1  0.6941469032774  0.5741237254643  0.7082526782753 1.0
C      1  0.3134277837823  0.6397868803541  0.6913794568393 1.0
C      1  0.4646569912132  0.3307888065964  0.3072744744246 1.0
C      1  0.6941484150052  0.5741249355530  0.2917465360497 1.0
C      1  0.3134284735978  0.6397880662508  0.3086194366171 1.0
C      1  0.6636218800193  0.4008062038637  0.2134547863960 1.0
C      1  0.4589214143103  0.6453378946254  0.2262183923468 1.0
C      1  0.3151344837588  0.4011919775365  0.2481266503376 1.0
C      1  0.6636229349608  0.4008053368691  0.7865455809623 1.0
C      1  0.4589210156839  0.6453363258341  0.7737827901932 1.0
C      1  0.3151383763052  0.4011896768886  0.7518731989123 1.0
C      1  0.1748049431858  0.4300873309423  0.5458506605356 1.0
C      1  0.7753994951548  0.2755017907191  0.5461571764907 1.0
C      1  0.5716016347277  0.8064017135987  0.5440251459407 1.0
C      1  0.1748039012493  0.4300855669265  0.4541520172876 1.0
C      1  0.7754006239220  0.2755001925100  0.4538420903818 1.0
C      1  0.5716009481521  0.8064021471805  0.4559752835149 1.0
C      1  0.5973109653184  0.2914967608396  0.4541718905168 1.0
C      1  0.6640315587318  0.6683634126048  0.4545736905721 1.0
C      1  0.2470062877528  0.5740401650457  0.4553622556960 1.0
C      1  0.5973101355193  0.2914976964729  0.5458278609028 1.0
C      1  0.6640321259643  0.6683628744333  0.5454261223429 1.0
C      1  0.2470075811189  0.5740414791977  0.5446385982508 1.0
C      1  0.6740861332708  0.1195466778937  0.5416772536084 1.0
C      1  0.8060221189571  0.7781819023570  0.5415585197410 1.0
C      1  0.0688647799585  0.6398500567769  0.5416288740570 1.0
C      1  0.6740858620572  0.1195480852145  0.4583233041420 1.0
C      1  0.8060228336555  0.7781831377699  0.4584417131079 1.0
C      1  0.0688658994387  0.6398573516620  0.4583702901365 1.0
C      1  0.7851046439227  0.6255950602801  0.7067347447790 1.0
C      1  0.2264460151769  0.6943670334497  0.6975364733705 1.0
C      1  0.4667149824434  0.2681770585950  0.7761178001147 1.0
C      1  0.7851060329677  0.6255969602659  0.2932665688885 1.0
C      1  0.2264461028099  0.6943676153880  0.3024668193388 1.0
C      1  0.4667154051983  0.2681769517782  0.2238812462099 1.0
C      1  0.3623217530766  0.6959131644869  0.5509408484534 1.0
C      1  0.4434732797873  0.2378072765295  0.5481607779434 1.0
C      1  0.7269953625504  0.5053489348859  0.5601020061886 1.0
C      1  0.3623206130908  0.6959116230000  0.4490589897954 1.0
C      1  0.4434751957941  0.2378043296050  0.4518381289970 1.0
C      1  0.7269960021685  0.5053494129018  0.4398985097423 1.0
C      1  0.8181452139655  0.3207655585629  0.3862368942126 1.0
C      1  0.5066272804830  0.7808629290519  0.3823673056325 1.0
C      1  0.2263207582309  0.3722530066360  0.3869105775051 1.0
C      1  0.8181446882944  0.3207663189751  0.6137625155298 1.0
C      1  0.5066270238412  0.7808630804729  0.6176331858120 1.0
C      1  0.2263215161195  0.3722516171921  0.6130888886715 1.0
C      1  0.6306426099881  0.6306664779506  0.7569862138271 1.0
C      1  0.2916262061050  0.5544023060333  0.7299124141632 1.0
C      1  0.5612311213783  0.2800388282433  0.8098706472842 1.0
C      1  0.6306439096598  0.6306682994674  0.2430118462705 1.0
C      1  0.2916262232545  0.5544052306053  0.2700808691874 1.0
C      1  0.5612315355207  0.2800388247052  0.1901270880550 1.0
C      1  0.5957608885566  0.7609929041995  0.6721919082775 1.0
C      1  0.2226695471188  0.4196467217797  0.7055957447101 1.0
C      1  0.6989616154243  0.3223354498955  0.7517192049215 1.0
C      1  0.5957601835288  0.7609928297298  0.3278076967130 1.0
C      1  0.2226635833458  0.4196497380103  0.2944027842591 1.0
C      1  0.6989595982636  0.3223358937767  0.2482821697523 1.0
C      1  0.6545008585575  0.7187278801194  0.7327046091752 1.0
C      1  0.2040735765986  0.5224973056912  0.6992563568280 1.0
C      1  0.6381331307610  0.2457315670281  0.7643947213587 1.0
C      1  0.6545023305771  0.7187292152544  0.2672947154291 1.0
C      1  0.2040716492143  0.5225024473101  0.3007399122686 1.0
C      1  0.6381332527872  0.2457320859122  0.2356051809252 1.0
C      1  0.5456688540288  0.5911822338418  0.2335171283605 1.0
C      1  0.3546879446743  0.4926039953189  0.2596211367215 1.0
C      1  0.7276005716187  0.3362901739292  0.3418951989913 1.0
C      1  0.5456682910362  0.5911790390104  0.7664833644691 1.0
C      1  0.3546890930259  0.4926015224881  0.7403783248498 1.0
C      1  0.7276009617362  0.3362899554280  0.6581055536573 1.0
C      1  0.4649100237519  0.5047712075541  0.1217439822137 1.0
C      1  0.4173519118742  0.4224823155155  0.1198743809890 1.0
C      1  0.5124854965951  0.4227866963819  0.1225634484320 1.0
C      1  0.4649096400342  0.5047699968589  0.8782530025382 1.0
C      1  0.4173509126661  0.4224817166074  0.8801253642451 1.0
C      1  0.5124847889060  0.4227862037850  0.8774325262450 1.0
C      1  0.1102784752186  0.5985858428215  0.6125217056796 1.0
C      1  0.6691238085660  0.1703813125816  0.6223059684168 1.0
C      1  0.7498342782890  0.7670580462863  0.6157207674012 1.0
C      1  0.1102737562287  0.5985843437944  0.3874781393523 1.0
C      1  0.6691243299238  0.1703812253383  0.3776933412196 1.0
C      1  0.7498328797731  0.7670612188267  0.3842805786227 1.0
END
