TITL C-6250-3542-20 -5.213 3375.00 -880.64190112 0 0 108 (D2d) n - 1
REM
REM Run started: at 2020.12.18 10:28:33 in /gpfs/home/chem/mssmkc/CARBON/AIRSS/Generating-Clusters/Str-Search/Higher-Symm
REM VASP from code version vasp.5.4.4.18Apr17-6-g9f103f2a35 (build Oct 11 2019 16:45:47) gamma-only
REM
REM
REM
REM
REM ./C.cell (533062f00bc710175b3da973d35f2034)
REM AIRSS Version 0.9.1 bugfix July 2018 build 013d7b7c2542+ Fri, 06 Jul 2018 19:26:36 +0100
REM compiler GCC version 6.3.0
REM options -cpp -iprefix /gpfs/warwick/csc/orac/software/Core/GCCcore/6.3.0/bin/../lib/gcc/x86_64-pc-linux-gnu/6.3.0/ -mtune=generic -march=x86-64 -g -O0
REM seed -636715897 -1848854790 -375786245 -1174151888 1138372139 816026900 397399115 -167945881 -326266710 -1614836537 2111732810 790297942
REM
REM C.POTCAR (d86ddea03c3ceb6dc662c8ad6801f873)
REM 
CELL 1.54180   15.00000   15.00000   15.00000   90.00000   90.00000   90.00000
LATT -1
SFAC C  
C      1  0.5130427212822  0.2222238192663  0.7075172280326 1.0
C      1  0.5129996904425  0.7777902439283  0.2924475432053 1.0
C      1  0.4870129957625  0.2221256884252  0.2925126366355 1.0
C      1  0.4870530684444  0.7778781392723  0.7074640512010 1.0
C      1  0.5129528037322  0.7074536715523  0.2221226012570 1.0
C      1  0.5129948560139  0.2925131778986  0.7778558261660 1.0
C      1  0.4869342383780  0.2924814425914  0.2222397194683 1.0
C      1  0.4869997118836  0.7075257984400  0.7777509414764 1.0
C      1  0.3955117903444  0.7064898811367  0.5629778265940 1.0
C      1  0.3955192368342  0.2935423799041  0.4370070903485 1.0
C      1  0.6044825510604  0.7064446679142  0.4369856373888 1.0
C      1  0.6044863398158  0.2935376606913  0.5629589804961 1.0
C      1  0.3955223684259  0.5629739041934  0.7064463995792 1.0
C      1  0.3954907659938  0.4369992504470  0.2936184207824 1.0
C      1  0.6044837851856  0.4369964260345  0.7064420028808 1.0
C      1  0.6044616024943  0.5630035432866  0.2935615959267 1.0
C      1  0.6576082602328  0.2523013273092  0.6281443129646 1.0
C      1  0.6575883777008  0.7477284822761  0.3718420692112 1.0
C      1  0.3424171358370  0.2520765862949  0.3719852147169 1.0
C      1  0.3424096225499  0.7478995341409  0.6280435844431 1.0
C      1  0.6575767229433  0.6280351006411  0.2521264538551 1.0
C      1  0.6575963318310  0.3719543194458  0.7478705167623 1.0
C      1  0.3423900244583  0.3718337881929  0.2523651282471 1.0
C      1  0.3424210699682  0.6281611478743  0.7476857276158 1.0
C      1  0.3754414387147  0.6380693733457  0.4974034226188 1.0
C      1  0.3754576427249  0.3619658145035  0.5025695710684 1.0
C      1  0.6245366277344  0.6380402552732  0.5025834729489 1.0
C      1  0.6245323927637  0.3619994347104  0.4974081291751 1.0
C      1  0.3754855186075  0.4974168177336  0.6379974325312 1.0
C      1  0.3754554886478  0.5025865174240  0.3620307170501 1.0
C      1  0.6245436747585  0.5025672793062  0.6380228584404 1.0
C      1  0.6245208175413  0.4974279820733  0.3619687950178 1.0
C      1  0.5046797339673  0.7202200554183  0.4464091164310 1.0
C      1  0.5046747975836  0.2797572069458  0.5535565837781 1.0
C      1  0.4953389526396  0.7202316896681  0.5535828828054 1.0
C      1  0.4953340372968  0.2797727566616  0.4463951581370 1.0
C      1  0.5046641557699  0.4463893895331  0.7201946814401 1.0
C      1  0.5046405398682  0.5535955271961  0.2798048319868 1.0
C      1  0.4953407572390  0.5535623176354  0.7201969980280 1.0
C      1  0.4952942579441  0.4464403515613  0.2797907734653 1.0
C      1  0.5551252497888  0.6333910690346  0.5655685467397 1.0
C      1  0.5551003600817  0.3666203604899  0.4344010355770 1.0
C      1  0.4448762978690  0.6334174683829  0.4344443690966 1.0
C      1  0.4448642591890  0.3665749237493  0.5655428602524 1.0
C      1  0.5551494560311  0.5655629441521  0.6333844914876 1.0
C      1  0.5551195390340  0.4344506702508  0.3665818342595 1.0
C      1  0.4448935863521  0.4344126862408  0.6333543702237 1.0
C      1  0.4448505106726  0.5656072889423  0.3666320252198 1.0
C      1  0.2963032310354  0.5028217691483  0.4243646984707 1.0
C      1  0.2963304803880  0.4971973556743  0.5756615312180 1.0
C      1  0.7036817365339  0.5028437518912  0.5756378636403 1.0
C      1  0.7036784310033  0.4971553295437  0.4243383364582 1.0
C      1  0.2963134821666  0.4243541002571  0.5028549090097 1.0
C      1  0.2963220171975  0.5756639525614  0.4971646888327 1.0
C      1  0.7036699326650  0.5756729034634  0.5028219073916 1.0
C      1  0.7036849920753  0.4243381436801  0.4971807645701 1.0
C      1  0.6342177631776  0.7647869882439  0.6470507128769 1.0
C      1  0.6341528992285  0.2352002232980  0.3528754238633 1.0
C      1  0.3658498071180  0.7647671224588  0.3528797551447 1.0
C      1  0.3658069803410  0.2352903975345  0.6470877046416 1.0
C      1  0.6341964441344  0.6471106793899  0.7646797213102 1.0
C      1  0.6341451891716  0.3528874629818  0.2352860065950 1.0
C      1  0.3658581072636  0.3528597775264  0.7648082564032 1.0
C      1  0.3657913064641  0.6470765726077  0.2352569712359 1.0
C      1  0.4599197533663  0.3699374503274  0.7734387878995 1.0
C      1  0.4598798346683  0.6300466305837  0.2266210441890 1.0
C      1  0.5400285713119  0.3698939761085  0.2267063070334 1.0
C      1  0.5400815917582  0.6301110228312  0.7732668777712 1.0
C      1  0.4599538446487  0.7733252981615  0.3698636152301 1.0
C      1  0.4599308000701  0.2267148571785  0.6301255688069 1.0
C      1  0.5400935788422  0.2265349004260  0.3699372814497 1.0
C      1  0.5401198114676  0.7734253255412  0.6300539965363 1.0
C      1  0.7806991476429  0.5023819852122  0.3619595882112 1.0
C      1  0.7807245576932  0.4976290760786  0.6380006521069 1.0
C      1  0.2192820599765  0.5023730903937  0.6380435891945 1.0
C      1  0.2192592271872  0.4975898109335  0.3619910065408 1.0
C      1  0.7807559421875  0.3619627267895  0.5023650765140 1.0
C      1  0.7807391514278  0.6380283631414  0.4975807136316 1.0
C      1  0.2192805767481  0.6380162103309  0.5023956530789 1.0
C      1  0.2192955973225  0.3619716688255  0.4976266421084 1.0
C      1  0.6106321769245  0.7750479646536  0.2930995179162 1.0
C      1  0.6106803584778  0.2249627227415  0.7068843888081 1.0
C      1  0.3894134573069  0.7752736732516  0.7067552430711 1.0
C      1  0.3893892585705  0.2247066767779  0.2932597770423 1.0
C      1  0.6106199379220  0.2932293200522  0.7752546271587 1.0
C      1  0.6105818295546  0.7067354550174  0.2247921250747 1.0
C      1  0.3893687047730  0.7069062774553  0.7750262033223 1.0
C      1  0.3893044432795  0.2930950878738  0.2249991334622 1.0
C      1  0.2521756390168  0.7111813379956  0.6444120667293 1.0
C      1  0.2521874783546  0.2887983062945  0.3556296367052 1.0
C      1  0.7478110574192  0.7110046198459  0.3554910421589 1.0
C      1  0.7478392315270  0.2890214500456  0.6445069902674 1.0
C      1  0.2521907856618  0.6445076061766  0.7109850328066 1.0
C      1  0.2521545015826  0.3554500162638  0.2890613855070 1.0
C      1  0.7478288014326  0.3556068573334  0.7111572910459 1.0
C      1  0.7478142832085  0.6444261619943  0.2888319963893 1.0
C      1  0.2043413965545  0.4335581260635  0.3119722121616 1.0
C      1  0.2043927727684  0.5663884416209  0.6880926944766 1.0
C      1  0.7955799949212  0.4337845231068  0.6882736039543 1.0
C      1  0.7955912280307  0.5662768212354  0.3117569886677 1.0
C      1  0.2044265568415  0.3116807717151  0.4337912474980 1.0
C      1  0.2044115626728  0.6882583222286  0.5662642261135 1.0
C      1  0.7956323071306  0.6881209306257  0.4336189573944 1.0
C      1  0.7956468692984  0.3119468225311  0.5664094162476 1.0
C      1  0.3496622672196  0.7211970117587  0.2787914173259 1.0
C      1  0.3496358390468  0.2788076231620  0.7212053721816 1.0
C      1  0.6503878994031  0.7212111285174  0.7211387374315 1.0
C      1  0.6503763503833  0.2787968591480  0.2788165500847 1.0
END
