TITL C-6315-4169-133 -3.913 3375.00 -632.21479720 0 0 79 (C1) n - 1
REM
REM Run started: at 2020.12.18 20:03:42 in /gpfs/home/chem/mssmkc/CARBON/AIRSS/Generating-Clusters/Str-Search/Higher-Symm/C4-100
REM VASP from code version vasp.5.4.4.18Apr17-6-g9f103f2a35 (build Oct 11 2019 16:45:47) gamma-only
REM
REM
REM
REM
REM ./C.cell (6bd13a13d554368a30d355f37ece5b26)
REM AIRSS Version 0.9.1 bugfix July 2018 build 013d7b7c2542+ Fri, 06 Jul 2018 19:26:36 +0100
REM compiler GCC version 6.3.0
REM options -cpp -iprefix /gpfs/warwick/csc/orac/software/Core/GCCcore/6.3.0/bin/../lib/gcc/x86_64-pc-linux-gnu/6.3.0/ -mtune=generic -march=x86-64 -g -O0
REM seed -1422569477 -865976446 2007375632 -591979509 182669655 1525456384 -17604202 694747518 -1567972068 751428968 631437860 -897381569
REM
REM C.POTCAR (d86ddea03c3ceb6dc662c8ad6801f873)
REM 
CELL 1.54180   15.00000   15.00000   15.00000   90.00000   90.00000   90.00000
LATT -1
SFAC C  
C      1  0.7021603335168  0.6835651248197  0.3247978571996 1.0
C      1  0.3394244139437  0.7398416233065  0.4346237233894 1.0
C      1  0.3265939030602  0.2959360433719  0.3237593230402 1.0
C      1  0.6681592856525  0.2719109804669  0.4118823307648 1.0
C      1  0.3173054165992  0.6787652550218  0.6832598393471 1.0
C      1  0.6893927593261  0.7397601808601  0.6376027470042 1.0
C      1  0.6696936067030  0.3457386751665  0.6395953819852 1.0
C      1  0.2880303106378  0.2964008964212  0.6724133119838 1.0
C      1  0.3194757253788  0.5890427038593  0.6725311736873 1.0
C      1  0.3739612886360  0.3278131556667  0.6659585945006 1.0
C      1  0.6428282904346  0.4338949804329  0.6331763167401 1.0
C      1  0.6579723953919  0.6819259740893  0.7064652178159 1.0
C      1  0.7291627724903  0.5937191718882  0.2989380993704 1.0
C      1  0.5897559818470  0.3088541550029  0.3583351544039 1.0
C      1  0.3463082048137  0.3904717845664  0.3352357555649 1.0
C      1  0.4214573577654  0.7021229493052  0.3921341732203 1.0
C      1  0.6709894113660  0.6096523160653  0.3702138336451 1.0
C      1  0.4501982853210  0.6264894460573  0.4521996001840 1.0
C      1  0.3989631564697  0.4030798997991  0.4194931240443 1.0
C      1  0.5699999956238  0.3924465743880  0.4014585674107 1.0
C      1  0.3857725128240  0.5602137466430  0.6021501138845 1.0
C      1  0.5278088528472  0.5825879816417  0.4732208339373 1.0
C      1  0.5968167043702  0.4500729908961  0.5458736878461 1.0
C      1  0.3958222804713  0.3897745827620  0.5902605866558 1.0
C      1  0.2365798565627  0.5287093121645  0.4997619490483 1.0
C      1  0.4723311219431  0.2230877823545  0.4958641392002 1.0
C      1  0.7842280386074  0.4673103554455  0.5005382298425 1.0
C      1  0.5443840737472  0.7693126464682  0.4975446392617 1.0
C      1  0.7639473671491  0.5461387631689  0.5352117901535 1.0
C      1  0.5543080036829  0.2124190789066  0.5276759213693 1.0
C      1  0.2170452177484  0.4477783417757  0.5301965750969 1.0
C      1  0.4706554098151  0.7713567480421  0.5489117539340 1.0
C      1  0.2302081409220  0.3319112813356  0.6103308689779 1.0
C      1  0.6607144044023  0.2668276942554  0.5955200471513 1.0
C      1  0.7301892386226  0.6813092628471  0.5801913702454 1.0
C      1  0.3594649656760  0.7396247898641  0.6320226817027 1.0
C      1  0.7448743733446  0.3328836096665  0.3938707784407 1.0
C      1  0.3499665700977  0.2318122061575  0.3895619095787 1.0
C      1  0.2783760906760  0.6682414595684  0.4098970126121 1.0
C      1  0.6515730368983  0.7600484217927  0.3556345553519 1.0
C      1  0.5995379158795  0.7994278861493  0.2917992037318 1.0
C      1  0.2638254015156  0.6231661433404  0.3313970816360 1.0
C      1  0.3866367962566  0.2261220575150  0.3031800584969 1.0
C      1  0.7726625306637  0.3631580124220  0.3125929118404 1.0
C      1  0.4484627910000  0.7739078768427  0.6453984020096 1.0
C      1  0.7603311966255  0.5952889067621  0.6204058887663 1.0
C      1  0.5812414626992  0.2192433600506  0.6244725478381 1.0
C      1  0.1835012216230  0.4142778195414  0.6193809628092 1.0
C      1  0.6578875760103  0.5075728092981  0.6864191334791 1.0
C      1  0.5755415149895  0.7113480595255  0.7375364922124 1.0
C      1  0.2545744074426  0.5279758590588  0.7036244552581 1.0
C      1  0.4508697520241  0.2841712378498  0.6977529805517 1.0
C      1  0.3152463100748  0.4656803989550  0.2967719603586 1.0
C      1  0.4524232989448  0.7344722063168  0.3141069874915 1.0
C      1  0.7681336738779  0.5245645197959  0.2548327167002 1.0
C      1  0.5342477179670  0.2621532451758  0.3029226484357 1.0
C      1  0.2906733406349  0.5479544757881  0.2989365473823 1.0
C      1  0.4705708029176  0.2234177824671  0.2633843183629 1.0
C      1  0.7823860243620  0.4434905975814  0.2800128032606 1.0
C      1  0.5134854195081  0.7877626027510  0.2872220079272 1.0
C      1  0.6963255618552  0.5870442636830  0.6949189900206 1.0
C      1  0.5236471789138  0.2449687728764  0.6927394273601 1.0
C      1  0.1951817200502  0.4714060151885  0.6937203146535 1.0
C      1  0.5069249481616  0.7514958098718  0.7130792239654 1.0
C      1  0.3927172454664  0.2559335459970  0.4732062351164 1.0
C      1  0.7344443345917  0.4046366250485  0.4608880972407 1.0
C      1  0.6036092863183  0.7319185484541  0.4421187816356 1.0
C      1  0.2820505497074  0.6022970233163  0.4839303385730 1.0
C      1  0.6437228091975  0.2434762735925  0.4965767142627 1.0
C      1  0.2661816788867  0.3634395545475  0.5226884153293 1.0
C      1  0.3747800533854  0.7296733830660  0.5306719079080 1.0
C      1  0.7065502917697  0.6224571603908  0.5099064395800 1.0
C      1  0.3774006732159  0.6218832821155  0.5226781912379 1.0
C      1  0.3627832243368  0.3536660681202  0.5003971556584 1.0
C      1  0.6368859971834  0.4176063497338  0.4702194433512 1.0
C      1  0.6193397723906  0.6277675928216  0.4530395833649 1.0
C      1  0.4872398353738  0.4318901066469  0.4304531794616 1.0
C      1  0.4309579315735  0.4818132258029  0.5816512643125 1.0
C      1  0.5087448972202  0.4889897952287  0.5154237188267 1.0
END
