TITL C-6315-4169-41 -4.677 3375.00 -781.77199615 0 0 96 (C1) n - 1
REM
REM Run started: at 2020.12.18 01:17:23 in /gpfs/home/chem/mssmkc/CARBON/AIRSS/Generating-Clusters/Str-Search/Higher-Symm/C4-100
REM VASP from code version vasp.5.4.4.18Apr17-6-g9f103f2a35 (build Oct 11 2019 16:45:47) gamma-only
REM
REM
REM
REM
REM ./C.cell (6bd13a13d554368a30d355f37ece5b26)
REM AIRSS Version 0.9.1 bugfix July 2018 build 013d7b7c2542+ Fri, 06 Jul 2018 19:26:36 +0100
REM compiler GCC version 6.3.0
REM options -cpp -iprefix /gpfs/warwick/csc/orac/software/Core/GCCcore/6.3.0/bin/../lib/gcc/x86_64-pc-linux-gnu/6.3.0/ -mtune=generic -march=x86-64 -g -O0
REM seed 2037728439 -53571221 723426362 -1306268582 -1528106789 698297577 305355862 -686335829 681855763 -1094562433 1724919953 -750606757
REM
REM C.POTCAR (d86ddea03c3ceb6dc662c8ad6801f873)
REM 
CELL 1.54180   15.00000   15.00000   15.00000   90.00000   90.00000   90.00000
LATT -1
SFAC C  
C      1  0.3016968683339  0.6037419249818  0.7459072476287 1.0
C      1  0.4907621189322  0.7619229195989  0.7173752020474 1.0
C      1  0.6322294380854  0.6943168570339  0.7799775360120 1.0
C      1  0.7558094222532  0.5106431314085  0.6714621578311 1.0
C      1  0.6525678615936  0.2849039617707  0.7438672171524 1.0
C      1  0.4042420189908  0.2817129786788  0.7215035514120 1.0
C      1  0.2789772779194  0.4304798045750  0.7165531457102 1.0
C      1  0.5939148834179  0.4210574781851  0.5810361116805 1.0
C      1  0.5049657999453  0.3640407397270  0.5648828619577 1.0
C      1  0.4034750778851  0.4122650243477  0.5710194453207 1.0
C      1  0.3638878260900  0.5258488217707  0.5743058816379 1.0
C      1  0.3975007142848  0.6224105440504  0.5714539003648 1.0
C      1  0.5780936292649  0.6654090671591  0.5695925933714 1.0
C      1  0.6279062195651  0.5814329398544  0.5931142270892 1.0
C      1  0.4376616150016  0.2372505355853  0.3532877572081 1.0
C      1  0.2455009172691  0.3754356173053  0.3484905187548 1.0
C      1  0.2545505657997  0.6208830079616  0.3698956910270 1.0
C      1  0.4322716593521  0.7773365552525  0.3559583103645 1.0
C      1  0.6591506413773  0.7101460696438  0.3509646289847 1.0
C      1  0.7476954637351  0.4897161451162  0.3637527578806 1.0
C      1  0.6839187126603  0.2687673872334  0.3643324396254 1.0
C      1  0.6130109531178  0.7900595966299  0.4895165505328 1.0
C      1  0.7644227142466  0.5845061039022  0.5077452787070 1.0
C      1  0.7206748080824  0.3366260232022  0.5145596331431 1.0
C      1  0.5081052179132  0.2157782006590  0.5090902588310 1.0
C      1  0.2876398941668  0.3134474754207  0.4967627866564 1.0
C      1  0.2228295689095  0.5449443116975  0.5115312555974 1.0
C      1  0.3711477289617  0.7589713942644  0.5097794118204 1.0
C      1  0.5343509516358  0.6222973297932  0.4941402325809 1.0
C      1  0.5953734532443  0.5528311259787  0.5014762507603 1.0
C      1  0.6013223032008  0.4644042477058  0.4880726501110 1.0
C      1  0.4951765005854  0.3813821603801  0.4629907638785 1.0
C      1  0.4173226989535  0.4286102938468  0.4742794582802 1.0
C      1  0.3972324508141  0.5202462416235  0.4779781264054 1.0
C      1  0.4416527478528  0.6022453284909  0.4856847668821 1.0
C      1  0.3039794681156  0.7003851837936  0.3664342915304 1.0
C      1  0.5252148237986  0.7783746122508  0.3491626979482 1.0
C      1  0.7125780965686  0.6344681757843  0.3584537394360 1.0
C      1  0.7603132683411  0.3945684376279  0.3637914701983 1.0
C      1  0.5918429322866  0.2411714313527  0.3620778910375 1.0
C      1  0.3436429487225  0.2604058012816  0.3500856133627 1.0
C      1  0.2331976759806  0.4720928140029  0.3534351807753 1.0
C      1  0.6845462185325  0.5513135133725  0.3253048226188 1.0
C      1  0.7305756080292  0.3263660897505  0.3087825713720 1.0
C      1  0.5158471838330  0.2771302090068  0.3162307231571 1.0
C      1  0.2920835088315  0.3157297770203  0.2958133206075 1.0
C      1  0.2768390804084  0.5476864754899  0.3164026292392 1.0
C      1  0.3859890507717  0.7045537549066  0.3211635490178 1.0
C      1  0.5730867673142  0.7050935134914  0.3141726809756 1.0
C      1  0.4331347331022  0.2157410265297  0.4503732153718 1.0
C      1  0.2366052855725  0.3734505129146  0.4456980644740 1.0
C      1  0.2384205482119  0.6271944557128  0.4656498459050 1.0
C      1  0.4345541604087  0.8013783459615  0.4505223085184 1.0
C      1  0.6802168172230  0.7402442635519  0.4411745015465 1.0
C      1  0.7737805654724  0.5018338824156  0.4575494175724 1.0
C      1  0.6768100111191  0.2682489718322  0.4636782770293 1.0
C      1  0.3979948021281  0.4751941948072  0.2278190914691 1.0
C      1  0.3642901356322  0.5510597320450  0.2668755670081 1.0
C      1  0.4285371925869  0.6239732898934  0.2843832568502 1.0
C      1  0.5306206104864  0.6175437724433  0.2891415834114 1.0
C      1  0.5904305105036  0.5378235063550  0.2971005626842 1.0
C      1  0.5159232618790  0.3673663783551  0.2731371828537 1.0
C      1  0.4473857371479  0.4078027799934  0.2269714698917 1.0
C      1  0.7403667465034  0.6563582761727  0.4500824417265 1.0
C      1  0.7667198232171  0.4005946485605  0.4620559241559 1.0
C      1  0.5895409579710  0.2222229846650  0.4596239098426 1.0
C      1  0.3407832264966  0.2522046965294  0.4476149865530 1.0
C      1  0.2132512758279  0.4709770140484  0.4493825034650 1.0
C      1  0.2980491790977  0.7150038528138  0.4613714700048 1.0
C      1  0.5375175369461  0.8143310435275  0.4384742384280 1.0
C      1  0.4918917526250  0.2585868198282  0.6935565089725 1.0
C      1  0.3289064433597  0.3469126579296  0.7416843889210 1.0
C      1  0.2712102959708  0.5287877011515  0.7082814375648 1.0
C      1  0.4006622279131  0.7305113777094  0.6958910685060 1.0
C      1  0.5512708263768  0.7240826960724  0.7804136707413 1.0
C      1  0.7507734719865  0.5969680489446  0.7053381146694 1.0
C      1  0.7033473188177  0.3412138198305  0.6943583344464 1.0
C      1  0.5387785109661  0.7944731659030  0.6460280196579 1.0
C      1  0.7013039234349  0.6453108433084  0.7622858455029 1.0
C      1  0.7412359186688  0.4202607459267  0.6683171637800 1.0
C      1  0.5713314215221  0.2635278758311  0.7384420901561 1.0
C      1  0.3319350095098  0.2942520952183  0.6656906865600 1.0
C      1  0.2591673463277  0.4192723584951  0.6261321363705 1.0
C      1  0.3455588536601  0.6759454752959  0.7430717274432 1.0
C      1  0.3882154441584  0.7111036804421  0.5973619785612 1.0
C      1  0.5885704680326  0.7617335400764  0.5801692214170 1.0
C      1  0.7292229289055  0.5785249243859  0.6030980957384 1.0
C      1  0.6844354097648  0.3709149525659  0.6004930643730 1.0
C      1  0.5019377106084  0.2693224618250  0.5933231745848 1.0
C      1  0.3137368468998  0.3478961855897  0.5854654721486 1.0
C      1  0.2648180990339  0.5156548447597  0.6009559498493 1.0
C      1  0.5660337834731  0.4207378757285  0.4120179665208 1.0
C      1  0.5629560204518  0.4409795357935  0.3209673949009 1.0
C      1  0.5847940360380  0.5022903362048  0.6415252102388 1.0
C      1  0.4967384311926  0.4994302869444  0.7935211791063 1.0
C      1  0.5412159277924  0.5022738311442  0.7200926919835 1.0
END
