TITL C-6315-4169-175 -1.267 3375.00 -182.95217812 0 0 24 (C4h) n - 1
REM
REM Run started: at 2020.12.19 02:03:54 in /gpfs/home/chem/mssmkc/CARBON/AIRSS/Generating-Clusters/Str-Search/Higher-Symm/C4-100
REM VASP from code version vasp.5.4.4.18Apr17-6-g9f103f2a35 (build Oct 11 2019 16:45:47) gamma-only
REM
REM
REM
REM
REM ./C.cell (6bd13a13d554368a30d355f37ece5b26)
REM AIRSS Version 0.9.1 bugfix July 2018 build 013d7b7c2542+ Fri, 06 Jul 2018 19:26:36 +0100
REM compiler GCC version 6.3.0
REM options -cpp -iprefix /gpfs/warwick/csc/orac/software/Core/GCCcore/6.3.0/bin/../lib/gcc/x86_64-pc-linux-gnu/6.3.0/ -mtune=generic -march=x86-64 -g -O0
REM seed 1760935379 1871137939 -760376022 943473905 344543426 2146855300 -270247927 1511031188 1186888749 -1121714106 -1391675543 859359133
REM
REM C.POTCAR (d86ddea03c3ceb6dc662c8ad6801f873)
REM 
CELL 1.54180   15.00000   15.00000   15.00000   90.00000   90.00000   90.00000
LATT -1
SFAC C  
C      1  0.5711637482238  0.5335792506348  0.3198246785890 1.0
C      1  0.5711637445366  0.3198245903052  0.4664207276356 1.0
C      1  0.5711636919715  0.4664207234763  0.6801754642850 1.0
C      1  0.5711636977970  0.6801754270148  0.5335793256013 1.0
C      1  0.4140312650040  0.5335846689374  0.3198865574749 1.0
C      1  0.4140312575733  0.3198865898447  0.4664152907366 1.0
C      1  0.4140312063208  0.4664153596922  0.6801133009773 1.0
C      1  0.4140312146187  0.6801133862538  0.5335846586993 1.0
C      1  0.4143081381347  0.6450159021209  0.6103064135563 1.0
C      1  0.4143081762770  0.6103064188835  0.3549840562440 1.0
C      1  0.4143081503157  0.3549840541985  0.3896935341073 1.0
C      1  0.4143081120178  0.3896936053147  0.6450158355773 1.0
C      1  0.5708337308849  0.6450602880120  0.6103415489892 1.0
C      1  0.5708337705055  0.6103414711942  0.3549398170984 1.0
C      1  0.5708337391329  0.3549397529531  0.3896585094647 1.0
C      1  0.5708337047112  0.3896585111162  0.6450602881591 1.0
C      1  0.4925818683452  0.6528158894641  0.3909799400144 1.0
C      1  0.4925818593876  0.3909799007101  0.3471840755098 1.0
C      1  0.4925818400843  0.3471841111289  0.6090200572716 1.0
C      1  0.4925818402887  0.6090200990108  0.6528159228516 1.0
C      1  0.4926003028832  0.6872954679986  0.4787625925757 1.0
C      1  0.4926003317852  0.4787625791382  0.3127045239326 1.0
C      1  0.4926003236235  0.3127045319373  0.5212374067899 1.0
C      1  0.4926002855767  0.5212374206597  0.6872954738591 1.0
END
