TITL C-6315-4169-54 -2.949 3375.00 -488.13639392 0 0 60 (C1) n - 1
REM
REM Run started: at 2020.12.18 03:41:05 in /gpfs/home/chem/mssmkc/CARBON/AIRSS/Generating-Clusters/Str-Search/Higher-Symm/C4-100
REM VASP from code version vasp.5.4.4.18Apr17-6-g9f103f2a35 (build Oct 11 2019 16:45:47) gamma-only
REM
REM
REM
REM
REM ./C.cell (6bd13a13d554368a30d355f37ece5b26)
REM AIRSS Version 0.9.1 bugfix July 2018 build 013d7b7c2542+ Fri, 06 Jul 2018 19:26:36 +0100
REM compiler GCC version 6.3.0
REM options -cpp -iprefix /gpfs/warwick/csc/orac/software/Core/GCCcore/6.3.0/bin/../lib/gcc/x86_64-pc-linux-gnu/6.3.0/ -mtune=generic -march=x86-64 -g -O0
REM seed 2057205163 200060723 -1467401664 1477577684 -857555473 989213573 2055034299 -1528154958 1351355398 609844284 1230349222 -1281283504
REM
REM C.POTCAR (d86ddea03c3ceb6dc662c8ad6801f873)
REM 
CELL 1.54180   15.00000   15.00000   15.00000   90.00000   90.00000   90.00000
LATT -1
SFAC C  
C      1  0.2227807599420  0.4130451359140  0.4615266169194 1.0
C      1  0.2675044771414  0.4155045562269  0.2943977437325 1.0
C      1  0.3975664032692  0.4128898358014  0.2139269702487 1.0
C      1  0.5651112756334  0.4061672054450  0.2496642009896 1.0
C      1  0.6945143068601  0.4009010069249  0.3445247101380 1.0
C      1  0.8117796047630  0.4349839384019  0.4618975561985 1.0
C      1  0.7309944977941  0.4106489827923  0.5958372665507 1.0
C      1  0.6169647328119  0.4081929018747  0.7253028092638 1.0
C      1  0.5063524161664  0.4482910258137  0.8375004455803 1.0
C      1  0.3874722641702  0.4078579363908  0.7352578065056 1.0
C      1  0.2703299284597  0.4059435367656  0.6087752970644 1.0
C      1  0.5483337821214  0.5680605723960  0.2665228503607 1.0
C      1  0.7045671320270  0.5714073290176  0.3582329137295 1.0
C      1  0.7502002309308  0.5861222950944  0.4437120040890 1.0
C      1  0.7036779198202  0.5756028541628  0.6164367356951 1.0
C      1  0.6311114932661  0.5682374641347  0.6747194710649 1.0
C      1  0.5020733299347  0.6260657774702  0.7679439642139 1.0
C      1  0.3688621128406  0.5679271760657  0.6818602956718 1.0
C      1  0.2950926187291  0.5732839422513  0.6228161524432 1.0
C      1  0.2554576951819  0.5785875141773  0.4486284838766 1.0
C      1  0.2991938516112  0.5738887282756  0.3625216675867 1.0
C      1  0.4526650167291  0.5686377663416  0.2685437669462 1.0
C      1  0.7572773010394  0.5063981605759  0.5831812487435 1.0
C      1  0.5912351810678  0.5024685493898  0.7221532654717 1.0
C      1  0.5037126021251  0.5292262223169  0.7712366221621 1.0
C      1  0.4110726653431  0.5026878598168  0.7284809473953 1.0
C      1  0.2456886409506  0.5012599806789  0.5893188612043 1.0
C      1  0.2202981938144  0.5067339373628  0.4978347326080 1.0
C      1  0.3093973826102  0.5059929561031  0.3017811272416 1.0
C      1  0.3894846886600  0.5039282717650  0.2512788674723 1.0
C      1  0.6060910271972  0.4957849695555  0.2554354288937 1.0
C      1  0.6863438312663  0.4937505075925  0.3089247450437 1.0
C      1  0.7954096881309  0.5226025252306  0.4967186101447 1.0
C      1  0.3150218514154  0.3635417819064  0.2275466130820 1.0
C      1  0.4838230348173  0.3826728232647  0.2164269022832 1.0
C      1  0.6099556391106  0.3593490755374  0.3235236377533 1.0
C      1  0.7499405062960  0.3821378848867  0.4162751130874 1.0
C      1  0.7657015145257  0.3698800029373  0.5124702035623 1.0
C      1  0.6752663590505  0.3771314215735  0.6623539046233 1.0
C      1  0.5535915173566  0.3774810225164  0.7958206594892 1.0
C      1  0.4551979801092  0.3773242483245  0.8005720530494 1.0
C      1  0.3254250763744  0.3767531259331  0.6775565239630 1.0
C      1  0.2535285691063  0.3545354336697  0.5302802264220 1.0
C      1  0.2272239209618  0.3935493976743  0.3724316385117 1.0
C      1  0.5769614807982  0.6373614173017  0.6245364430279 1.0
C      1  0.5009304626945  0.6692058962052  0.6881125384532 1.0
C      1  0.4218191414555  0.6377270196825  0.6287024441171 1.0
C      1  0.3376386719568  0.6450031493680  0.5709583764171 1.0
C      1  0.3237714645644  0.6417221910563  0.4798900361560 1.0
C      1  0.3708449201253  0.6359502445609  0.3907253933892 1.0
C      1  0.4505925068667  0.6327895860065  0.3429841956538 1.0
C      1  0.5532574563830  0.6339246479839  0.3395207237469 1.0
C      1  0.6338480056816  0.6366032095535  0.3841198894967 1.0
C      1  0.6795490880191  0.6453103655208  0.4730996041673 1.0
C      1  0.6614384258033  0.6466938379121  0.5648721163397 1.0
C      1  0.4980508524895  0.5949805809823  0.5761723785340 1.0
C      1  0.5193720295821  0.3664674330386  0.4555493947588 1.0
C      1  0.5600644229271  0.3258198480341  0.3940577431278 1.0
C      1  0.4966344858490  0.5122371384977  0.5403767879642 1.0
C      1  0.4995284632716  0.4356121939458  0.5061943735737 1.0
END
