TITL C-6315-4169-196 -3.766 3375.00 -664.20817422 0 0 78 (C3) n - 1
REM
REM Run started: at 2020.12.19 05:40:44 in /gpfs/home/chem/mssmkc/CARBON/AIRSS/Generating-Clusters/Str-Search/Higher-Symm/C4-100
REM VASP from code version vasp.5.4.4.18Apr17-6-g9f103f2a35 (build Oct 11 2019 16:45:47) gamma-only
REM
REM
REM
REM
REM ./C.cell (6bd13a13d554368a30d355f37ece5b26)
REM AIRSS Version 0.9.1 bugfix July 2018 build 013d7b7c2542+ Fri, 06 Jul 2018 19:26:36 +0100
REM compiler GCC version 6.3.0
REM options -cpp -iprefix /gpfs/warwick/csc/orac/software/Core/GCCcore/6.3.0/bin/../lib/gcc/x86_64-pc-linux-gnu/6.3.0/ -mtune=generic -march=x86-64 -g -O0
REM seed 2031077278 1857269001 -606210782 -114078636 2121377400 -254450794 -2039631392 -851533936 -302434429 -811894953 -995407632 -269355458
REM
REM C.POTCAR (d86ddea03c3ceb6dc662c8ad6801f873)
REM 
CELL 1.54180   15.00000   15.00000   15.00000   90.00000   90.00000   90.00000
LATT -1
SFAC C  
C      1  0.4078410517380  0.4027895978836  0.2919711325442 1.0
C      1  0.4005859016618  0.2910712851277  0.4108298275831 1.0
C      1  0.2888696547409  0.4098379903678  0.4040291625549 1.0
C      1  0.5946130189854  0.4111205110608  0.7156637379854 1.0
C      1  0.5941008800548  0.5996495819571  0.2971482425932 1.0
C      1  0.4071696399204  0.6076462293888  0.7227181806989 1.0
C      1  0.5985852427198  0.2965180746055  0.5957465272852 1.0
C      1  0.6071986373188  0.7208203434377  0.4086543434585 1.0
C      1  0.4107680441695  0.7148414101390  0.5970991503168 1.0
C      1  0.7204192695879  0.4072510812353  0.6085857202526 1.0
C      1  0.7139720243143  0.5948704119311  0.4119611975987 1.0
C      1  0.2954014207517  0.5951821206008  0.6020610246668 1.0
C      1  0.4073025575602  0.6081947504553  0.2917696364862 1.0
C      1  0.4018175587308  0.7205704999736  0.4103765563208 1.0
C      1  0.2960901385747  0.5942665942099  0.4126630959492 1.0
C      1  0.5958532520447  0.5986014366854  0.7164202756182 1.0
C      1  0.5927559053614  0.4103591888917  0.2977101979059 1.0
C      1  0.4076720876609  0.4024635637174  0.7222910238493 1.0
C      1  0.5984039731232  0.7146955216001  0.5971547892775 1.0
C      1  0.6067087599943  0.2901088908892  0.4092775077260 1.0
C      1  0.4092113371364  0.2973270946189  0.5954293040220 1.0
C      1  0.7147700485092  0.5956437162916  0.5997770639622 1.0
C      1  0.7198921750040  0.4082398837867  0.4030509359529 1.0
C      1  0.2884122997473  0.4084709123534  0.6102979807909 1.0
C      1  0.6722485458751  0.6685967447736  0.5538864611541 1.0
C      1  0.6688169910942  0.5526323803841  0.6739260496287 1.0
C      1  0.5526281871386  0.6724602542055  0.6703608589935 1.0
C      1  0.3375332856036  0.6670095457482  0.4587768395679 1.0
C      1  0.3309151789035  0.3399513255795  0.5563637538209 1.0
C      1  0.6772495457075  0.3390019764789  0.4559521064866 1.0
C      1  0.3384185735607  0.5548662695028  0.3343565046921 1.0
C      1  0.3378118359884  0.4552083511769  0.6804189827193 1.0
C      1  0.6660268500706  0.4562667628639  0.3387125085432 1.0
C      1  0.4544625324073  0.6782202839719  0.3407152850774 1.0
C      1  0.4555524324106  0.3383743594316  0.6682266745245 1.0
C      1  0.5529217021518  0.3325787414692  0.3406543682205 1.0
C      1  0.6771033109561  0.3385280310144  0.5551332859078 1.0
C      1  0.6679170793096  0.4563561153927  0.6738196843446 1.0
C      1  0.5521259337149  0.3381123451005  0.6686313928580 1.0
C      1  0.3308766815153  0.3406957536183  0.4569205919464 1.0
C      1  0.3372248319884  0.6678827480804  0.5553086362265 1.0
C      1  0.6722040040106  0.6679746602935  0.4575906386542 1.0
C      1  0.3386574468001  0.4555778898090  0.3341276617317 1.0
C      1  0.3377197607290  0.5543910842725  0.6802091338392 1.0
C      1  0.6669237586901  0.5528531035193  0.3386172854803 1.0
C      1  0.4534984398884  0.3328536868486  0.3414422053945 1.0
C      1  0.4563196434927  0.6726851831646  0.6699739459889 1.0
C      1  0.5535780525253  0.6779333557403  0.3397793404632 1.0
C      1  0.4485525717870  0.4390864530210  0.2147164342051 1.0
C      1  0.4370596661220  0.2138732324572  0.4513118039348 1.0
C      1  0.2117722925393  0.4506259224795  0.4406613463236 1.0
C      1  0.5452790766906  0.4574290712991  0.7794303732071 1.0
C      1  0.5442516427868  0.5521371326514  0.2344947501925 1.0
C      1  0.4498561946148  0.5716502606468  0.7989908097416 1.0
C      1  0.5507353993544  0.2338788721514  0.5462630920136 1.0
C      1  0.5713001508623  0.7972510817368  0.4513113259342 1.0
C      1  0.4571565633782  0.7782395947104  0.5472951258554 1.0
C      1  0.7969551780868  0.4496031972538  0.5723726287977 1.0
C      1  0.7776523397014  0.5453643076492  0.4582527621855 1.0
C      1  0.2325316370222  0.5457005340483  0.5543753397932 1.0
C      1  0.4486069271478  0.5711048215557  0.2149184427214 1.0
C      1  0.4373066856847  0.7974966701795  0.4519392541573 1.0
C      1  0.2327962489379  0.5456084644827  0.4601894431098 1.0
C      1  0.5456943691559  0.5521626002044  0.7798330278036 1.0
C      1  0.5439157669108  0.4579077485895  0.2346091946966 1.0
C      1  0.4498945701950  0.4377046016634  0.7989468969147 1.0
C      1  0.5519007685338  0.7781403621969  0.5471256499353 1.0
C      1  0.5694092936176  0.2135859496062  0.4508003314233 1.0
C      1  0.4565356341007  0.2343007719833  0.5463523554091 1.0
C      1  0.7779623235171  0.5455043438005  0.5530171021222 1.0
C      1  0.7968707564604  0.4499471463781  0.4384186936640 1.0
C      1  0.2118880599023  0.4502729932464  0.5731689649538 1.0
C      1  0.8419609143907  0.3983211061306  0.5051494699505 1.0
C      1  0.3986559098282  0.5045557146408  0.8442499489106 1.0
C      1  0.5040436896516  0.8424577916509  0.4003014520149 1.0
C      1  0.1666673679917  0.3983424480998  0.5066892867271 1.0
C      1  0.3960995564589  0.5050831336698  0.1696026118475 1.0
C      1  0.5027849606266  0.1687188281681  0.3987606697908 1.0
END
