TITL C-6315-4169-16 -2.942 3375.00 -483.63993965 0 0 61 (C1) n - 1
REM
REM Run started: at 2020.12.17 19:35:11 in /gpfs/home/chem/mssmkc/CARBON/AIRSS/Generating-Clusters/Str-Search/Higher-Symm/C4-100
REM VASP from code version vasp.5.4.4.18Apr17-6-g9f103f2a35 (build Oct 11 2019 16:45:47) gamma-only
REM
REM
REM
REM
REM ./C.cell (6bd13a13d554368a30d355f37ece5b26)
REM AIRSS Version 0.9.1 bugfix July 2018 build 013d7b7c2542+ Fri, 06 Jul 2018 19:26:36 +0100
REM compiler GCC version 6.3.0
REM options -cpp -iprefix /gpfs/warwick/csc/orac/software/Core/GCCcore/6.3.0/bin/../lib/gcc/x86_64-pc-linux-gnu/6.3.0/ -mtune=generic -march=x86-64 -g -O0
REM seed -2047857031 1803141022 -1201818397 1256556709 -618397592 -2131818874 1679380254 702123481 2092774832 -1005311535 461092981 1714059993
REM
REM C.POTCAR (d86ddea03c3ceb6dc662c8ad6801f873)
REM 
CELL 1.54180   15.00000   15.00000   15.00000   90.00000   90.00000   90.00000
LATT -1
SFAC C  
C      1  0.5440167807924  0.4998330272836  0.2574117632484 1.0
C      1  0.5460224550881  0.7020933498795  0.6101601797878 1.0
C      1  0.5326697449380  0.2905506685082  0.6151897099147 1.0
C      1  0.4452089091453  0.4790707569291  0.2463419819406 1.0
C      1  0.4484300609041  0.7153514742102  0.5918683603242 1.0
C      1  0.4337480273097  0.3017382670868  0.6340826389271 1.0
C      1  0.3791790112371  0.3751324196138  0.7880086644338 1.0
C      1  0.3777601996805  0.3130299977729  0.2495075482796 1.0
C      1  0.3793020695602  0.8118246549781  0.4556967687502 1.0
C      1  0.4779291676492  0.6235927654935  0.5895574372963 1.0
C      1  0.4666768394207  0.3467157749595  0.5556540786827 1.0
C      1  0.4717432905082  0.5191556004332  0.3296500556030 1.0
C      1  0.2940596306661  0.6031023001207  0.4985099414642 1.0
C      1  0.2930243762146  0.4790454686731  0.6001652192208 1.0
C      1  0.3076523029588  0.4366894445702  0.4217197048648 1.0
C      1  0.5568507378672  0.3973941288001  0.3852559864345 1.0
C      1  0.5666538080576  0.6376025329262  0.4619778095805 1.0
C      1  0.5590333829739  0.4501676806232  0.6308633787212 1.0
C      1  0.7553590040336  0.7852356731860  0.4680086131812 1.0
C      1  0.7489100135532  0.3626096056076  0.7502914355017 1.0
C      1  0.7764758732705  0.3760578277926  0.2945148097984 1.0
C      1  0.3818188000132  0.3495879789281  0.6924848519868 1.0
C      1  0.3935445937742  0.4053699431040  0.2660471660944 1.0
C      1  0.3918542514096  0.7442351022293  0.5262629081637 1.0
C      1  0.5920679752750  0.3623615477426  0.6550522503421 1.0
C      1  0.6002124877258  0.4310151747271  0.3069520539260 1.0
C      1  0.6033955916233  0.7016981914577  0.5263801374312 1.0
C      1  0.5948293263351  0.5330462813215  0.6703076660118 1.0
C      1  0.5900901402675  0.3247333634701  0.4413357682711 1.0
C      1  0.5972187521302  0.6324035622177  0.3691768918928 1.0
C      1  0.7204026737428  0.7268178910588  0.4068514555580 1.0
C      1  0.7149461060054  0.4469646245870  0.7339224119675 1.0
C      1  0.7225249310661  0.3287759212577  0.3549971167184 1.0
C      1  0.4930990627773  0.4395086822982  0.5634142900723 1.0
C      1  0.4721798061569  0.4501078078618  0.4019660733533 1.0
C      1  0.5020485528409  0.5844218316127  0.5030960192873 1.0
C      1  0.6867431590196  0.3990665963906  0.2946753605044 1.0
C      1  0.6781010979188  0.7455992100349  0.4999661604167 1.0
C      1  0.6689137752028  0.3597909349727  0.7044851771014 1.0
C      1  0.2752381405718  0.5208355756608  0.4490338090194 1.0
C      1  0.3006121058336  0.5733121679376  0.5889523196836 1.0
C      1  0.2751308738377  0.4466501203606  0.5096520016583 1.0
C      1  0.3695762237316  0.7356838188399  0.3957536465397 1.0
C      1  0.3748186914377  0.4664822910256  0.7557939445100 1.0
C      1  0.3843938697455  0.2953381922046  0.3416832281532 1.0
C      1  0.6719620513064  0.5218073644118  0.7183187928060 1.0
C      1  0.6724902573311  0.2900240515737  0.4175349774985 1.0
C      1  0.6751223779676  0.6761288904818  0.3508157160631 1.0
C      1  0.3820159651322  0.3960845642344  0.3700829566295 1.0
C      1  0.3409705365280  0.6806775065539  0.4703459456462 1.0
C      1  0.3384150549898  0.4361137742135  0.6714305324645 1.0
C      1  0.4130663777370  0.7110976850331  0.3170561720715 1.0
C      1  0.4205869150639  0.5461250985577  0.7715012102961 1.0
C      1  0.4223475589573  0.2302388205991  0.3953273256568 1.0
C      1  0.5340673928147  0.6142406756839  0.6701203343803 1.0
C      1  0.5263877990338  0.2820588874585  0.5098558987681 1.0
C      1  0.5314298261095  0.5936718944228  0.3030348940209 1.0
C      1  0.4750805249156  0.6041815498498  0.7483157238484 1.0
C      1  0.4711982951495  0.2174018646880  0.4611559092413 1.0
C      1  0.4691347712972  0.6660415742416  0.2758687051412 1.0
C      1  0.4819645213949  0.4938993672471  0.4904290108485 1.0
END
