TITL C-6315-4169-235 -0.506 3375.00 -79.76637513 0 0 11 (C1) n - 1
REM
REM Run started: at 2020.12.19 11:10:35 in /gpfs/home/chem/mssmkc/CARBON/AIRSS/Generating-Clusters/Str-Search/Higher-Symm/C4-100
REM VASP from code version vasp.5.4.4.18Apr17-6-g9f103f2a35 (build Oct 11 2019 16:45:47) gamma-only
REM
REM
REM
REM
REM ./C.cell (6bd13a13d554368a30d355f37ece5b26)
REM AIRSS Version 0.9.1 bugfix July 2018 build 013d7b7c2542+ Fri, 06 Jul 2018 19:26:36 +0100
REM compiler GCC version 6.3.0
REM options -cpp -iprefix /gpfs/warwick/csc/orac/software/Core/GCCcore/6.3.0/bin/../lib/gcc/x86_64-pc-linux-gnu/6.3.0/ -mtune=generic -march=x86-64 -g -O0
REM seed 1605073707 693934036 162406332 -1531038481 -1546242715 1065304770 1048669248 1433833251 -647204151 1980624042 1295205281 -54526255
REM
REM C.POTCAR (d86ddea03c3ceb6dc662c8ad6801f873)
REM 
CELL 1.54180   15.00000   15.00000   15.00000   90.00000   90.00000   90.00000
LATT -1
SFAC C  
C      1  0.6155691690091  0.5361545081651  0.5927468037358 1.0
C      1  0.5799578246322  0.5797354808755  0.5176375690949 1.0
C      1  0.5691161630980  0.5294885747546  0.4307316701768 1.0
C      1  0.5552114628112  0.4374511670690  0.4548350376208 1.0
C      1  0.5724323257481  0.4555644977937  0.5535001519821 1.0
C      1  0.4820392792341  0.5956781484913  0.5032045430741 1.0
C      1  0.4769877536352  0.5444691834471  0.4138146933023 1.0
C      1  0.4547781667091  0.4441688419659  0.4214482338915 1.0
C      1  0.4790692029915  0.4523134875597  0.5822050919176 1.0
C      1  0.4315082150185  0.5320001953293  0.5590279046604 1.0
C      1  0.4177780371129  0.4504517145487  0.5066050005439 1.0
END
