TITL C-6315-4169-239 -1.707 3375.00 -292.68236680 0 0 35 (C1) n - 1
REM
REM Run started: at 2020.12.19 11:48:28 in /gpfs/home/chem/mssmkc/CARBON/AIRSS/Generating-Clusters/Str-Search/Higher-Symm/C4-100
REM VASP from code version vasp.5.4.4.18Apr17-6-g9f103f2a35 (build Oct 11 2019 16:45:47) gamma-only
REM
REM
REM
REM
REM ./C.cell (6bd13a13d554368a30d355f37ece5b26)
REM AIRSS Version 0.9.1 bugfix July 2018 build 013d7b7c2542+ Fri, 06 Jul 2018 19:26:36 +0100
REM compiler GCC version 6.3.0
REM options -cpp -iprefix /gpfs/warwick/csc/orac/software/Core/GCCcore/6.3.0/bin/../lib/gcc/x86_64-pc-linux-gnu/6.3.0/ -mtune=generic -march=x86-64 -g -O0
REM seed -2114305441 589190089 -1602722308 -1571107856 -2025815648 -2053615623 -437751984 -2043430968 -282117673 -602385620 2051416560 -946357535
REM
REM C.POTCAR (d86ddea03c3ceb6dc662c8ad6801f873)
REM 
CELL 1.54180   15.00000   15.00000   15.00000   90.00000   90.00000   90.00000
LATT -1
SFAC C  
C      1  0.3965567750696  0.5346437438812  0.3451105648013 1.0
C      1  0.4700157995654  0.5944125536465  0.3432365199480 1.0
C      1  0.5351567299215  0.5620770613962  0.2819862024606 1.0
C      1  0.5997331697859  0.5142557571092  0.3317951644936 1.0
C      1  0.5842105896322  0.4206521213231  0.3341397719123 1.0
C      1  0.4878327598732  0.3877989122903  0.3371186132201 1.0
C      1  0.4090626330443  0.4354863906788  0.3396188833124 1.0
C      1  0.4505964838615  0.6006672357020  0.6670596739719 1.0
C      1  0.5496254082374  0.6008296897149  0.6774045028422 1.0
C      1  0.6061992686298  0.5277158457071  0.6483958465995 1.0
C      1  0.5813903765128  0.4366009926580  0.6489056869080 1.0
C      1  0.4908190286869  0.3950135511060  0.6557601878621 1.0
C      1  0.4085762505471  0.4355253173016  0.6587229928903 1.0
C      1  0.3898304355347  0.5328556627234  0.6635318079069 1.0
C      1  0.5139498478091  0.3412456675515  0.5765901100032 1.0
C      1  0.3503504467662  0.4276606509981  0.5797054723677 1.0
C      1  0.3377356266357  0.5237933403382  0.5810332044694 1.0
C      1  0.4614055341720  0.6607535268351  0.5891017270610 1.0
C      1  0.5560096908875  0.6671312087601  0.6066291649387 1.0
C      1  0.6537798924586  0.5569371656768  0.5671518609813 1.0
C      1  0.6041377633968  0.3777878433004  0.5751003778519 1.0
C      1  0.3739625766197  0.3809722108730  0.4995019873266 1.0
C      1  0.3550510559484  0.5742406244714  0.5020852129250 1.0
C      1  0.4286538589547  0.6398400073250  0.5030592157528 1.0
C      1  0.6162600893231  0.6410980270666  0.5395789136654 1.0
C      1  0.6640707936677  0.5024277280711  0.4889662252017 1.0
C      1  0.6417168828865  0.4088346616189  0.4930304175053 1.0
C      1  0.4603379009744  0.3334414077109  0.4990100339540 1.0
C      1  0.5110852354161  0.3370940085076  0.4182576854446 1.0
C      1  0.3508647157835  0.4272085797521  0.4208597907031 1.0
C      1  0.3424411409060  0.5236653612675  0.4237836303518 1.0
C      1  0.4941593869417  0.6381598255312  0.4275391600346 1.0
C      1  0.5886266561460  0.6333362966616  0.4481055184007 1.0
C      1  0.6342204691808  0.5542230408053  0.4124475904105 1.0
C      1  0.6015745262228  0.3716139816391  0.4156762815217 1.0
END
