TITL C-6315-4169-116 -1.672 3375.00 -266.23229527 0 0 34 (C2) n - 1
REM
REM Run started: at 2020.12.18 16:39:31 in /gpfs/home/chem/mssmkc/CARBON/AIRSS/Generating-Clusters/Str-Search/Higher-Symm/C4-100
REM VASP from code version vasp.5.4.4.18Apr17-6-g9f103f2a35 (build Oct 11 2019 16:45:47) gamma-only
REM
REM
REM
REM
REM ./C.cell (6bd13a13d554368a30d355f37ece5b26)
REM AIRSS Version 0.9.1 bugfix July 2018 build 013d7b7c2542+ Fri, 06 Jul 2018 19:26:36 +0100
REM compiler GCC version 6.3.0
REM options -cpp -iprefix /gpfs/warwick/csc/orac/software/Core/GCCcore/6.3.0/bin/../lib/gcc/x86_64-pc-linux-gnu/6.3.0/ -mtune=generic -march=x86-64 -g -O0
REM seed -815815574 1153443611 -1681371639 1037214875 1180855325 -1156250380 1272643861 -295775824 1633206978 -395916855 -1511379763 -396755242
REM
REM C.POTCAR (d86ddea03c3ceb6dc662c8ad6801f873)
REM 
CELL 1.54180   15.00000   15.00000   15.00000   90.00000   90.00000   90.00000
LATT -1
SFAC C  
C      1  0.3710652586748  0.4884310092091  0.3769622220418 1.0
C      1  0.3710677548606  0.5115684531954  0.6230389585145 1.0
C      1  0.6190159854763  0.4525773923794  0.5206996678227 1.0
C      1  0.6190176074787  0.5474212585235  0.4792973331453 1.0
C      1  0.6882232525468  0.6149674530961  0.5049601543383 1.0
C      1  0.6882197848150  0.3850302406169  0.4950374606450 1.0
C      1  0.3189154026572  0.5664595807204  0.5642522681981 1.0
C      1  0.3189138889892  0.4335395998810  0.4357501256525 1.0
C      1  0.3452153316619  0.3918923530659  0.5200736309748 1.0
C      1  0.3452169555149  0.6081079329388  0.4799283551587 1.0
C      1  0.5902649125837  0.3653433023490  0.4746526194374 1.0
C      1  0.5902658538931  0.6346564015157  0.5253445879201 1.0
C      1  0.5647748224403  0.4421144780909  0.6067985698339 1.0
C      1  0.5647751496080  0.5578854834600  0.3931982158385 1.0
C      1  0.4295594631186  0.4244174771899  0.3297228822018 1.0
C      1  0.4295637869422  0.5755807363632  0.6702777239632 1.0
C      1  0.4332348723191  0.3405475106462  0.3796046625855 1.0
C      1  0.4332389377734  0.6594507318433  0.6203960324878 1.0
C      1  0.4874606216209  0.3837110909435  0.5912781721467 1.0
C      1  0.4874605499057  0.6162885056025  0.4087209774654 1.0
C      1  0.7535757660350  0.3364816621077  0.4656121418676 1.0
C      1  0.7535628872500  0.6635328681990  0.5343888274921 1.0
C      1  0.3570342508282  0.3476369400929  0.4390925776635 1.0
C      1  0.3570366274231  0.6523621994275  0.5609103735586 1.0
C      1  0.5004963587473  0.5422693826936  0.7216918289821 1.0
C      1  0.5004910471474  0.4577266204038  0.2783100287648 1.0
C      1  0.5573973644183  0.5015269857365  0.3231551453510 1.0
C      1  0.5573973195483  0.4984744432220  0.6768462598574 1.0
C      1  0.3964372702528  0.5789567034034  0.4053245525973 1.0
C      1  0.3964380661667  0.4210430524047  0.5946763998431 1.0
C      1  0.5088995642620  0.6722181216979  0.5667005263779 1.0
C      1  0.5088967444608  0.3277801007186  0.4332981520946 1.0
C      1  0.5184988303308  0.6790240847666  0.4743358086207 1.0
C      1  0.5184983102487  0.3209758434951  0.5256627565576 1.0
END
