TITL C-63076-5318-5 -6.283 3375.00 -1079.20197174 0 0 129 (C1) n - 1
REM
REM Run started: at 2020.12.03 10:37:04 in /rds/project/t2_vol4/rds-t2-cs072/BORA/CARBON/AIRSS/Generating-Clusters/Str-Search/Higher-Symm/C100-200
REM VASP from code version vasp.5.4.4.18Apr17-6-g9f103f2a35 (build Oct 11 2019 16:45:47) gamma-only
REM
REM
REM
REM
REM ./C.cell (533062f00bc710175b3da973d35f2034)
REM AIRSS Version 0.9.1 bugfix July 2018 build 013d7b7c2542+ Fri, 06 Jul 2018 19:26:36 +0100
REM compiler GCC version 4.8.5 20150623 (Red Hat 4.8.5-39)
REM options -cpp -mtune=generic -march=x86-64 -g -O0
REM seed 975312292 -1331422744 -1860144029 532598332 178370393 368129951 -538848193 -320958479 521091281 207691421 1405318318 -450053095
REM
REM C.POTCAR (d86ddea03c3ceb6dc662c8ad6801f873)
REM 
CELL 1.54180   15.00000   15.00000   15.00000   90.00000   90.00000   90.00000
LATT -1
SFAC C  
C      1  0.3023179584743  0.4610935182819  0.7727331738665 1.0
C      1  0.3707676540167  0.6328604316134  0.7710296964807 1.0
C      1  0.4417513090977  0.7630225341879  0.7545325158521 1.0
C      1  0.6322378809476  0.6036414933632  0.7656917246417 1.0
C      1  0.7253453656111  0.4719642244053  0.7497087601176 1.0
C      1  0.6427066727759  0.2977259375487  0.7493836663113 1.0
C      1  0.4057746120465  0.3138437632801  0.7911587087288 1.0
C      1  0.7983183098743  0.4796105747104  0.6919641361482 1.0
C      1  0.6579471750618  0.1712667020051  0.6549309766915 1.0
C      1  0.4320288758517  0.1904998602547  0.6988517563543 1.0
C      1  0.1797414625645  0.4159304526459  0.6613619162261 1.0
C      1  0.2344726873017  0.6557567970174  0.6843943919327 1.0
C      1  0.4863858246554  0.8619529867328  0.6484086971001 1.0
C      1  0.6708156487815  0.7416906670963  0.6958675887529 1.0
C      1  0.6039992868926  0.2116256869946  0.7203246501921 1.0
C      1  0.3629151880228  0.2484827610492  0.7331747732455 1.0
C      1  0.2196679805578  0.4771720968706  0.7167938673744 1.0
C      1  0.3135631216413  0.6987964921524  0.7181854315847 1.0
C      1  0.5161705707711  0.8134671606515  0.7236072356194 1.0
C      1  0.7058658498687  0.6529859031639  0.7172501659260 1.0
C      1  0.7614931235244  0.3940695588445  0.7089843908065 1.0
C      1  0.5842417274544  0.2345578442840  0.3932892393825 1.0
C      1  0.3609126748039  0.2491409722729  0.3981852597824 1.0
C      1  0.2256119058044  0.4827281498568  0.4000810848649 1.0
C      1  0.2891612960302  0.6966115959053  0.3966974125291 1.0
C      1  0.5426177929583  0.7820266326630  0.4014842401147 1.0
C      1  0.7356948494254  0.6668095352269  0.3931931285639 1.0
C      1  0.7662354763032  0.4031471341186  0.4004645641935 1.0
C      1  0.7227981850638  0.2383398148060  0.6287988638884 1.0
C      1  0.4364965777633  0.1752646228427  0.6109966300513 1.0
C      1  0.2271218568544  0.3348719095058  0.6422911973965 1.0
C      1  0.1903211791509  0.6750177434504  0.6057903005437 1.0
C      1  0.3908071090339  0.8426250557480  0.6351267731519 1.0
C      1  0.6900248160922  0.7699382972175  0.6113873196679 1.0
C      1  0.8255546937771  0.5535717353924  0.6387843680046 1.0
C      1  0.3610505620276  0.7052469404004  0.2551684952630 1.0
C      1  0.5510315119724  0.7471947700492  0.2510090961062 1.0
C      1  0.7305518401593  0.5916104072196  0.2532998788601 1.0
C      1  0.7276049209775  0.3946930725957  0.2540235456964 1.0
C      1  0.5413833076426  0.2600680892412  0.2448345517414 1.0
C      1  0.3446217526891  0.3148122769730  0.2523189169944 1.0
C      1  0.2490724420081  0.5044396428171  0.2483362930214 1.0
C      1  0.7881782851799  0.5432404292422  0.3146312328362 1.0
C      1  0.7032565999815  0.3080036332304  0.3002944803717 1.0
C      1  0.4730243899099  0.2147760163949  0.2939670049747 1.0
C      1  0.2703263088753  0.3456050632413  0.3133809613164 1.0
C      1  0.2329289417724  0.5906982192465  0.2944802247047 1.0
C      1  0.3975938942492  0.7726142373677  0.3168279285744 1.0
C      1  0.6397624692631  0.7391810546993  0.2905876131205 1.0
C      1  0.3064396809296  0.5007142243825  0.1815467848718 1.0
C      1  0.4177797143692  0.6720110227629  0.1871685746433 1.0
C      1  0.5118187414098  0.6930012207644  0.1869401460799 1.0
C      1  0.6876019471830  0.5425768021418  0.1874784040779 1.0
C      1  0.6843346709853  0.4456857986025  0.1871186160533 1.0
C      1  0.5005626755029  0.3169335979084  0.1831866699489 1.0
C      1  0.4050020637958  0.3427514538271  0.1831636108839 1.0
C      1  0.3459530183129  0.8360429990820  0.4681073563368 1.0
C      1  0.7070035793893  0.7572000393260  0.4358813753996 1.0
C      1  0.8528312897816  0.5744820287108  0.4700741610447 1.0
C      1  0.7605482487268  0.2551869059194  0.4599465243383 1.0
C      1  0.4280818356178  0.1785715098459  0.4398392907268 1.0
C      1  0.2199363773148  0.2913024448956  0.4731012066931 1.0
C      1  0.2036559276963  0.6536797983731  0.4367021553889 1.0
C      1  0.5982304599328  0.4501282145595  0.1386785171082 1.0
C      1  0.5233119116032  0.3984376363348  0.1355529887636 1.0
C      1  0.4288471394527  0.4223989287853  0.1301418427273 1.0
C      1  0.3859681771974  0.5066083935211  0.1354604021628 1.0
C      1  0.4343922151033  0.5890293973638  0.1386724165088 1.0
C      1  0.5309982810123  0.6066630213349  0.1416572455116 1.0
C      1  0.6014263756437  0.5482067469108  0.1406589780096 1.0
C      1  0.3621130211172  0.7778331075397  0.7044122401677 1.0
C      1  0.5883501547488  0.7535774881364  0.7398183900075 1.0
C      1  0.7795461075918  0.6286246855102  0.6710344288466 1.0
C      1  0.7209890718924  0.3121146729774  0.6951358850182 1.0
C      1  0.5141940483685  0.2139219494157  0.7468132576999 1.0
C      1  0.2935453701209  0.3101507881404  0.7089426819611 1.0
C      1  0.2337505362925  0.5709275433523  0.7286235629666 1.0
C      1  0.4176626694301  0.4447370985727  0.5556853242716 1.0
C      1  0.4048826258813  0.5359285741428  0.5607646112770 1.0
C      1  0.4691652314987  0.6056666471125  0.5594764599746 1.0
C      1  0.5607947273915  0.5996298689893  0.5672044752408 1.0
C      1  0.5977884403468  0.5121828076163  0.5451183953725 1.0
C      1  0.5911129355687  0.4163439890158  0.5786610653924 1.0
C      1  0.4965623245377  0.3891505273081  0.5618881931619 1.0
C      1  0.8581985125238  0.5581329792954  0.5515022148340 1.0
C      1  0.7575150370173  0.2428212762751  0.5429970587678 1.0
C      1  0.4494090519606  0.2065843141698  0.5317405863172 1.0
C      1  0.2166722769080  0.2966944215087  0.5566065670057 1.0
C      1  0.1801561581576  0.6665065772213  0.5238300786607 1.0
C      1  0.3561214867299  0.8490214373727  0.5502271865282 1.0
C      1  0.6766967342354  0.7448010976539  0.5295152194190 1.0
C      1  0.4833042211813  0.3031688427990  0.5099671413254 1.0
C      1  0.3590324970440  0.4057738529745  0.4877960447712 1.0
C      1  0.3357782539746  0.5584594942222  0.4974642598057 1.0
C      1  0.4423225798634  0.6713870866501  0.4932809720410 1.0
C      1  0.6042850719613  0.6692994446004  0.5098524927474 1.0
C      1  0.6737318886445  0.5256569153364  0.4821918106884 1.0
C      1  0.6267894392426  0.3779708898331  0.4898241636358 1.0
C      1  0.3384093102565  0.7858703831282  0.3926855693554 1.0
C      1  0.6381198489512  0.7805262869729  0.3787878651057 1.0
C      1  0.8120883212005  0.5973134935101  0.3908359008504 1.0
C      1  0.7526534643476  0.3074762861070  0.3849732757429 1.0
C      1  0.4993992485155  0.1861683833630  0.3806169080970 1.0
C      1  0.2651114971081  0.2866466425210  0.3922904833317 1.0
C      1  0.1982881564158  0.5749630661269  0.3822159070502 1.0
C      1  0.4977317494008  0.2981984589863  0.7945908305425 1.0
C      1  0.3324334791263  0.3761003516525  0.7728275827466 1.0
C      1  0.3168312049269  0.5573790093521  0.7791905419308 1.0
C      1  0.4594274636612  0.6735393395966  0.7821322532890 1.0
C      1  0.5583560831936  0.6667408600762  0.7763152505530 1.0
C      1  0.6460160533428  0.5107576951757  0.7820040577570 1.0
C      1  0.5792272972598  0.3509438464735  0.7951150329765 1.0
C      1  0.2890869954601  0.6646732605824  0.3001251866916 1.0
C      1  0.4911798516397  0.7846280806640  0.3190367912364 1.0
C      1  0.7020386570726  0.6710090678260  0.2974391302635 1.0
C      1  0.7790445424234  0.4485435105376  0.3159951247011 1.0
C      1  0.6214807629170  0.2624821904791  0.3026631799307 1.0
C      1  0.3880874271240  0.2496213651740  0.3030014803099 1.0
C      1  0.2363494159547  0.4336981539795  0.3164926531453 1.0
C      1  0.5768741010808  0.2947246642067  0.4630559509558 1.0
C      1  0.3996737028046  0.3285937833115  0.4539574416115 1.0
C      1  0.2932682513204  0.4765606015130  0.4655352579060 1.0
C      1  0.3557735317982  0.6436228123558  0.4584947363091 1.0
C      1  0.5221988030470  0.7190322674557  0.4678206581990 1.0
C      1  0.6687620849906  0.6123852832423  0.4516763627646 1.0
C      1  0.7049028047745  0.4361016905322  0.4608506722262 1.0
C      1  0.5225523346848  0.4669196857373  0.8868269029291 1.0
C      1  0.5817042164934  0.4464380665550  0.8232539839207 1.0
C      1  0.5474049079535  0.4435821508323  0.4876137627161 1.0
END
