TITL C-6315-4169-172 -0.418 3375.00 -59.51843022 0 0 8 (D(inf)h) n - 1
REM
REM Run started: at 2020.12.19 01:42:28 in /gpfs/home/chem/mssmkc/CARBON/AIRSS/Generating-Clusters/Str-Search/Higher-Symm/C4-100
REM VASP from code version vasp.5.4.4.18Apr17-6-g9f103f2a35 (build Oct 11 2019 16:45:47) gamma-only
REM
REM
REM
REM
REM ./C.cell (6bd13a13d554368a30d355f37ece5b26)
REM AIRSS Version 0.9.1 bugfix July 2018 build 013d7b7c2542+ Fri, 06 Jul 2018 19:26:36 +0100
REM compiler GCC version 6.3.0
REM options -cpp -iprefix /gpfs/warwick/csc/orac/software/Core/GCCcore/6.3.0/bin/../lib/gcc/x86_64-pc-linux-gnu/6.3.0/ -mtune=generic -march=x86-64 -g -O0
REM seed -1784105396 -1949180014 -1604750420 -2116451642 -844181210 1200132086 -1828386519 1066009945 -1503476674 -167924833 -1002983452 1467747343
REM
REM C.POTCAR (d86ddea03c3ceb6dc662c8ad6801f873)
REM 
CELL 1.54180   15.00000   15.00000   15.00000   90.00000   90.00000   90.00000
LATT -1
SFAC C  
C      1  0.6282613228207  0.4975356889082  0.5033735610926 1.0
C      1  0.4570394030439  0.4975582750674  0.5033368441233 1.0
C      1  0.8021007447349  0.4973539602596  0.5036065042189 1.0
C      1  0.5429605967541  0.4975582756021  0.5033368240474 1.0
C      1  0.1978992548621  0.4973539555807  0.5036068398309 1.0
C      1  0.3717386732458  0.4975356855452  0.5033737717257 1.0
C      1  0.2851524786879  0.4975276776840  0.5033697461556 1.0
C      1  0.7148475258507  0.4975276813527  0.5033695088054 1.0
END
