TITL C-6315-4169-31 -2.938 3375.00 -497.40511151 0 0 61 (C1) n - 1
REM
REM Run started: at 2020.12.17 22:23:34 in /gpfs/home/chem/mssmkc/CARBON/AIRSS/Generating-Clusters/Str-Search/Higher-Symm/C4-100
REM VASP from code version vasp.5.4.4.18Apr17-6-g9f103f2a35 (build Oct 11 2019 16:45:47) gamma-only
REM
REM
REM
REM
REM ./C.cell (6bd13a13d554368a30d355f37ece5b26)
REM AIRSS Version 0.9.1 bugfix July 2018 build 013d7b7c2542+ Fri, 06 Jul 2018 19:26:36 +0100
REM compiler GCC version 6.3.0
REM options -cpp -iprefix /gpfs/warwick/csc/orac/software/Core/GCCcore/6.3.0/bin/../lib/gcc/x86_64-pc-linux-gnu/6.3.0/ -mtune=generic -march=x86-64 -g -O0
REM seed 2090217027 -1493238285 318673962 -654814463 1580613528 283373317 1861148266 576695235 -976055707 -2093375409 1972313366 -1325823227
REM
REM C.POTCAR (d86ddea03c3ceb6dc662c8ad6801f873)
REM 
CELL 1.54180   15.00000   15.00000   15.00000   90.00000   90.00000   90.00000
LATT -1
SFAC C  
C      1  0.5643182112156  0.5073807547765  0.2715934165138 1.0
C      1  0.5384608701065  0.5072711837209  0.6782474048120 1.0
C      1  0.3609025232893  0.5772803434343  0.3048342227079 1.0
C      1  0.3527665910937  0.5785190618284  0.6786752668077 1.0
C      1  0.6318158732935  0.5080425165600  0.6432302078523 1.0
C      1  0.6410705589453  0.4864130267687  0.3216205572802 1.0
C      1  0.3256556152220  0.6591113180960  0.3544476595501 1.0
C      1  0.3142132286718  0.6637046194299  0.6409388549124 1.0
C      1  0.4120472236127  0.3405513938026  0.6407942726315 1.0
C      1  0.4017832608313  0.3451241529902  0.3571217492383 1.0
C      1  0.6102423159994  0.3910717064959  0.3249907307381 1.0
C      1  0.6598042384054  0.4384758180853  0.5885292101975 1.0
C      1  0.4405039009478  0.6259175143132  0.2877257130693 1.0
C      1  0.4324328356655  0.6312670852037  0.7057521067810 1.0
C      1  0.5636148434655  0.2857418007999  0.5760354454837 1.0
C      1  0.5405114108977  0.2695003501381  0.4162180369404 1.0
C      1  0.3686910522278  0.4085578675388  0.5910285150290 1.0
C      1  0.3544307390624  0.4145482161750  0.4076254206241 1.0
C      1  0.5614519936456  0.6954480326969  0.4262720573334 1.0
C      1  0.5530513749840  0.7156419923302  0.5906759760126 1.0
C      1  0.6525549810556  0.5983514944554  0.6237723046861 1.0
C      1  0.6576068061815  0.5590675129308  0.3841820227123 1.0
C      1  0.4430356159933  0.2680687646897  0.3966297185014 1.0
C      1  0.4693431526880  0.2704988206851  0.6032885954550 1.0
C      1  0.5198569288113  0.6034392345838  0.7030586491734 1.0
C      1  0.5202687655524  0.5805011214256  0.3190878228048 1.0
C      1  0.4396244388311  0.4089089997826  0.2978191546513 1.0
C      1  0.4508775276149  0.3764174127873  0.7183860291572 1.0
C      1  0.3792728197221  0.5021296522593  0.6301370703657 1.0
C      1  0.3917854355623  0.4878015540303  0.3456832184212 1.0
C      1  0.2705982306242  0.6874822261585  0.5637908765055 1.0
C      1  0.2777469152417  0.6814349845278  0.4281062658102 1.0
C      1  0.6264619468653  0.3551954113344  0.5624495712886 1.0
C      1  0.6112021031791  0.3340190992083  0.3959117120171 1.0
C      1  0.5912195336295  0.6279946704862  0.3680093723898 1.0
C      1  0.5847438849246  0.6566567247197  0.6591749289575 1.0
C      1  0.4594239338355  0.7397145064847  0.5859905572363 1.0
C      1  0.4671747910640  0.7280506565113  0.4179711660973 1.0
C      1  0.4670210855844  0.5258719623416  0.4048113376475 1.0
C      1  0.4730583513500  0.5094658912729  0.5952450644207 1.0
C      1  0.4019602691203  0.7059661988701  0.6551388350130 1.0
C      1  0.4139877193299  0.6995470055280  0.3455831265913 1.0
C      1  0.5058018556310  0.4349431984014  0.7388195838559 1.0
C      1  0.5288632203581  0.4182635182968  0.2736320742099 1.0
C      1  0.4523608534645  0.2085496190376  0.5326488895750 1.0
C      1  0.6038187766070  0.6924283063258  0.5112348721496 1.0
C      1  0.7568887857581  0.2926836008589  0.4816322230641 1.0
C      1  0.8155601565913  0.4406976823167  0.5275209866083 1.0
C      1  0.4175643921438  0.7485724957911  0.4992786289474 1.0
C      1  0.8140317289146  0.3591970213207  0.4929085547733 1.0
C      1  0.6756118901881  0.3543271186266  0.4718965198568 1.0
C      1  0.1486556194305  0.5825124129895  0.4915738164515 1.0
C      1  0.4554676655678  0.5018069843013  0.4960422537286 1.0
C      1  0.6678908893983  0.6208130326719  0.5314290768739 1.0
C      1  0.3242854417909  0.7324947691900  0.4967712572988 1.0
C      1  0.3796921726394  0.4349803624114  0.4964005925697 1.0
C      1  0.3917017929344  0.2277811409931  0.4674687778783 1.0
C      1  0.5461687634233  0.2272106145894  0.5004503471967 1.0
C      1  0.7168995071414  0.4592644201265  0.5062084097538 1.0
C      1  0.2149148228545  0.6406857930935  0.4951920870922 1.0
C      1  0.6918013668192  0.5514122484000  0.4711559236978 1.0
END
