TITL C-6315-4169-94 -2.282 3375.00 -361.10744640 0 0 46 (C1) n - 1
REM
REM Run started: at 2020.12.18 12:17:51 in /gpfs/home/chem/mssmkc/CARBON/AIRSS/Generating-Clusters/Str-Search/Higher-Symm/C4-100
REM VASP from code version vasp.5.4.4.18Apr17-6-g9f103f2a35 (build Oct 11 2019 16:45:47) gamma-only
REM
REM
REM
REM
REM ./C.cell (6bd13a13d554368a30d355f37ece5b26)
REM AIRSS Version 0.9.1 bugfix July 2018 build 013d7b7c2542+ Fri, 06 Jul 2018 19:26:36 +0100
REM compiler GCC version 6.3.0
REM options -cpp -iprefix /gpfs/warwick/csc/orac/software/Core/GCCcore/6.3.0/bin/../lib/gcc/x86_64-pc-linux-gnu/6.3.0/ -mtune=generic -march=x86-64 -g -O0
REM seed 1220307171 1557444019 -90638447 135733159 719391952 1775025215 -1464539434 -596912435 1620909541 1289387526 -769049540 -632910733
REM
REM C.POTCAR (d86ddea03c3ceb6dc662c8ad6801f873)
REM 
CELL 1.54180   15.00000   15.00000   15.00000   90.00000   90.00000   90.00000
LATT -1
SFAC C  
C      1  0.4846588490333  0.6634399559185  0.6848194340673 1.0
C      1  0.3650489209461  0.6552021200951  0.3913694653347 1.0
C      1  0.6703116769148  0.6532698082375  0.4426220745532 1.0
C      1  0.4875365177665  0.7239528539947  0.4505552476013 1.0
C      1  0.5589098816731  0.7250532986832  0.5150598170879 1.0
C      1  0.4695321809021  0.7227084531772  0.5439496449709 1.0
C      1  0.6352155239689  0.3598470789125  0.5644677354391 1.0
C      1  0.3967119532531  0.3442452019247  0.5780750261141 1.0
C      1  0.4839279772395  0.3558830410135  0.3366410953095 1.0
C      1  0.6661561050483  0.6166874823096  0.3683601470141 1.0
C      1  0.5556828451373  0.6344322026979  0.7198146691380 1.0
C      1  0.3071523538448  0.6105427603465  0.4307643170023 1.0
C      1  0.6281488066472  0.4640780018196  0.3195496516444 1.0
C      1  0.5880335637912  0.4763016956819  0.7032660156844 1.0
C      1  0.2917568830567  0.4547104209118  0.4833898207519 1.0
C      1  0.3468277472002  0.3734614893892  0.5024641401157 1.0
C      1  0.5749460001807  0.3827130082638  0.3495110083497 1.0
C      1  0.5948262373271  0.3935850416885  0.6461788193632 1.0
C      1  0.5023202607223  0.5991749113138  0.3297798486732 1.0
C      1  0.6286080496692  0.5919549892835  0.5867279584121 1.0
C      1  0.3747968047904  0.5917625613705  0.5855124670744 1.0
C      1  0.5133854883243  0.5357265931759  0.3926786193383 1.0
C      1  0.5798232031929  0.5384075759771  0.5352110640435 1.0
C      1  0.4206585770931  0.5416466270554  0.5285734461058 1.0
C      1  0.3876610805563  0.3372991338589  0.4235765664685 1.0
C      1  0.6072020040506  0.3413746273425  0.4297362325627 1.0
C      1  0.5124045887924  0.3432811772789  0.6450367066676 1.0
C      1  0.4257000661508  0.6746739339050  0.6152127445919 1.0
C      1  0.4535149105056  0.6777167306293  0.3739282006416 1.0
C      1  0.6392717025517  0.6759763028239  0.5280730316700 1.0
C      1  0.4454785741237  0.2749317332985  0.3827901340720 1.0
C      1  0.5642266275602  0.3118375208936  0.5121741244007 1.0
C      1  0.4880321465754  0.3005576277635  0.5631241384194 1.0
C      1  0.6843196570770  0.3756239797474  0.4806263972009 1.0
C      1  0.4245309387916  0.3735572522743  0.6677518944712 1.0
C      1  0.3926582033770  0.3874988219036  0.3392482171830 1.0
C      1  0.3220181370762  0.5489159891897  0.5063899680209 1.0
C      1  0.5961156578043  0.5597521380898  0.3318008874170 1.0
C      1  0.6098376130326  0.5670493721144  0.6805589803568 1.0
C      1  0.7438704987910  0.4230441793776  0.4281721986222 1.0
C      1  0.4320946990849  0.4380788528873  0.7354950665641 1.0
C      1  0.3106126523550  0.4285994453090  0.3222653457231 1.0
C      1  0.7132717176239  0.4538370700831  0.3545929773730 1.0
C      1  0.5075890748250  0.4704870851124  0.7536445785709 1.0
C      1  0.2686145432667  0.4537280307867  0.3930215800218 1.0
C      1  0.5045883983052  0.5271993220884  0.4862158957917 1.0
END
