TITL C-6315-4169-149 -3.753 3375.00 -618.32030313 0 0 78 (D2h) n - 1
REM
REM Run started: at 2020.12.18 22:28:35 in /gpfs/home/chem/mssmkc/CARBON/AIRSS/Generating-Clusters/Str-Search/Higher-Symm/C4-100
REM VASP from code version vasp.5.4.4.18Apr17-6-g9f103f2a35 (build Oct 11 2019 16:45:47) gamma-only
REM
REM
REM
REM
REM ./C.cell (6bd13a13d554368a30d355f37ece5b26)
REM AIRSS Version 0.9.1 bugfix July 2018 build 013d7b7c2542+ Fri, 06 Jul 2018 19:26:36 +0100
REM compiler GCC version 6.3.0
REM options -cpp -iprefix /gpfs/warwick/csc/orac/software/Core/GCCcore/6.3.0/bin/../lib/gcc/x86_64-pc-linux-gnu/6.3.0/ -mtune=generic -march=x86-64 -g -O0
REM seed -69418051 1304868172 -935372691 -82242867 1324203056 473163741 1891308896 1201990244 -594176931 1381023334 -1216851805 -315616868
REM
REM C.POTCAR (d86ddea03c3ceb6dc662c8ad6801f873)
REM 
CELL 1.54180   15.00000   15.00000   15.00000   90.00000   90.00000   90.00000
LATT -1
SFAC C  
C      1  0.6568525237010  0.2942181242125  0.5921739007541 1.0
C      1  0.3431499475102  0.2942157649388  0.4078251158759 1.0
C      1  0.6563151861710  0.7100508205028  0.5922337115481 1.0
C      1  0.3436831440437  0.7100489751160  0.4077673142149 1.0
C      1  0.6568464416490  0.2942179503419  0.4078227109714 1.0
C      1  0.3431526975846  0.2942196495771  0.5921759031418 1.0
C      1  0.6563126015898  0.7100439699043  0.4077647715360 1.0
C      1  0.3436880813287  0.7100469050845  0.5922363339337 1.0
C      1  0.4194443738186  0.7582666228014  0.5496901611029 1.0
C      1  0.5805557395275  0.7582619535419  0.4503091576752 1.0
C      1  0.4194430477369  0.2468068194786  0.5497496223272 1.0
C      1  0.5805586323854  0.2468058335125  0.4502508937053 1.0
C      1  0.4194411299787  0.7582657197435  0.4503104516489 1.0
C      1  0.5805578584222  0.7582673713790  0.5496887036531 1.0
C      1  0.4194403789661  0.2468037901911  0.4502505204918 1.0
C      1  0.5805593606438  0.2468073048876  0.5497505037236 1.0
C      1  0.5440025407930  0.5741263352928  0.5812310152126 1.0
C      1  0.4559963858563  0.5741220642671  0.4187712473077 1.0
C      1  0.5440161024324  0.4298413685103  0.5810834512352 1.0
C      1  0.4559847638860  0.4298374886598  0.4189141369701 1.0
C      1  0.5440028225909  0.5741216901597  0.4187698419930 1.0
C      1  0.4559982506762  0.5741259222667  0.5812317202713 1.0
C      1  0.5440158207448  0.4298393148559  0.4189129854834 1.0
C      1  0.4559837244044  0.4298426396948  0.5810842443434 1.0
C      1  0.3976434923668  0.6862550902905  0.7490090224102 1.0
C      1  0.6023544597844  0.6862572007648  0.2509963987193 1.0
C      1  0.3972857929650  0.3171012816295  0.7489673942516 1.0
C      1  0.6027119315286  0.3171009714103  0.2510322691848 1.0
C      1  0.3976601537812  0.6862603381749  0.2510271460213 1.0
C      1  0.6023385592645  0.6862597686024  0.7489746427265 1.0
C      1  0.3973015662518  0.3170974487954  0.2510547414721 1.0
C      1  0.6026970332001  0.3170965563715  0.7489409944859 1.0
C      1  0.3033433941980  0.3741853825756  0.4518410233763 1.0
C      1  0.6966573187390  0.3741865889328  0.5481566588015 1.0
C      1  0.3039746713845  0.6299924515260  0.4518016967182 1.0
C      1  0.6960233986703  0.6299932288315  0.5482005627775 1.0
C      1  0.3033452556172  0.3741872750779  0.5481575609244 1.0
C      1  0.6966540817494  0.3741864641136  0.4518399747002 1.0
C      1  0.3039784971223  0.6299917099573  0.5482000714521 1.0
C      1  0.6960223523095  0.6299903752209  0.4518020320452 1.0
C      1  0.4524647030954  0.6096777066842  0.2670218954438 1.0
C      1  0.5475338393862  0.6096770134094  0.7329818376743 1.0
C      1  0.4524325731840  0.3934596445832  0.2672830094001 1.0
C      1  0.5475667823834  0.3934589296588  0.7327142004450 1.0
C      1  0.4524596180822  0.6096798474828  0.7329780197924 1.0
C      1  0.5475396009500  0.6096797723706  0.2670247947519 1.0
C      1  0.4524278997168  0.3934579247795  0.7327127780188 1.0
C      1  0.5475716057641  0.3934584098859  0.2672838630450 1.0
C      1  0.3479298825656  0.2936840593753  0.3150165390178 1.0
C      1  0.6520778891701  0.2936870847267  0.6849823832587 1.0
C      1  0.3486651006785  0.7104010290503  0.3149449434904 1.0
C      1  0.6513324141184  0.7104038539202  0.6850572847698 1.0
C      1  0.3479453903392  0.2936939445436  0.6849817868148 1.0
C      1  0.6520534062972  0.2936900232514  0.3150170823155 1.0
C      1  0.3486940573416  0.7103859833754  0.6850543599642 1.0
C      1  0.6513127395321  0.7103819810573  0.3149445082261 1.0
C      1  0.3115860025479  0.5498000694546  0.6108535614100 1.0
C      1  0.6884138769272  0.5497989524490  0.3891482620588 1.0
C      1  0.3114675970517  0.4541363429260  0.6107643521827 1.0
C      1  0.6885323355441  0.4541351257138  0.3892335447581 1.0
C      1  0.3115851592681  0.5497991187957  0.3891460374942 1.0
C      1  0.6884143990848  0.5498002733891  0.6108558277826 1.0
C      1  0.3114673553907  0.4541352277646  0.3892329005885 1.0
C      1  0.6885327230322  0.4541362223150  0.6107662272384 1.0
C      1  0.4035678760949  0.5531077456886  0.6614358021921 1.0
C      1  0.5964318693591  0.5531067361328  0.3385651747568 1.0
C      1  0.4035421394577  0.4503708177322  0.6612941721913 1.0
C      1  0.5964578469744  0.4503700276507  0.3387036315142 1.0
C      1  0.4035689900117  0.5531060001405  0.3385654886654 1.0
C      1  0.5964306169146  0.5531065549452  0.6614367251023 1.0
C      1  0.4035428978455  0.4503695456139  0.3387045645399 1.0
C      1  0.5964566621722  0.4503703251600  0.6612941988343 1.0
C      1  0.4999974858452  0.7721835718309  0.4083939955618 1.0
C      1  0.5000016657238  0.7721888994004  0.5916044226406 1.0
C      1  0.4999986768330  0.2329879894616  0.4084447084406 1.0
C      1  0.5000024271929  0.2329944028377  0.5915565836594 1.0
C      1  0.4497958448836  0.5019414916658  0.4999995168352 1.0
C      1  0.5502045338661  0.5019416195816  0.5000004059369 1.0
END
