TITL C-6315-4169-109 -0.567 3375.00 -88.25076147 0 0 12 (D3d) n - 1
REM
REM Run started: at 2020.12.18 15:31:26 in /gpfs/home/chem/mssmkc/CARBON/AIRSS/Generating-Clusters/Str-Search/Higher-Symm/C4-100
REM VASP from code version vasp.5.4.4.18Apr17-6-g9f103f2a35 (build Oct 11 2019 16:45:47) gamma-only
REM
REM
REM
REM
REM ./C.cell (6bd13a13d554368a30d355f37ece5b26)
REM AIRSS Version 0.9.1 bugfix July 2018 build 013d7b7c2542+ Fri, 06 Jul 2018 19:26:36 +0100
REM compiler GCC version 6.3.0
REM options -cpp -iprefix /gpfs/warwick/csc/orac/software/Core/GCCcore/6.3.0/bin/../lib/gcc/x86_64-pc-linux-gnu/6.3.0/ -mtune=generic -march=x86-64 -g -O0
REM seed -1618641969 1940066835 1580361815 1913278957 -576083217 -175942711 -221743029 518837069 -499512827 77857642 -1282771352 2002256625
REM
REM C.POTCAR (d86ddea03c3ceb6dc662c8ad6801f873)
REM 
CELL 1.54180   15.00000   15.00000   15.00000   90.00000   90.00000   90.00000
LATT -1
SFAC C  
C      1  0.4796644371172  0.5529586408407  0.6017484663739 1.0
C      1  0.4219815461443  0.5531609378643  0.4315665770596 1.0
C      1  0.5980269178661  0.5530897120191  0.4669050232808 1.0
C      1  0.4297191363256  0.4558959228785  0.4380788828789 1.0
C      1  0.5888235301487  0.4558917628182  0.4699295974084 1.0
C      1  0.4818118566490  0.4557449947457  0.5918039551204 1.0
C      1  0.4019129325175  0.4468935552608  0.5330982061027 1.0
C      1  0.5203530090319  0.4470069905374  0.3982107804511 1.0
C      1  0.5780554571997  0.4468155973645  0.5684755699064 1.0
C      1  0.5181911992582  0.5442742569289  0.4081481155626 1.0
C      1  0.5703119951896  0.5441272825595  0.5619461801673 1.0
C      1  0.4111479825523  0.5441403461824  0.5300887456878 1.0
END
