TITL C-6315-4169-131 -0.419 3375.00 -57.39084419 0 0 8 (C1) n - 1
REM
REM Run started: at 2020.12.18 19:24:00 in /gpfs/home/chem/mssmkc/CARBON/AIRSS/Generating-Clusters/Str-Search/Higher-Symm/C4-100
REM VASP from code version vasp.5.4.4.18Apr17-6-g9f103f2a35 (build Oct 11 2019 16:45:47) gamma-only
REM
REM
REM
REM
REM ./C.cell (6bd13a13d554368a30d355f37ece5b26)
REM AIRSS Version 0.9.1 bugfix July 2018 build 013d7b7c2542+ Fri, 06 Jul 2018 19:26:36 +0100
REM compiler GCC version 6.3.0
REM options -cpp -iprefix /gpfs/warwick/csc/orac/software/Core/GCCcore/6.3.0/bin/../lib/gcc/x86_64-pc-linux-gnu/6.3.0/ -mtune=generic -march=x86-64 -g -O0
REM seed 1583868295 -1791435549 -915806415 214840195 -1307582271 -1802121026 -24035432 -1543901644 -887179216 597311117 -267447446 2070695507
REM
REM C.POTCAR (d86ddea03c3ceb6dc662c8ad6801f873)
REM 
CELL 1.54180   15.00000   15.00000   15.00000   90.00000   90.00000   90.00000
LATT -1
SFAC C  
C      1  0.5137740120867  0.5865746023584  0.4184468729843 1.0
C      1  0.5320057359110  0.3990185769911  0.5752723208697 1.0
C      1  0.4566675210255  0.4402042368595  0.5899026701394 1.0
C      1  0.5466765617993  0.5060288096749  0.4587898825260 1.0
C      1  0.4994146593004  0.6597810194765  0.3712959643033 1.0
C      1  0.4096582472560  0.5058125736569  0.5543876624184 1.0
C      1  0.5750105671742  0.4397512405856  0.5098922684992 1.0
C      1  0.4596854954468  0.5381114403972  0.4870413582596 1.0
END
