TITL C-6315-4169-22 -1.381 3375.00 -229.79622381 0 0 30 (C2) n - 1
REM
REM Run started: at 2020.12.17 20:40:56 in /gpfs/home/chem/mssmkc/CARBON/AIRSS/Generating-Clusters/Str-Search/Higher-Symm/C4-100
REM VASP from code version vasp.5.4.4.18Apr17-6-g9f103f2a35 (build Oct 11 2019 16:45:47) gamma-only
REM
REM
REM
REM
REM ./C.cell (6bd13a13d554368a30d355f37ece5b26)
REM AIRSS Version 0.9.1 bugfix July 2018 build 013d7b7c2542+ Fri, 06 Jul 2018 19:26:36 +0100
REM compiler GCC version 6.3.0
REM options -cpp -iprefix /gpfs/warwick/csc/orac/software/Core/GCCcore/6.3.0/bin/../lib/gcc/x86_64-pc-linux-gnu/6.3.0/ -mtune=generic -march=x86-64 -g -O0
REM seed -1827740432 -1061111899 -1237105623 2035541619 -951000064 449847074 1910593640 -2110903858 -47300013 1391070405 -348624478 -2014642962
REM
REM C.POTCAR (d86ddea03c3ceb6dc662c8ad6801f873)
REM 
CELL 1.54180   15.00000   15.00000   15.00000   90.00000   90.00000   90.00000
LATT -1
SFAC C  
C      1  0.6174145633136  0.5500595844565  0.4138630545654 1.0
C      1  0.6174633209036  0.4499567283027  0.5861302847269 1.0
C      1  0.3811991295184  0.5427731541268  0.4141835615648 1.0
C      1  0.3812309276509  0.4572365383060  0.5858029390536 1.0
C      1  0.6130802305406  0.5509120061760  0.5826204925766 1.0
C      1  0.6130830804791  0.4490859655829  0.4174328232403 1.0
C      1  0.3906253150235  0.5605414883926  0.5735380510272 1.0
C      1  0.3906010408824  0.4394667200952  0.4264627050441 1.0
C      1  0.4557428503980  0.6093590571935  0.4154787531019 1.0
C      1  0.4557946679319  0.3906609525630  0.5845268805767 1.0
C      1  0.5561651150658  0.6174031648658  0.3979511020680 1.0
C      1  0.5561922140601  0.3825775644456  0.6020722405751 1.0
C      1  0.4488463528942  0.6335713302625  0.6088392779691 1.0
C      1  0.4488373913769  0.3664635431383  0.3911600170009 1.0
C      1  0.5520288451713  0.6229288183939  0.6040558137202 1.0
C      1  0.5520136683871  0.3770947371559  0.3959633027422 1.0
C      1  0.4518368592250  0.7141791565500  0.5555877710205 1.0
C      1  0.4518194723327  0.2857548245220  0.4443343162825 1.0
C      1  0.5514948186166  0.7004825771716  0.5478824913234 1.0
C      1  0.5514446781657  0.2995404555038  0.4521563113681 1.0
C      1  0.4531729838784  0.7018626109394  0.4591015607008 1.0
C      1  0.4532561886110  0.2981936204389  0.5408315529379 1.0
C      1  0.5523762332610  0.6999430932424  0.4520762293470 1.0
C      1  0.5524292144366  0.3000273097037  0.5479423114129 1.0
C      1  0.3187492723323  0.4517438541072  0.5056748297014 1.0
C      1  0.6642233321502  0.4503282446646  0.4993858624506 1.0
C      1  0.3187551722437  0.5482476852772  0.4943577065058 1.0
C      1  0.6640924885935  0.5495859501437  0.5006249319653 1.0
C      1  0.4549390592093  0.5479230467412  0.4959909440444 1.0
C      1  0.4549943133466  0.4520962175372  0.5039718813865 1.0
END
