TITL C-6315-4169-187 -2.398 3375.00 -396.23301203 0 0 49 (C1) n - 1
REM
REM Run started: at 2020.12.19 03:29:17 in /gpfs/home/chem/mssmkc/CARBON/AIRSS/Generating-Clusters/Str-Search/Higher-Symm/C4-100
REM VASP from code version vasp.5.4.4.18Apr17-6-g9f103f2a35 (build Oct 11 2019 16:45:47) gamma-only
REM
REM
REM
REM
REM ./C.cell (6bd13a13d554368a30d355f37ece5b26)
REM AIRSS Version 0.9.1 bugfix July 2018 build 013d7b7c2542+ Fri, 06 Jul 2018 19:26:36 +0100
REM compiler GCC version 6.3.0
REM options -cpp -iprefix /gpfs/warwick/csc/orac/software/Core/GCCcore/6.3.0/bin/../lib/gcc/x86_64-pc-linux-gnu/6.3.0/ -mtune=generic -march=x86-64 -g -O0
REM seed 981557185 1813023828 -819471984 -666094484 -1035439293 -2104866154 -1566072644 -878816351 829411264 -1968426043 -776111143 56985616
REM
REM C.POTCAR (d86ddea03c3ceb6dc662c8ad6801f873)
REM 
CELL 1.54180   15.00000   15.00000   15.00000   90.00000   90.00000   90.00000
LATT -1
SFAC C  
C      1  0.5214920272356  0.4903539133049  0.6113273881883 1.0
C      1  0.6503895439209  0.3244471324436  0.3870174287254 1.0
C      1  0.7093378772484  0.3616479002920  0.4350649939170 1.0
C      1  0.3021216638463  0.3894194095551  0.5514115011708 1.0
C      1  0.5740230579635  0.2955955023947  0.6414137172615 1.0
C      1  0.3653910427875  0.3997521326257  0.6189204237151 1.0
C      1  0.4442422329050  0.7538796952319  0.4959231023204 1.0
C      1  0.3091892326548  0.6791478031224  0.5408900220803 1.0
C      1  0.2825073993075  0.5647515941930  0.4274521181656 1.0
C      1  0.6883423266017  0.5805847029006  0.4145579463276 1.0
C      1  0.4423307174722  0.5283109858264  0.3131025950764 1.0
C      1  0.6414453750948  0.3304643475359  0.6749719351511 1.0
C      1  0.4683975629347  0.4800180917795  0.5255792012110 1.0
C      1  0.4274554235874  0.6381570410199  0.6557844711788 1.0
C      1  0.6197993767543  0.4728893826241  0.5984607848480 1.0
C      1  0.5392064291279  0.5333205782486  0.3131677501995 1.0
C      1  0.5733083247432  0.6376856274600  0.6578547164159 1.0
C      1  0.6038362415048  0.4619731938390  0.3244432471304 1.0
C      1  0.7349471213417  0.4493737937173  0.4329186087714 1.0
C      1  0.4048918998100  0.3704184939533  0.3280231951074 1.0
C      1  0.2849852773736  0.5538377177106  0.5997980012884 1.0
C      1  0.4208480003942  0.5208717169834  0.4604356246139 1.0
C      1  0.3617773944795  0.7437895116002  0.5008623857645 1.0
C      1  0.6868720254723  0.5452140611762  0.5763248632881 1.0
C      1  0.5011788178247  0.6980105176386  0.6304980467500 1.0
C      1  0.4609426741003  0.4069753791225  0.5933938979250 1.0
C      1  0.2957575039570  0.4646492944021  0.6114164748533 1.0
C      1  0.5031927274259  0.5733248790077  0.6630943043849 1.0
C      1  0.5787670097252  0.3644776537733  0.3413782874038 1.0
C      1  0.6374395388970  0.6309090902187  0.5869900053268 1.0
C      1  0.4527352930323  0.2834023508628  0.4226983356273 1.0
C      1  0.3308065364982  0.4805436192320  0.4154714064379 1.0
C      1  0.4909514991887  0.3285007006911  0.3425541979834 1.0
C      1  0.3149865659390  0.3870950166377  0.4570888404086 1.0
C      1  0.5423225030019  0.6109823720015  0.3721110303608 1.0
C      1  0.3806969164674  0.4602052745787  0.3254963868793 1.0
C      1  0.3645249749012  0.3279711590867  0.4054192197320 1.0
C      1  0.4900220366358  0.2688483161637  0.5024841709641 1.0
C      1  0.5054376705522  0.3132047924729  0.5786294599314 1.0
C      1  0.3411467972865  0.6306448457131  0.6215095354732 1.0
C      1  0.6139791648359  0.6380652471956  0.4258458134115 1.0
C      1  0.5209865379356  0.7273250424220  0.5413990995120 1.0
C      1  0.7192374467174  0.4946415640074  0.6631176762057 1.0
C      1  0.6006527528654  0.6788842221842  0.5136438192519 1.0
C      1  0.6758122451115  0.4136584788690  0.6466087409391 1.0
C      1  0.6819540739397  0.4959277135857  0.3646281946170 1.0
C      1  0.2643514723515  0.5980433801374  0.5107859050132 1.0
C      1  0.7268727071468  0.5312683368513  0.4868952269914 1.0
C      1  0.4481068591010  0.5865364236059  0.3911362016993 1.0
END
