TITL C-6315-4169-43 -1.54 3375.00 -256.96523608 0 0 32 (C1) n - 1
REM
REM Run started: at 2020.12.18 01:22:05 in /gpfs/home/chem/mssmkc/CARBON/AIRSS/Generating-Clusters/Str-Search/Higher-Symm/C4-100
REM VASP from code version vasp.5.4.4.18Apr17-6-g9f103f2a35 (build Oct 11 2019 16:45:47) gamma-only
REM
REM
REM
REM
REM ./C.cell (6bd13a13d554368a30d355f37ece5b26)
REM AIRSS Version 0.9.1 bugfix July 2018 build 013d7b7c2542+ Fri, 06 Jul 2018 19:26:36 +0100
REM compiler GCC version 6.3.0
REM options -cpp -iprefix /gpfs/warwick/csc/orac/software/Core/GCCcore/6.3.0/bin/../lib/gcc/x86_64-pc-linux-gnu/6.3.0/ -mtune=generic -march=x86-64 -g -O0
REM seed 1807717971 -1830239002 -1496311982 6245755 -1636971642 -1870401991 -1974687318 -1926280917 568955918 -776531362 -864446818 364594680
REM
REM C.POTCAR (d86ddea03c3ceb6dc662c8ad6801f873)
REM 
CELL 1.54180   15.00000   15.00000   15.00000   90.00000   90.00000   90.00000
LATT -1
SFAC C  
C      1  0.3922633767316  0.6795638920134  0.4625129739893 1.0
C      1  0.5351772638790  0.6707442745212  0.5674684540017 1.0
C      1  0.5872686728024  0.6645817918154  0.4897895950313 1.0
C      1  0.4088142880251  0.3804398524860  0.5829480201745 1.0
C      1  0.6295201405395  0.3716029345142  0.5393521282919 1.0
C      1  0.4721148767592  0.3792058317465  0.3838710512038 1.0
C      1  0.4583294128082  0.4506960366732  0.6233880109925 1.0
C      1  0.6659339992087  0.4351481037781  0.4734294656279 1.0
C      1  0.3967049273208  0.4396281780451  0.3925110263734 1.0
C      1  0.5245746629541  0.5254829181626  0.3455511441892 1.0
C      1  0.3285077701798  0.5141210197583  0.5602120201919 1.0
C      1  0.6564921347367  0.5130611946476  0.6082944080110 1.0
C      1  0.6762927984562  0.5239053144257  0.5166311094150 1.0
C      1  0.4341310787218  0.5322268774992  0.3863057354979 1.0
C      1  0.4264489117211  0.5414409078328  0.5890141882555 1.0
C      1  0.3290691898728  0.4190366035156  0.5474356142499 1.0
C      1  0.6254630262581  0.4209256438516  0.6197060993811 1.0
C      1  0.5446802404080  0.4306629261510  0.3496472074794 1.0
C      1  0.3214786336775  0.4446318237810  0.4495349369595 1.0
C      1  0.5435084571419  0.4546616240817  0.6629656020891 1.0
C      1  0.6323210887699  0.4507411031358  0.3881094622152 1.0
C      1  0.3627404970755  0.5963781444041  0.4225353255917 1.0
C      1  0.5087848374825  0.6051215497958  0.6292092237301 1.0
C      1  0.6412022406103  0.5945393630690  0.4566409072835 1.0
C      1  0.4909019107079  0.3149416751246  0.4505783879970 1.0
C      1  0.4633223837817  0.3143818324509  0.5415870325598 1.0
C      1  0.5565741626974  0.3155960486845  0.5177726834493 1.0
C      1  0.5746983747009  0.5453001551063  0.6578262866932 1.0
C      1  0.6130939156118  0.5483113263157  0.3786874625883 1.0
C      1  0.2981426721044  0.5362483773783  0.4675348061243 1.0
C      1  0.4437228376685  0.5781830448902  0.4856052847690 1.0
C      1  0.4883407165869  0.6674508303444  0.4809191455927 1.0
END
