TITL C-6315-4169-231 -3.008 3375.00 -492.47813401 0 0 62 (C1) n - 1
REM
REM Run started: at 2020.12.19 10:21:27 in /gpfs/home/chem/mssmkc/CARBON/AIRSS/Generating-Clusters/Str-Search/Higher-Symm/C4-100
REM VASP from code version vasp.5.4.4.18Apr17-6-g9f103f2a35 (build Oct 11 2019 16:45:47) gamma-only
REM
REM
REM
REM
REM ./C.cell (6bd13a13d554368a30d355f37ece5b26)
REM AIRSS Version 0.9.1 bugfix July 2018 build 013d7b7c2542+ Fri, 06 Jul 2018 19:26:36 +0100
REM compiler GCC version 6.3.0
REM options -cpp -iprefix /gpfs/warwick/csc/orac/software/Core/GCCcore/6.3.0/bin/../lib/gcc/x86_64-pc-linux-gnu/6.3.0/ -mtune=generic -march=x86-64 -g -O0
REM seed 778640356 -1086014542 2080678644 -1983535268 -1236697679 417871521 1216015925 62290162 592372995 -692230187 -294946188 -200576832
REM
REM C.POTCAR (d86ddea03c3ceb6dc662c8ad6801f873)
REM 
CELL 1.54180   15.00000   15.00000   15.00000   90.00000   90.00000   90.00000
LATT -1
SFAC C  
C      1  0.4264990853083  0.6609125148695  0.3199226541326 1.0
C      1  0.6206057048493  0.6457969767948  0.3789434691578 1.0
C      1  0.6158502492584  0.5969445903937  0.5608128748934 1.0
C      1  0.4977724221161  0.6247980173777  0.7013497175336 1.0
C      1  0.2815464791311  0.6248600706829  0.5926073603160 1.0
C      1  0.4258762740917  0.4274562638076  0.5059143263798 1.0
C      1  0.4831474391818  0.4026193307970  0.4279693418691 1.0
C      1  0.5689615048459  0.3892900946640  0.4502941675672 1.0
C      1  0.5864064978427  0.4156485538281  0.5467844621034 1.0
C      1  0.4904486882830  0.4022395624117  0.5802374443839 1.0
C      1  0.7060232521666  0.4215442041844  0.3409520509554 1.0
C      1  0.7429408586777  0.4295860956786  0.6391760591666 1.0
C      1  0.4361217870962  0.4802672213956  0.7338208491754 1.0
C      1  0.2505820047965  0.4623559368140  0.4529161112793 1.0
C      1  0.4535464599861  0.4296628934353  0.2456520009008 1.0
C      1  0.5703714445056  0.2602946688720  0.5610927168183 1.0
C      1  0.4792263196549  0.2815693892051  0.5946200418233 1.0
C      1  0.4170927076585  0.2655275983188  0.5200380573966 1.0
C      1  0.4681889814457  0.2483567019865  0.4436735328714 1.0
C      1  0.5653263576329  0.2453456867204  0.4679827468078 1.0
C      1  0.3629707696078  0.4362828371595  0.2762427821295 1.0
C      1  0.6581431241100  0.4412457380310  0.2606221361160 1.0
C      1  0.7863722520917  0.4525489135330  0.5545163251485 1.0
C      1  0.5219623310969  0.5377245628916  0.7441604172641 1.0
C      1  0.2478178162818  0.4571650349180  0.5509928362698 1.0
C      1  0.4354759361313  0.3886923814890  0.7355525578789 1.0
C      1  0.2751697327009  0.3831353809981  0.4959446300161 1.0
C      1  0.4118937166852  0.3613155126288  0.3008344628991 1.0
C      1  0.6920449352519  0.3357368554659  0.3716167290437 1.0
C      1  0.7086020285534  0.3444603121295  0.6359016174456 1.0
C      1  0.3812231363257  0.5198078936594  0.5022223477389 1.0
C      1  0.4335430118311  0.5703265693522  0.3003358571043 1.0
C      1  0.6427282215529  0.5586194426748  0.3590999149836 1.0
C      1  0.6397602244882  0.5044204411430  0.5650419399031 1.0
C      1  0.4449494013849  0.5829695208792  0.6299410680347 1.0
C      1  0.4257352039978  0.3250813150550  0.3914948916543 1.0
C      1  0.6207437316724  0.3099487514424  0.4171751151684 1.0
C      1  0.6351725744068  0.3293884186462  0.5890681380300 1.0
C      1  0.4649146028330  0.3511022710940  0.6606597267578 1.0
C      1  0.3633916744338  0.3417269246645  0.4817809723523 1.0
C      1  0.5987273643503  0.5098505131810  0.2835194607457 1.0
C      1  0.7251734895320  0.4928416514876  0.5002096223431 1.0
C      1  0.6048034961849  0.5044921823490  0.7274238065764 1.0
C      1  0.3092990287477  0.5267170407224  0.5918898945220 1.0
C      1  0.3559028753414  0.5168518692875  0.3296847655002 1.0
C      1  0.3213773211184  0.5165794853888  0.4166023504782 1.0
C      1  0.5034831528716  0.5112109623771  0.2645154557562 1.0
C      1  0.7051213790154  0.4992253808673  0.4043544173829 1.0
C      1  0.6684240523755  0.4891027954173  0.6675554033554 1.0
C      1  0.3832569681848  0.5238790230404  0.6645357656998 1.0
C      1  0.6175388001577  0.6798271874310  0.5683516081968 1.0
C      1  0.4910658547535  0.7133322938871  0.6933146363159 1.0
C      1  0.3155596407464  0.6999115048514  0.5787931721653 1.0
C      1  0.4015713152305  0.7296929989471  0.3605385471402 1.0
C      1  0.5903171569284  0.7204230786319  0.3983513118310 1.0
C      1  0.5585263501583  0.7512199113214  0.5524282289605 1.0
C      1  0.4795072026853  0.7564347406557  0.6132742349658 1.0
C      1  0.3964951818077  0.7521360530594  0.5551442338810 1.0
C      1  0.4352730663162  0.7533912050590  0.4491939348889 1.0
C      1  0.5354349809561  0.7627263923289  0.4608148055728 1.0
C      1  0.4322100005457  0.6743534340732  0.5043697552005 1.0
C      1  0.4429855780256  0.5901766455427  0.5330573370511 1.0
END
