TITL C-63790-7496-1 -11.972 3375.00 -2746.25355979 0 0 330 (C2v) n - 1
REM
REM Run started: at 2020.11.22 20:12:44 in /rds/project/t2_vol4/rds-t2-cs072/BORA/CARBON/AIRSS/Generating-Clusters/Str-Search/Higher-Symm
REM VASP from code version vasp.5.4.4.18Apr17-6-g9f103f2a35 (build Oct 11 2019 16:45:47) gamma-only
REM
REM
REM
REM
REM ./C.cell (e5ae0387ce4d49c7c0135a1433873289)
REM AIRSS Version 0.9.1 bugfix July 2018 build 013d7b7c2542+ Fri, 06 Jul 2018 19:26:36 +0100
REM compiler GCC version 4.8.5 20150623 (Red Hat 4.8.5-39)
REM options -cpp -mtune=generic -march=x86-64 -g -O0
REM seed 1750408299 -552333649 238325596 -709580063 2063024282 -1928171359 844501333 1771298944 -667243452 1339066255 952444730 -1332288757
REM
REM C.POTCAR (d86ddea03c3ceb6dc662c8ad6801f873)
REM 
CELL 1.54180   15.00000   15.00000   15.00000   90.00000   90.00000   90.00000
LATT -1
SFAC C  
C      1  0.1112575933134  0.3010839144294  0.6485158447571 1.0
C      1  0.8304958155652  0.2998789155121  0.7400860074894 1.0
C      1  0.5525522931319  0.2410522213726  0.0914271810482 1.0
C      1  0.1112533784691  0.6989170346384  0.6485147392161 1.0
C      1  0.8304891635453  0.7001190369708  0.7400883965950 1.0
C      1  0.5525515229978  0.7589482929577  0.0914255466763 1.0
C      1  0.8887761173961  0.3010643355506  0.6485008188654 1.0
C      1  0.1695638587352  0.2998960365736  0.7401107129445 1.0
C      1  0.4474584593112  0.2410451050520  0.0914032975571 1.0
C      1  0.8887719116754  0.6989336676970  0.6485028335042 1.0
C      1  0.1695566134675  0.7001036208718  0.7401086953069 1.0
C      1  0.4474570350004  0.7589541511174  0.0914064275938 1.0
C      1  0.6611057013618  0.2946043668906  0.5310373732438 1.0
C      1  0.4482502105898  0.2893538350132  0.3469854315192 1.0
C      1  0.3948404067724  0.2971367481810  0.6169843775862 1.0
C      1  0.6610983338134  0.7053907747657  0.5310367467642 1.0
C      1  0.4482494212615  0.7106467990881  0.3469878419819 1.0
C      1  0.3948355494506  0.7028690856349  0.6169909572887 1.0
C      1  0.3389051278624  0.2946230860423  0.5310014855810 1.0
C      1  0.5517302684148  0.2893497506661  0.3470097314847 1.0
C      1  0.6051877367052  0.2970831554832  0.6170626136500 1.0
C      1  0.3389005868872  0.7053800692487  0.5310048744123 1.0
C      1  0.5517292099833  0.7106505858620  0.3470079989822 1.0
C      1  0.6051827230659  0.7029118093393  0.6170591266939 1.0
C      1  0.6005723365611  0.1571240727568  0.1147990382381 1.0
C      1  0.1181337432100  0.2084300247134  0.6024618458915 1.0
C      1  0.7822658208812  0.2169971307028  0.7688444865760 1.0
C      1  0.6005714516855  0.8428751672389  0.1148007869377 1.0
C      1  0.1181294620800  0.7915735088517  0.6024629773036 1.0
C      1  0.7822609247972  0.7830051724695  0.7688459646245 1.0
C      1  0.3994312543060  0.1571309342342  0.1148009739166 1.0
C      1  0.8818905545603  0.2083913327369  0.6024629123982 1.0
C      1  0.2177817590221  0.2169672319730  0.7688622460783 1.0
C      1  0.3994304799317  0.8428698228982  0.1148011357907 1.0
C      1  0.8818858618173  0.7916035367751  0.6024631965981 1.0
C      1  0.2177753231582  0.7830282295223  0.7688605197108 1.0
C      1  0.1781784561972  0.4459067214493  0.4374245989042 1.0
C      1  0.6032434065387  0.4495227789598  0.8191562650927 1.0
C      1  0.7491105853185  0.4496454606542  0.2450731503277 1.0
C      1  0.1781774138240  0.5540958194932  0.4374248482720 1.0
C      1  0.6032448590826  0.5504651419495  0.8191538376255 1.0
C      1  0.7491104172311  0.5503546903133  0.2450727989993 1.0
C      1  0.8218141415882  0.4459010501385  0.4374371143006 1.0
C      1  0.3966509680885  0.4495638927041  0.8191947467905 1.0
C      1  0.2508635253822  0.4496458125926  0.2450475619882 1.0
C      1  0.8218129437585  0.5540975978949  0.4374374691883 1.0
C      1  0.3966510714001  0.5504444598572  0.8191978842423 1.0
C      1  0.2508632338870  0.5503554589688  0.2450478678677 1.0
C      1  0.5546530815612  0.6070355378580  0.1111518306336 1.0
C      1  0.1068740300501  0.5542695822276  0.7252378758566 1.0
C      1  0.7925087892501  0.5709429696350  0.7196005610855 1.0
C      1  0.5546507705311  0.3929660868046  0.1111557526778 1.0
C      1  0.1068753628154  0.4457298247821  0.7252383770741 1.0
C      1  0.7925107806061  0.4290525670418  0.7195995745890 1.0
C      1  0.4453153261743  0.6070452222876  0.1111147720099 1.0
C      1  0.8931083756697  0.5542682721710  0.7252169372139 1.0
C      1  0.2075053501259  0.5708829342189  0.7196269319474 1.0
C      1  0.4453130216538  0.3929534265843  0.1111101843019 1.0
C      1  0.8931101991326  0.4457284659759  0.7252169093540 1.0
C      1  0.2075073242436  0.4291191201185  0.7196284102273 1.0
C      1  0.4092318095857  0.7361724151681  0.8753448046677 1.0
C      1  0.8623870098398  0.7696608070715  0.3931207636913 1.0
C      1  0.2178534928441  0.7573694858808  0.2448164534590 1.0
C      1  0.4092399895366  0.2638408437713  0.8753194681094 1.0
C      1  0.8623898241802  0.2303386673811  0.3931182954488 1.0
C      1  0.2178536902217  0.2426316621383  0.2448161640329 1.0
C      1  0.5908162617678  0.7362524747156  0.8755308635290 1.0
C      1  0.1376002876002  0.7696597130777  0.3931158233452 1.0
C      1  0.7821283073584  0.7573611532244  0.2448296304097 1.0
C      1  0.5908257682284  0.2637387941884  0.8755540851311 1.0
C      1  0.1376023085307  0.2303410784361  0.3931169685918 1.0
C      1  0.7821287064994  0.2426389035047  0.2448287977189 1.0
C      1  0.4516347167273  0.8265268494784  0.8433225054889 1.0
C      1  0.8280341158745  0.8585178001759  0.3803448148793 1.0
C      1  0.2446831931791  0.8394153839870  0.3099348253805 1.0
C      1  0.4516876443462  0.1735167001813  0.8432420607841 1.0
C      1  0.8280372977193  0.1414810698905  0.3803423927603 1.0
C      1  0.2446846361050  0.1605858952901  0.3099348705175 1.0
C      1  0.5487874605407  0.8268547648354  0.8439828108000 1.0
C      1  0.1719609818202  0.8585151005529  0.3803530254938 1.0
C      1  0.7553030604712  0.8394105155479  0.3099428258056 1.0
C      1  0.5488427110678  0.1731045344882  0.8440629014660 1.0
C      1  0.1719636262453  0.1414859861042  0.3803537828994 1.0
C      1  0.7553042311143  0.1605892006847  0.3099410661715 1.0
C      1  0.8370942149505  0.5919559924444  0.2672040655012 1.0
C      1  0.1194314794966  0.5546421347220  0.3486075934193 1.0
C      1  0.5505404511892  0.5586838652151  0.9062437187756 1.0
C      1  0.8370945942956  0.4080439745836  0.2672034165022 1.0
C      1  0.1194324459961  0.4453593674200  0.3486076615028 1.0
C      1  0.5505411629202  0.4413143458274  0.9062471545446 1.0
C      1  0.1628821772205  0.5919604407026  0.2671886154696 1.0
C      1  0.8805529982449  0.5546429507941  0.3486184662029 1.0
C      1  0.4494239718594  0.5587225650081  0.9062358693068 1.0
C      1  0.1628824402248  0.4080408330095  0.2671886311463 1.0
C      1  0.8805538556835  0.4453568370657  0.3486177605757 1.0
C      1  0.4494244417856  0.4412787076438  0.9062322928946 1.0
C      1  0.8325406917649  0.3281158222777  0.2214933182778 1.0
C      1  0.0441824714213  0.3930368058585  0.3806348301439 1.0
C      1  0.5876265771440  0.3512798057647  0.9426376131190 1.0
C      1  0.8325409122499  0.6718847650815  0.2214942370912 1.0
C      1  0.0441808024469  0.6069649803047  0.3806342837374 1.0
C      1  0.5876205391187  0.6487211240519  0.9426261475017 1.0
C      1  0.1674402419382  0.3281086300297  0.2214816449572 1.0
C      1  0.9558101727813  0.3930329517166  0.3806327574283 1.0
C      1  0.4124189871144  0.3512049689791  0.9425288418548 1.0
C      1  0.1674400877274  0.6718923037243  0.2214811980531 1.0
C      1  0.9558084615235  0.6069674665078  0.3806333919513 1.0
C      1  0.4124142453162  0.6487927848770  0.9425411718487 1.0
C      1  0.1243002277380  0.4004046587631  0.5167687149846 1.0
C      1  0.6944244517659  0.4167478922970  0.8543469621866 1.0
C      1  0.7140607532816  0.4095702060376  0.1588597702795 1.0
C      1  0.1242981217780  0.5995969686990  0.5167681624827 1.0
C      1  0.6944244656388  0.5832500241468  0.8543494092833 1.0
C      1  0.7140618842375  0.5904301241868  0.1588590791735 1.0
C      1  0.8757068666782  0.4003921830389  0.5167673795420 1.0
C      1  0.3055098758730  0.4166597491417  0.8544159287283 1.0
C      1  0.2859097092970  0.4095695939388  0.1588329091937 1.0
C      1  0.8757045597734  0.5996061265471  0.5167682379597 1.0
C      1  0.3055107330920  0.5833379688311  0.8544141054868 1.0
C      1  0.2859109975800  0.5904313442999  0.1588342168374 1.0
C      1  0.3112304186523  0.1616809403659  0.1520373883660 1.0
C      1  0.2797506847019  0.1950117674090  0.8363553779582 1.0
C      1  0.9066272698305  0.1777496686682  0.5193051660817 1.0
C      1  0.3112298027966  0.8383201396093  0.1520377030669 1.0
C      1  0.2797352452935  0.8049783763210  0.8363607158134 1.0
C      1  0.9066240892008  0.8222478410950  0.5193072245366 1.0
C      1  0.6887667741392  0.1616792118050  0.1520438819545 1.0
C      1  0.7203852748168  0.1951091349522  0.8363932490005 1.0
C      1  0.0933814034271  0.1777736248041  0.5193189186265 1.0
C      1  0.6887660940889  0.8383200286634  0.1520443614107 1.0
C      1  0.7203716012921  0.8048982049967  0.8363888023943 1.0
C      1  0.0933779921142  0.8222293730372  0.5193177039528 1.0
C      1  0.3979336885393  0.3799760395886  0.3255027530052 1.0
C      1  0.4471740848796  0.3804369359230  0.6485269511697 1.0
C      1  0.6724097997070  0.3794956398382  0.4816988022642 1.0
C      1  0.3979331505876  0.6200246806679  0.3255048024511 1.0
C      1  0.4471670351870  0.6195700726068  0.6485380712031 1.0
C      1  0.6724067867737  0.6205002887617  0.4816977076841 1.0
C      1  0.6020449347770  0.3799759533777  0.3255393818712 1.0
C      1  0.5528710758336  0.3803525775257  0.6486735916413 1.0
C      1  0.3275906977930  0.3794898996011  0.4816224378173 1.0
C      1  0.6020448547947  0.6200245591831  0.3255383718492 1.0
C      1  0.5528640507078  0.6196395327288  0.6486663107443 1.0
C      1  0.3275878809777  0.6205142997064  0.4816249550165 1.0
C      1  0.7642897849787  0.3321428145240  0.1463063569794 1.0
C      1  0.0534692536922  0.3399545145390  0.4674812691639 1.0
C      1  0.6835483773080  0.3493410396979  0.9161717396988 1.0
C      1  0.7642910350931  0.6678575116600  0.1463066075327 1.0
C      1  0.0534668978809  0.6600470822852  0.4674812504886 1.0
C      1  0.6835433026221  0.6506662842543  0.9161656777885 1.0
C      1  0.2356869072742  0.3321371008886  0.1462890883550 1.0
C      1  0.9465331221790  0.3399520340705  0.4674786854577 1.0
C      1  0.3164468075489  0.3491972031615  0.9161835479108 1.0
C      1  0.2356880701547  0.6678638873798  0.1462894247553 1.0
C      1  0.9465306500391  0.6600483684904  0.4674795450859 1.0
C      1  0.3164445028570  0.6507946928387  0.9161871352240 1.0
C      1  0.5515249380553  0.6912125813148  0.1732183711879 1.0
C      1  0.1857139002265  0.6581333035166  0.5850726882574 1.0
C      1  0.7580138774456  0.6515687684057  0.6778368901927 1.0
C      1  0.5515233339353  0.3087875309220  0.1732203495091 1.0
C      1  0.1857186640797  0.3418691463994  0.5850749495227 1.0
C      1  0.7580184035481  0.3484258539561  0.6778329841010 1.0
C      1  0.4484498803170  0.6912161755985  0.1731944937792 1.0
C      1  0.8143179057955  0.6581593482750  0.5850494114632 1.0
C      1  0.2420176049261  0.6515043698263  0.6778612676330 1.0
C      1  0.4484481817460  0.3087837180216  0.1731915424069 1.0
C      1  0.8143232905527  0.3418369618669  0.5850461876907 1.0
C      1  0.2420216775400  0.3484985858364  0.6778638875311 1.0
C      1  0.5984994271443  0.6990046438207  0.2583527894457 1.0
C      1  0.2397613983736  0.7278963149322  0.5366716821387 1.0
C      1  0.6710469270522  0.7128213754324  0.6917114676362 1.0
C      1  0.5984991142566  0.3009954033543  0.2583541423482 1.0
C      1  0.2397656332221  0.2721076887636  0.5366713217667 1.0
C      1  0.6710615147814  0.2871728075537  0.6917036925678 1.0
C      1  0.4014753172341  0.6990057594981  0.2583275190892 1.0
C      1  0.7602447528999  0.7279184822606  0.5366729021471 1.0
C      1  0.3290715560828  0.7127842102416  0.6917670053599 1.0
C      1  0.4014751816879  0.3009950726152  0.2583247357486 1.0
C      1  0.7602498378824  0.2720776443111  0.5366714294617 1.0
C      1  0.3290849955762  0.2872209230977  0.6917719413988 1.0
C      1  0.3616924874451  0.8592629596881  0.7996447133091 1.0
C      1  0.8329387347704  0.8812164442511  0.4755172188886 1.0
C      1  0.3110177580488  0.8798218658563  0.2446873486255 1.0
C      1  0.3617104494299  0.1407356311030  0.7996214428962 1.0
C      1  0.8329418290558  0.1187813685539  0.4755138430251 1.0
C      1  0.3110183600251  0.1201792570452  0.2446871320784 1.0
C      1  0.6384058277476  0.8592522631700  0.7998233688010 1.0
C      1  0.1670602771951  0.8812054524200  0.4755283314103 1.0
C      1  0.6889770304118  0.8798191330660  0.2446916033287 1.0
C      1  0.6384174358027  0.1407501365618  0.7998437594637 1.0
C      1  0.1670636677400  0.1187969578440  0.4755292052369 1.0
C      1  0.6889782506877  0.1201802833735  0.2446908874537 1.0
C      1  0.5513780653317  0.2127929041460  0.5874101593442 1.0
C      1  0.6003333491078  0.2124714801865  0.3961521446019 1.0
C      1  0.3888682434494  0.2106744085386  0.4975423048636 1.0
C      1  0.5513730992730  0.7872042653776  0.5874099568633 1.0
C      1  0.6003315055139  0.7875274251198  0.3961512060295 1.0
C      1  0.3888649061338  0.7893286174314  0.4975463079178 1.0
C      1  0.4486527878864  0.2128201298253  0.5873883596051 1.0
C      1  0.3996576836446  0.2124774860250  0.3961261416717 1.0
C      1  0.6111408406984  0.2106573482814  0.4975794866046 1.0
C      1  0.4486470058246  0.7871842942056  0.5873904174030 1.0
C      1  0.3996556734163  0.7875251131234  0.3961286311912 1.0
C      1  0.6111374842396  0.7893395728520  0.4975780696986 1.0
C      1  0.3993836979469  0.0506827945323  0.5025508908249 1.0
C      1  0.5493634598067  0.0512144705898  0.5937420802705 1.0
C      1  0.5514099373200  0.0514840112804  0.4169021532254 1.0
C      1  0.3993822201203  0.9493184925253  0.5025522890982 1.0
C      1  0.5493618183798  0.9487840187876  0.5937410633370 1.0
C      1  0.5514091673573  0.9485167506496  0.4169020713612 1.0
C      1  0.6006136375560  0.0506823525119  0.5025791976545 1.0
C      1  0.4506182269643  0.0512202338795  0.5937199646936 1.0
C      1  0.4485969505578  0.0514835645745  0.4168879791049 1.0
C      1  0.6006128875440  0.9493172467824  0.5025780440867 1.0
C      1  0.4506168994392  0.9487812158704  0.5937215215878 1.0
C      1  0.4485962215816  0.9485172474489  0.4168883369629 1.0
C      1  0.6613779165568  0.1234778354700  0.5313343420613 1.0
C      1  0.4446966511042  0.1266273779221  0.3503122436352 1.0
C      1  0.3962481466620  0.1279946310693  0.6242998110075 1.0
C      1  0.6613745077884  0.8765191599692  0.5313329850617 1.0
C      1  0.4446961284664  0.8733732175540  0.3503130847258 1.0
C      1  0.3962463879726  0.8720091924971  0.6243068752628 1.0
C      1  0.3386361175121  0.1235001102178  0.5313043606472 1.0
C      1  0.5553020068662  0.1266260962272  0.3503216833117 1.0
C      1  0.6037395889724  0.1279622942391  0.6243786679149 1.0
C      1  0.3386325517736  0.8765032318555  0.5313067601977 1.0
C      1  0.5553008590459  0.8733739717642  0.3503220328255 1.0
C      1  0.6037384321569  0.8720343111361  0.6243726443362 1.0
C      1  0.5989992082263  0.8922208828425  0.2629369748726 1.0
C      1  0.2398576072713  0.8817637387230  0.5348167236743 1.0
C      1  0.6525692816850  0.8634222434545  0.7085041076709 1.0
C      1  0.5989998273785  0.1077787564615  0.2629366485152 1.0
C      1  0.2398613858113  0.1182399014832  0.5348168638567 1.0
C      1  0.6525676545995  0.1365764618365  0.7085156701862 1.0
C      1  0.4009940425828  0.8922243969982  0.2629313064200 1.0
C      1  0.7601492096935  0.8817957080233  0.5348194208809 1.0
C      1  0.3474061099648  0.8634209377107  0.7084069598640 1.0
C      1  0.4009946868498  0.1077764037218  0.2629309049582 1.0
C      1  0.7601534295512  0.1182001580603  0.5348169913393 1.0
C      1  0.3474054981638  0.1365801090150  0.7083932257779 1.0
C      1  0.1422980585268  0.3873418096775  0.7994666553904 1.0
C      1  0.9479302723946  0.3918092820590  0.6590475333302 1.0
C      1  0.4477511360942  0.3266205783372  0.0302612227763 1.0
C      1  0.1422960567222  0.6126589453813  0.7994657255363 1.0
C      1  0.9479273804049  0.6081899186153  0.6590482167828 1.0
C      1  0.4477488029304  0.6733775667311  0.0302672927774 1.0
C      1  0.8576977088511  0.3873310399889  0.7994578959714 1.0
C      1  0.0520837355466  0.3918111169230  0.6590542204113 1.0
C      1  0.5522719193165  0.3266519297899  0.0303195979177 1.0
C      1  0.8576953506818  0.6126667683797  0.7994591218447 1.0
C      1  0.0520812364883  0.6081882259419  0.6590540948859 1.0
C      1  0.5522698124512  0.6733494292682  0.0303134941526 1.0
C      1  0.3623805361207  0.5485026110045  0.5183805464755 1.0
C      1  0.5859636458998  0.5453291512076  0.5993706043605 1.0
C      1  0.5488198788442  0.5454761156516  0.3224918592092 1.0
C      1  0.3623852864751  0.4515023920951  0.5183750233766 1.0
C      1  0.5859729498256  0.4546656739317  0.5993790763453 1.0
C      1  0.5488201609237  0.4545243359960  0.3224926688315 1.0
C      1  0.6377637082190  0.5485002968150  0.5186231803203 1.0
C      1  0.4142586942558  0.5453284566688  0.5990596091514 1.0
C      1  0.4511603451063  0.5454765784653  0.3224603324813 1.0
C      1  0.6377693542827  0.4514946996449  0.5186281577386 1.0
C      1  0.4142686805243  0.4546774858297  0.5990501633071 1.0
C      1  0.4511607660458  0.4545238916973  0.3224599071525 1.0
C      1  0.3129316227780  0.2528853091803  0.9017419019276 1.0
C      1  0.9437501029836  0.2396484636679  0.4501385539525 1.0
C      1  0.2538894899513  0.2334186818038  0.1531092736911 1.0
C      1  0.3129167796940  0.7471010915804  0.9017423870202 1.0
C      1  0.9437475351894  0.7603511106940  0.4501394850530 1.0
C      1  0.2538896351438  0.7665824306751  0.1531097288854 1.0
C      1  0.6871971162200  0.2530704727226  0.9016929544538 1.0
C      1  0.0562491221380  0.2396531681072  0.4501420504040 1.0
C      1  0.7461003084581  0.2334236704093  0.1531204955143 1.0
C      1  0.6871834583769  0.7469416466846  0.9016936376614 1.0
C      1  0.0562471186657  0.7603480740119  0.4501415576772 1.0
C      1  0.7461006614629  0.7665767053999  0.1531207730040 1.0
C      1  0.7756563877738  0.7221264422929  0.4271460634493 1.0
C      1  0.3024351565601  0.7088586148300  0.2887955708884 1.0
C      1  0.4180723183581  0.7046109438071  0.7752599885467 1.0
C      1  0.7756591822631  0.2778717509876  0.4271440698675 1.0
C      1  0.3024351230325  0.2911431240050  0.2887947666406 1.0
C      1  0.4180201897083  0.2954160619121  0.7752287168167 1.0
C      1  0.2243235174941  0.7221213182289  0.4271323467635 1.0
C      1  0.6975420800712  0.7088571033918  0.2888163012298 1.0
C      1  0.5813985066548  0.7048119756337  0.7755592237332 1.0
C      1  0.2243257694786  0.2778811256879  0.4271327160825 1.0
C      1  0.6975421260276  0.2911422678241  0.2888162531029 1.0
C      1  0.5813483787018  0.2951626415647  0.7755866460212 1.0
C      1  0.2536465771600  0.6202980719830  0.4159469113091 1.0
C      1  0.5531723620007  0.6112486797089  0.7534689670708 1.0
C      1  0.7035651615699  0.6149168740831  0.3230403310780 1.0
C      1  0.2536489905782  0.3797059340950  0.4159465814108 1.0
C      1  0.5531646464988  0.3887330359734  0.7534788936347 1.0
C      1  0.7035652861429  0.3850824751696  0.3230407631208 1.0
C      1  0.7463273800782  0.6202894559302  0.4159740937411 1.0
C      1  0.4466626500105  0.6111080859717  0.7533686653079 1.0
C      1  0.2964106416620  0.6149165287181  0.3230117959323 1.0
C      1  0.7463289907357  0.3797084661678  0.4159739028277 1.0
C      1  0.4466541660643  0.3889091631078  0.7533542075081 1.0
C      1  0.2964115380901  0.3850855224290  0.3230105101854 1.0
C      1  0.3686640603855  0.5463044890042  0.1268595841779 1.0
C      1  0.2225087406038  0.5528823140432  0.8153226842923 1.0
C      1  0.9457424571022  0.5514788620479  0.5726633135868 1.0
C      1  0.3686628921040  0.4536948479481  0.1268576482117 1.0
C      1  0.2225091162671  0.4471184470340  0.8153247890966 1.0
C      1  0.9457440026276  0.4485200663415  0.5726632311702 1.0
C      1  0.6313072176097  0.5463036101424  0.1268954167443 1.0
C      1  0.7774517819234  0.5528717702174  0.8152392216319 1.0
C      1  0.0542626330009  0.5514772614633  0.5726642503799 1.0
C      1  0.6313058267045  0.4536974736361  0.1268969683598 1.0
C      1  0.7774525164055  0.4471238322656  0.8152360623392 1.0
C      1  0.0542641613852  0.4485234051890  0.5726643824247 1.0
C      1  0.7815748154955  0.1901305158660  0.6001581101473 1.0
C      1  0.4524927311267  0.1154313001019  0.1813770071041 1.0
C      1  0.2715171553477  0.1963144853897  0.6875122658172 1.0
C      1  0.7815701069654  0.8098628990919  0.6001588824159 1.0
C      1  0.4524917239461  0.8845687464070  0.1813780921944 1.0
C      1  0.2715145379802  0.8036897653951  0.6875139534212 1.0
C      1  0.2184475159239  0.1901833480078  0.6001539697140 1.0
C      1  0.5475058170104  0.1154319741287  0.1813808848381 1.0
C      1  0.7284955656701  0.1962621152802  0.6875238444329 1.0
C      1  0.2184433780748  0.8098217747558  0.6001548896747 1.0
C      1  0.5475049766497  0.8845671566082  0.1813819409169 1.0
C      1  0.7284930008411  0.8037319026785  0.6875225509303 1.0
C      1  0.7002021056520  0.2293953643106  0.3674702859436 1.0
C      1  0.2997835669950  0.7706017306752  0.3674565737670 1.0
C      1  0.2997845786898  0.2294002405158  0.3674556302176 1.0
C      1  0.7002005092266  0.7706036423323  0.3674710813532 1.0
C      1  0.4997418501840  0.7610845486415  0.7505826548575 1.0
C      1  0.4996856249352  0.2389144795400  0.7505830476701 1.0
END
