TITL C-6315-4169-150 -2.198 3375.00 -370.19671253 0 0 47 (C1) n - 1
REM
REM Run started: at 2020.12.18 22:38:17 in /gpfs/home/chem/mssmkc/CARBON/AIRSS/Generating-Clusters/Str-Search/Higher-Symm/C4-100
REM VASP from code version vasp.5.4.4.18Apr17-6-g9f103f2a35 (build Oct 11 2019 16:45:47) gamma-only
REM
REM
REM
REM
REM ./C.cell (6bd13a13d554368a30d355f37ece5b26)
REM AIRSS Version 0.9.1 bugfix July 2018 build 013d7b7c2542+ Fri, 06 Jul 2018 19:26:36 +0100
REM compiler GCC version 6.3.0
REM options -cpp -iprefix /gpfs/warwick/csc/orac/software/Core/GCCcore/6.3.0/bin/../lib/gcc/x86_64-pc-linux-gnu/6.3.0/ -mtune=generic -march=x86-64 -g -O0
REM seed 258646393 -1731754447 449645375 -1824995055 835454798 -108863458 -1186658708 -1284075844 -845601415 276885390 -1927293109 -273485068
REM
REM C.POTCAR (d86ddea03c3ceb6dc662c8ad6801f873)
REM 
CELL 1.54180   15.00000   15.00000   15.00000   90.00000   90.00000   90.00000
LATT -1
SFAC C  
C      1  0.5908735990198  0.3275585261020  0.4962981442944 1.0
C      1  0.5050479550215  0.6781291591723  0.4037993508183 1.0
C      1  0.4247826639403  0.3255688307777  0.4917464856729 1.0
C      1  0.5185170617254  0.6783232271147  0.5741950712278 1.0
C      1  0.6922980668971  0.5605738696308  0.5156075219277 1.0
C      1  0.5000785942327  0.4419803279493  0.3320271898203 1.0
C      1  0.3385761643125  0.5595560374001  0.4832235758798 1.0
C      1  0.5032898539757  0.4501828334679  0.6510013968359 1.0
C      1  0.6244209901409  0.3693530955568  0.7474419401765 1.0
C      1  0.7140250486922  0.6227618128318  0.4513445554409 1.0
C      1  0.3983375943142  0.3607175538200  0.2354734140098 1.0
C      1  0.2660030539931  0.6400211484580  0.6180610510794 1.0
C      1  0.3570596621066  0.4653302338692  0.3807359952186 1.0
C      1  0.4059515975463  0.5413725093264  0.6199874748506 1.0
C      1  0.6498329462524  0.4649602413329  0.6072798415298 1.0
C      1  0.6057030548323  0.5341411119405  0.3449476129148 1.0
C      1  0.3538296514062  0.6090003292939  0.5677158682570 1.0
C      1  0.5889376474611  0.3993803926835  0.6526475489731 1.0
C      1  0.6497243512708  0.6089699083467  0.3742201009235 1.0
C      1  0.4114680666592  0.3960808791210  0.3359781831407 1.0
C      1  0.2994069039255  0.7205476401279  0.6286449193734 1.0
C      1  0.6298803384324  0.2863242570213  0.7191124767255 1.0
C      1  0.7289530507223  0.7191276935448  0.4657457065985 1.0
C      1  0.4080545224318  0.2794179812579  0.2681123496462 1.0
C      1  0.5662489088399  0.6109688869818  0.6262513133578 1.0
C      1  0.6295188250418  0.4034606322659  0.4507110736028 1.0
C      1  0.4557305907252  0.6053447358966  0.3643278061299 1.0
C      1  0.3764092873310  0.3958706934739  0.5333426399695 1.0
C      1  0.4233733587330  0.2332301554124  0.3443424640522 1.0
C      1  0.3711262903758  0.7714151752853  0.6129091152310 1.0
C      1  0.6221245876010  0.2339689396015  0.6470135706624 1.0
C      1  0.6548505575055  0.7443271947260  0.4333081449772 1.0
C      1  0.3763741660850  0.5640926336187  0.3976916109162 1.0
C      1  0.4091801890146  0.4418704834665  0.6154332687098 1.0
C      1  0.6446726953572  0.5638804518467  0.6030270278302 1.0
C      1  0.5917093792646  0.4413331946077  0.3739136140880 1.0
C      1  0.4172450701592  0.6950483023693  0.5651573887653 1.0
C      1  0.5836142711546  0.3112444187628  0.5945414387603 1.0
C      1  0.5960875873725  0.6926894994852  0.3796643819268 1.0
C      1  0.4158974810402  0.3118150995810  0.3965884247938 1.0
C      1  0.3365968045280  0.4593970355276  0.4727171868654 1.0
C      1  0.4959384482649  0.5483284415961  0.6597204779830 1.0
C      1  0.6708645254908  0.4644201927811  0.5145213124072 1.0
C      1  0.5116699766386  0.5375569552722  0.3247017256985 1.0
C      1  0.5112852444592  0.2982295803610  0.5234044719379 1.0
C      1  0.4866917309225  0.7051485327796  0.4948862561321 1.0
C      1  0.4828671847825  0.5000220641539  0.5616159098674 1.0
END
