TITL C-6315-4169-157 -3.17 3375.00 -558.99483619 0 0 70 (C2) n - 1
REM
REM Run started: at 2020.12.18 23:11:16 in /gpfs/home/chem/mssmkc/CARBON/AIRSS/Generating-Clusters/Str-Search/Higher-Symm/C4-100
REM VASP from code version vasp.5.4.4.18Apr17-6-g9f103f2a35 (build Oct 11 2019 16:45:47) gamma-only
REM
REM
REM
REM
REM ./C.cell (6bd13a13d554368a30d355f37ece5b26)
REM AIRSS Version 0.9.1 bugfix July 2018 build 013d7b7c2542+ Fri, 06 Jul 2018 19:26:36 +0100
REM compiler GCC version 6.3.0
REM options -cpp -iprefix /gpfs/warwick/csc/orac/software/Core/GCCcore/6.3.0/bin/../lib/gcc/x86_64-pc-linux-gnu/6.3.0/ -mtune=generic -march=x86-64 -g -O0
REM seed -672389716 991891497 1158091524 294920424 437973307 558458169 1344422585 1644563872 2109656786 1558226136 -1235277113 -642317027
REM
REM C.POTCAR (d86ddea03c3ceb6dc662c8ad6801f873)
REM 
CELL 1.54180   15.00000   15.00000   15.00000   90.00000   90.00000   90.00000
LATT -1
SFAC C  
C      1  0.7432257181555  0.5736138336101  0.4912389493801 1.0
C      1  0.4224053086290  0.7586435087433  0.5012344069487 1.0
C      1  0.2530916888056  0.4263797170712  0.4698591063974 1.0
C      1  0.5752342584971  0.2490538004960  0.4541873540147 1.0
C      1  0.2530852164963  0.5727388138438  0.5144391825577 1.0
C      1  0.5752262891001  0.7500843808804  0.5302546099761 1.0
C      1  0.7432581277213  0.4256202960823  0.4930666633728 1.0
C      1  0.4224449099674  0.2404270965046  0.4832006340977 1.0
C      1  0.4269338687777  0.5315515901410  0.2959095803723 1.0
C      1  0.4663724911131  0.3805163062527  0.2948734559947 1.0
C      1  0.5922257285253  0.4907672366492  0.2965262310465 1.0
C      1  0.4960204391239  0.6199258106234  0.3059012826464 1.0
C      1  0.5922536222818  0.5083142452167  0.6878516567334 1.0
C      1  0.4960648488901  0.3791257642602  0.6784912638805 1.0
C      1  0.4269295830019  0.4675844861202  0.6884797941487 1.0
C      1  0.4664073066354  0.6185979123569  0.6894667126077 1.0
C      1  0.2803937640703  0.5140495136231  0.4389463188710 1.0
C      1  0.4880526567791  0.2723081140319  0.4213260504654 1.0
C      1  0.7146216378954  0.4977378251168  0.4354593043069 1.0
C      1  0.5065563668348  0.7312166194413  0.4564990906972 1.0
C      1  0.7146090494990  0.5014929184628  0.5488708314752 1.0
C      1  0.5065956116838  0.2679102267951  0.5279053040302 1.0
C      1  0.2803396281309  0.4850529838509  0.5454007526664 1.0
C      1  0.4880314103280  0.7267420548283  0.5630695788636 1.0
C      1  0.3199505204397  0.3392160079197  0.3362937645293 1.0
C      1  0.6601574629915  0.3447081343177  0.3300181367586 1.0
C      1  0.6506523105180  0.6445777967833  0.3155249549035 1.0
C      1  0.3471253266813  0.6709428530389  0.3162627852192 1.0
C      1  0.6507554288261  0.3545480429515  0.6688221127267 1.0
C      1  0.3471562207836  0.3281954803379  0.6680707115949 1.0
C      1  0.3199930374958  0.6598947918498  0.6480422134609 1.0
C      1  0.6601340620160  0.6544129116818  0.6543389012139 1.0
C      1  0.3792664623926  0.3443895407659  0.2784677878847 1.0
C      1  0.6521803091625  0.4112284353286  0.2807481546942 1.0
C      1  0.5879623622757  0.5930387292251  0.2759185063568 1.0
C      1  0.4057108809483  0.6229859455223  0.2675277826919 1.0
C      1  0.5879988957871  0.4060482383673  0.7084190104725 1.0
C      1  0.4057357439820  0.3761749110059  0.7168204749126 1.0
C      1  0.3793163999376  0.6547678175641  0.7058845003704 1.0
C      1  0.6522288828484  0.5878027886493  0.7035782778981 1.0
C      1  0.3457694280279  0.6723342226436  0.4036429961250 1.0
C      1  0.3144812007013  0.3553120545887  0.4314919087188 1.0
C      1  0.6410650201020  0.3224206052830  0.4251562164058 1.0
C      1  0.6571340306290  0.6514179089264  0.4027343426203 1.0
C      1  0.6410513400394  0.6767359737284  0.5591953206065 1.0
C      1  0.6571825159121  0.3477549279235  0.5816175202993 1.0
C      1  0.3458343730607  0.3268286010722  0.5806740118474 1.0
C      1  0.3144544602563  0.6438326108534  0.5528567245743 1.0
C      1  0.4863061585242  0.3685390281690  0.3938844220535 1.0
C      1  0.6118075816093  0.4958744040046  0.4023784292641 1.0
C      1  0.4985534087492  0.6360781708131  0.4083561652270 1.0
C      1  0.3808881069965  0.5092366839325  0.3977344182122 1.0
C      1  0.4985979265172  0.3630432731481  0.5760389315427 1.0
C      1  0.3808589670563  0.4898380698451  0.5866238861262 1.0
C      1  0.4862929679575  0.6304541550588  0.5904484388901 1.0
C      1  0.6118209822423  0.5032643339156  0.5819732959117 1.0
C      1  0.5748244908971  0.5908041230269  0.5449603384999 1.0
C      1  0.4053787116467  0.5845393641778  0.5452057748202 1.0
C      1  0.4140243978575  0.4067499700462  0.5418519648492 1.0
C      1  0.5778931189766  0.4132521588712  0.5424845542114 1.0
C      1  0.4140043409370  0.5923572621390  0.4425177090338 1.0
C      1  0.5778421893060  0.5858174538837  0.4418888296494 1.0
C      1  0.5748365518064  0.4082641116732  0.4393838831584 1.0
C      1  0.4054262356953  0.4145416859375  0.4391384988653 1.0
C      1  0.7086512539110  0.6576135044235  0.4851694889008 1.0
C      1  0.3393108858709  0.7189481935347  0.4869361792709 1.0
C      1  0.7086707397136  0.3416233365067  0.4991497451877 1.0
C      1  0.3393099177927  0.2801602919621  0.4974196987584 1.0
C      1  0.4949880247268  0.4648749135575  0.2719581355027 1.0
C      1  0.4950324344528  0.5342291260425  0.7124603796274 1.0
END
