TITL C-63076-5318-1 -5.778 3375.00 -919.03135426 0 0 114 (C1) n - 1
REM
REM Run started: at 2020.12.03 07:31:40 in /rds/project/t2_vol4/rds-t2-cs072/BORA/CARBON/AIRSS/Generating-Clusters/Str-Search/Higher-Symm/C100-200
REM VASP from code version vasp.5.4.4.18Apr17-6-g9f103f2a35 (build Oct 11 2019 16:45:47) gamma-only
REM
REM
REM
REM
REM ./C.cell (533062f00bc710175b3da973d35f2034)
REM AIRSS Version 0.9.1 bugfix July 2018 build 013d7b7c2542+ Fri, 06 Jul 2018 19:26:36 +0100
REM compiler GCC version 4.8.5 20150623 (Red Hat 4.8.5-39)
REM options -cpp -mtune=generic -march=x86-64 -g -O0
REM seed -69794465 -988543064 -2016488997 213449713 1666705981 -96717976 -1643837770 2132946435 -1374104049 -2067171088 647458466 919031842
REM
REM C.POTCAR (d86ddea03c3ceb6dc662c8ad6801f873)
REM 
CELL 1.54180   15.00000   15.00000   15.00000   90.00000   90.00000   90.00000
LATT -1
SFAC C  
C      1  0.7438276338099  0.2288413671893  0.4876079321760 1.0
C      1  0.8403024302311  0.4325084351357  0.5068372503501 1.0
C      1  0.8175809715217  0.6470319856602  0.4930834479399 1.0
C      1  0.6840142682875  0.8056794506628  0.4935089117911 1.0
C      1  0.4621732579573  0.8500784666162  0.4835455746437 1.0
C      1  0.2676703265424  0.7548136348710  0.5206152663662 1.0
C      1  0.1654006376103  0.5682159956114  0.4888906492352 1.0
C      1  0.1827008880195  0.3510348107252  0.4923403140060 1.0
C      1  0.3316209163177  0.1827128961167  0.4888040370858 1.0
C      1  0.5505557553759  0.1474509195156  0.5085919511083 1.0
C      1  0.3363826857830  0.5808790112386  0.1510171769054 1.0
C      1  0.3831431155423  0.4648933208863  0.8544605432268 1.0
C      1  0.4293812841227  0.4429111109199  0.1526521163903 1.0
C      1  0.5017264505885  0.3923281196798  0.8458209176551 1.0
C      1  0.5600882698423  0.3466021151807  0.1932600820471 1.0
C      1  0.6472904794895  0.4606577032856  0.8228334690015 1.0
C      1  0.5927121419787  0.4991835772245  0.1693284637121 1.0
C      1  0.5723655658860  0.6064577694235  0.8695411226069 1.0
C      1  0.4954548194967  0.6023570754313  0.1651519984528 1.0
C      1  0.4313488319982  0.6105287618194  0.8586386856699 1.0
C      1  0.3762032397806  0.7165356859286  0.2233160002814 1.0
C      1  0.2824420671284  0.5824048795006  0.7775594371202 1.0
C      1  0.2666132284408  0.4634262625036  0.2061870288019 1.0
C      1  0.3586835638894  0.3208268238009  0.7596047947196 1.0
C      1  0.4946965708848  0.2844284957015  0.2278377525626 1.0
C      1  0.6269143857320  0.3066534061918  0.7659117619111 1.0
C      1  0.7139916694100  0.3905995901168  0.2302647818737 1.0
C      1  0.7114623835087  0.5204608597576  0.7839021135401 1.0
C      1  0.6583589429251  0.6593662827534  0.2241025899526 1.0
C      1  0.5192231910510  0.7235441241023  0.7533586675621 1.0
C      1  0.6591291548029  0.2051600028973  0.6301252593138 1.0
C      1  0.7995179843097  0.3435170961104  0.3695748712098 1.0
C      1  0.8201729064355  0.5515245853660  0.6331019764695 1.0
C      1  0.7449795336228  0.7270453337733  0.3585325236400 1.0
C      1  0.5650949635945  0.8272481361965  0.6142368241468 1.0
C      1  0.3435723615687  0.7900058206774  0.3737690336200 1.0
C      1  0.2046948914157  0.6409866745668  0.6356894634223 1.0
C      1  0.1666909332252  0.4537043916105  0.3587841954242 1.0
C      1  0.2591604460298  0.2608466124499  0.6198484603430 1.0
C      1  0.4563922590620  0.1679585015341  0.3683476600275 1.0
C      1  0.5514999281705  0.7511880304970  0.6768094162809 1.0
C      1  0.3439862505447  0.7629773094651  0.2850813312526 1.0
C      1  0.2272998738581  0.6091022682338  0.7215900902799 1.0
C      1  0.2312114947879  0.4765150842624  0.2857311144882 1.0
C      1  0.3059843577847  0.3157566894936  0.6887996421125 1.0
C      1  0.4556413482298  0.2383597242478  0.2994691015398 1.0
C      1  0.6570692482597  0.2488864094416  0.7142309631151 1.0
C      1  0.7746857460591  0.3684532304313  0.2825076891042 1.0
C      1  0.7578210840370  0.5182995496804  0.7040223549206 1.0
C      1  0.7035416690938  0.7050496473393  0.2761482048226 1.0
C      1  0.3941569878684  0.2902176656787  0.3640804587851 1.0
C      1  0.5261977523368  0.2789057470077  0.5981321144292 1.0
C      1  0.6481510150543  0.3288024265632  0.4084039209667 1.0
C      1  0.7218997317789  0.4555050827615  0.6331451423326 1.0
C      1  0.7017473815849  0.5855202052465  0.4036543627501 1.0
C      1  0.6009400383213  0.6942096417750  0.6038124123278 1.0
C      1  0.4757881727772  0.7094004714740  0.4025366248876 1.0
C      1  0.3565132359248  0.6572782851224  0.6068358852804 1.0
C      1  0.2797583057391  0.5324233852325  0.3607235635671 1.0
C      1  0.3002459186134  0.3918860815830  0.6181328623877 1.0
C      1  0.7249272109273  0.2024167952573  0.5646502332016 1.0
C      1  0.8426345659433  0.3935315740012  0.4326311775393 1.0
C      1  0.8273682825354  0.6219228715057  0.5728249267751 1.0
C      1  0.7173126435740  0.7926642698850  0.4183386462494 1.0
C      1  0.5027964523624  0.8634990769440  0.5547163525333 1.0
C      1  0.2828008924640  0.7839394927827  0.4437422184720 1.0
C      1  0.1616616848576  0.5971539402676  0.5675701048431 1.0
C      1  0.1624254558372  0.3818600480554  0.4168997766712 1.0
C      1  0.2947355707783  0.1978871683275  0.5625135429646 1.0
C      1  0.5188450378625  0.1390914270381  0.4322323451450 1.0
C      1  0.4678856143688  0.3632926087024  0.1813678949806 1.0
C      1  0.5938597851675  0.3807799353657  0.8156756847126 1.0
C      1  0.6313616281139  0.4089128265471  0.1913364410607 1.0
C      1  0.6444078886601  0.5532370191140  0.8440616786590 1.0
C      1  0.5975660654082  0.6007057268095  0.1826964007145 1.0
C      1  0.5071512917179  0.6685753371627  0.8221130493996 1.0
C      1  0.4030912349150  0.6425652107402  0.1731587018186 1.0
C      1  0.3553921006495  0.5545008069305  0.8299586762822 1.0
C      1  0.3424881209952  0.4875392521303  0.1590281957842 1.0
C      1  0.4046378868590  0.3757209332732  0.8129885722935 1.0
C      1  0.6100755194206  0.5934093780314  0.4124659603955 1.0
C      1  0.5304176080265  0.6372079862651  0.5496846093013 1.0
C      1  0.4426557978415  0.6237559672459  0.3947808356240 1.0
C      1  0.3785471578539  0.5653250548302  0.6158010279848 1.0
C      1  0.3548986013484  0.4742303049092  0.3896694853261 1.0
C      1  0.3929180459666  0.3997158762063  0.5820081422927 1.0
C      1  0.4673165563282  0.3484087820734  0.4038372059505 1.0
C      1  0.5617717155374  0.3658982057625  0.6073295203488 1.0
C      1  0.6265238527856  0.4199209671507  0.4023369334957 1.0
C      1  0.6414341224153  0.5153373935317  0.6043594481588 1.0
C      1  0.5298738247389  0.6381754738719  0.4463305145717 1.0
C      1  0.4420320565828  0.6267657035833  0.5876315767382 1.0
C      1  0.3747434077717  0.5639139961439  0.3835394681175 1.0
C      1  0.3547171088014  0.4764090400875  0.6110833666234 1.0
C      1  0.3895516816647  0.3902334035131  0.3806141155517 1.0
C      1  0.4719124193789  0.3531743520678  0.5818071612286 1.0
C      1  0.5577024462478  0.3562276126388  0.4089169485922 1.0
C      1  0.6301365476583  0.4244132653280  0.6129263589434 1.0
C      1  0.6474664819792  0.5082613521242  0.4029121046795 1.0
C      1  0.6080486755328  0.5977813975577  0.5964437637616 1.0
C      1  0.3769645132689  0.2022933239567  0.4129573706263 1.0
C      1  0.5708443811107  0.1967102345843  0.5862012585975 1.0
C      1  0.7314895543408  0.2843373347898  0.4147312384753 1.0
C      1  0.8066673797001  0.4692661319840  0.5810510839190 1.0
C      1  0.7743734524038  0.6495120577056  0.4106164237374 1.0
C      1  0.6358878181576  0.7832365944511  0.5674642236326 1.0
C      1  0.4354380799270  0.7929180073448  0.4145593087863 1.0
C      1  0.2744662615236  0.7018778589416  0.5963489108640 1.0
C      1  0.1939441196269  0.5313311692538  0.4124452398511 1.0
C      1  0.2293948832454  0.3385771398042  0.5689607595448 1.0
C      1  0.4996257583315  0.5078213187942  0.1427415473796 1.0
C      1  0.4967448346713  0.5577548584367  0.9026203275516 1.0
C      1  0.4710182463952  0.4679903634122  0.8937660505590 1.0
C      1  0.5328923273761  0.5472132445088  0.2481207267463 1.0
END
