TITL C-6315-4169-26 -2.771 3375.00 -459.21896420 0 0 58 (C1) n - 1
REM
REM Run started: at 2020.12.17 21:31:30 in /gpfs/home/chem/mssmkc/CARBON/AIRSS/Generating-Clusters/Str-Search/Higher-Symm/C4-100
REM VASP from code version vasp.5.4.4.18Apr17-6-g9f103f2a35 (build Oct 11 2019 16:45:47) gamma-only
REM
REM
REM
REM
REM ./C.cell (6bd13a13d554368a30d355f37ece5b26)
REM AIRSS Version 0.9.1 bugfix July 2018 build 013d7b7c2542+ Fri, 06 Jul 2018 19:26:36 +0100
REM compiler GCC version 6.3.0
REM options -cpp -iprefix /gpfs/warwick/csc/orac/software/Core/GCCcore/6.3.0/bin/../lib/gcc/x86_64-pc-linux-gnu/6.3.0/ -mtune=generic -march=x86-64 -g -O0
REM seed -514082502 839924249 -233514516 1631809272 -393879203 993970011 -1309508760 1313009239 223928620 -1919286321 -72423963 2113421263
REM
REM C.POTCAR (d86ddea03c3ceb6dc662c8ad6801f873)
REM 
CELL 1.54180   15.00000   15.00000   15.00000   90.00000   90.00000   90.00000
LATT -1
SFAC C  
C      1  0.3457515929793  0.3582555274663  0.6339195782096 1.0
C      1  0.3960728287396  0.6706969517213  0.6595494896726 1.0
C      1  0.3669352556071  0.5662050748411  0.2833248262198 1.0
C      1  0.3628583532181  0.4544261183372  0.2811125312584 1.0
C      1  0.4317677271853  0.7129017177913  0.4976168044429 1.0
C      1  0.4318770513215  0.3055843478012  0.4947557796092 1.0
C      1  0.3474228217448  0.4430912727550  0.6640218852106 1.0
C      1  0.4048602033426  0.5734104968469  0.6652295987927 1.0
C      1  0.7962509306483  0.4062438735208  0.4304323442737 1.0
C      1  0.7977890501522  0.5790335016437  0.4476818452293 1.0
C      1  0.6928868935593  0.6902851456654  0.5158341165161 1.0
C      1  0.6922991892680  0.3203493004575  0.5278384416414 1.0
C      1  0.3016853658933  0.3607026871173  0.4688884332519 1.0
C      1  0.2964699415620  0.6040297719691  0.4631295948326 1.0
C      1  0.4049975612084  0.7108561336671  0.5875409322180 1.0
C      1  0.3509493778003  0.3260174912252  0.5502760328226 1.0
C      1  0.5600741400183  0.6701070375023  0.3277267275755 1.0
C      1  0.5582309827185  0.3400999656598  0.3368871603276 1.0
C      1  0.7559837841935  0.3426809236004  0.4664438155692 1.0
C      1  0.7599793398597  0.6545768566661  0.4675469216126 1.0
C      1  0.5244619653053  0.5788895666521  0.3339613023535 1.0
C      1  0.5212967625608  0.4311453180370  0.3327842190825 1.0
C      1  0.6039133938258  0.3060300840415  0.5537163488835 1.0
C      1  0.6049701460080  0.7137528060381  0.5377950685706 1.0
C      1  0.4980071963255  0.4618234494668  0.5567437278087 1.0
C      1  0.5055125425136  0.5665998730231  0.5390713015709 1.0
C      1  0.5283077123269  0.7333302112869  0.4812159661265 1.0
C      1  0.5265704559125  0.2881361156423  0.4963049450120 1.0
C      1  0.5569318538224  0.2960140034178  0.4068673433841 1.0
C      1  0.5550486162742  0.7207882218670  0.3931256074173 1.0
C      1  0.4209434088283  0.5916660608677  0.3676225407845 1.0
C      1  0.4175961497750  0.4207044062011  0.3623880086448 1.0
C      1  0.3843828877924  0.3466636717310  0.4199993911522 1.0
C      1  0.3782843663330  0.6547915487136  0.4399131656688 1.0
C      1  0.6800595325169  0.5835609035281  0.6467554085720 1.0
C      1  0.6869092182287  0.4435283101056  0.6506888714917 1.0
C      1  0.6553034884432  0.6603194297591  0.6004675419346 1.0
C      1  0.6604659831272  0.3641517752111  0.6071141930070 1.0
C      1  0.5584666989280  0.5048422090200  0.4863104624906 1.0
C      1  0.5113664931229  0.5058384040490  0.2622951216037 1.0
C      1  0.3507791930013  0.5253556579416  0.5956659518841 1.0
C      1  0.4988925620492  0.5406586939958  0.6334100948775 1.0
C      1  0.7955170570746  0.5211963357557  0.5370682751511 1.0
C      1  0.3955550803943  0.4945494001931  0.7308371408228 1.0
C      1  0.4235891945420  0.5093817452437  0.2289182991491 1.0
C      1  0.4199503642143  0.5095624849775  0.5187597657342 1.0
C      1  0.7425975480010  0.5150856081318  0.6073721571067 1.0
C      1  0.5440495799077  0.5121756865135  0.7183720273670 1.0
C      1  0.6363363749268  0.5129700006314  0.6955623518059 1.0
C      1  0.8272750245324  0.4912212450682  0.4526395148988 1.0
C      1  0.2917864875861  0.5168435460747  0.4071813062091 1.0
C      1  0.2154436885684  0.4834931613253  0.5423204568158 1.0
C      1  0.3952318393873  0.5048009156663  0.4206945433565 1.0
C      1  0.4782497205016  0.4753819742239  0.7701092269157 1.0
C      1  0.2506288654808  0.4418304161000  0.4663568078187 1.0
C      1  0.2890113871578  0.5137905219632  0.3067920805800 1.0
C      1  0.5582794420750  0.5031311001887  0.3958025903029 1.0
C      1  0.2709551276082  0.5616256410917  0.5465302143583 1.0
END
