TITL C-6315-4169-249 -2.753 3375.00 -466.84222163 0 0 60 (C1) n - 1
REM
REM Run started: at 2020.12.19 13:41:15 in /gpfs/home/chem/mssmkc/CARBON/AIRSS/Generating-Clusters/Str-Search/Higher-Symm/C4-100
REM VASP from code version vasp.5.4.4.18Apr17-6-g9f103f2a35 (build Oct 11 2019 16:45:47) gamma-only
REM
REM
REM
REM
REM ./C.cell (6bd13a13d554368a30d355f37ece5b26)
REM AIRSS Version 0.9.1 bugfix July 2018 build 013d7b7c2542+ Fri, 06 Jul 2018 19:26:36 +0100
REM compiler GCC version 6.3.0
REM options -cpp -iprefix /gpfs/warwick/csc/orac/software/Core/GCCcore/6.3.0/bin/../lib/gcc/x86_64-pc-linux-gnu/6.3.0/ -mtune=generic -march=x86-64 -g -O0
REM seed 330086519 -997024041 -425238676 -102141129 -330248953 -1598085834 -1164837420 1378440337 -1866685803 567626042 1628259109 -992271237
REM
REM C.POTCAR (d86ddea03c3ceb6dc662c8ad6801f873)
REM 
CELL 1.54180   15.00000   15.00000   15.00000   90.00000   90.00000   90.00000
LATT -1
SFAC C  
C      1  0.4796747555831  0.5298189994324  0.6282626996092 1.0
C      1  0.4125790225858  0.5419879312159  0.4169143990501 1.0
C      1  0.6750302622916  0.5376827115879  0.4486721186957 1.0
C      1  0.4788514563476  0.5656403383829  0.3535478811344 1.0
C      1  0.3863331868736  0.5498842318873  0.5898923801341 1.0
C      1  0.6108189408684  0.5207892205960  0.5280162130862 1.0
C      1  0.4384121821244  0.6361199899699  0.2735017832314 1.0
C      1  0.7001462226500  0.6361024321677  0.5741903555657 1.0
C      1  0.3348143791024  0.6259091307375  0.6433566336006 1.0
C      1  0.5027197975460  0.6153846170222  0.6850248366277 1.0
C      1  0.6722976994688  0.6278077429812  0.4050648239680 1.0
C      1  0.2993037094327  0.6609644203565  0.3884211714351 1.0
C      1  0.7801985089552  0.4189028936807  0.3794553419196 1.0
C      1  0.4591187060020  0.5590337765742  0.7556090041766 1.0
C      1  0.2944433654454  0.5765079409743  0.3427342946851 1.0
C      1  0.6721775777629  0.5479361600231  0.6064925407604 1.0
C      1  0.4583937131128  0.5439870738443  0.2425801885670 1.0
C      1  0.2655862301830  0.5495119111118  0.6503401945391 1.0
C      1  0.3334443963966  0.4956463176035  0.3839676618410 1.0
C      1  0.7084456843885  0.4449012467280  0.4233848737232 1.0
C      1  0.4793897819313  0.4693342673446  0.7082333026784 1.0
C      1  0.3132968636484  0.4856090764289  0.6054116858193 1.0
C      1  0.6645358706468  0.4617185189764  0.5921928196862 1.0
C      1  0.5159991431955  0.4938420069105  0.2941559967830 1.0
C      1  0.3983931035091  0.7529538833660  0.4647136766536 1.0
C      1  0.5786210077654  0.7522099172775  0.4402901574282 1.0
C      1  0.5074936345300  0.7352842023928  0.5816232665520 1.0
C      1  0.4117969503765  0.7503456527300  0.5624401298618 1.0
C      1  0.5926967130810  0.7620884964997  0.5319056758373 1.0
C      1  0.4830274651418  0.7226034183905  0.4223410639879 1.0
C      1  0.5108804335109  0.6622713465222  0.3462905842157 1.0
C      1  0.6387355390011  0.7044088837080  0.5984325782658 1.0
C      1  0.3281983603960  0.7001803763685  0.5770287917775 1.0
C      1  0.5583739330840  0.6894076765521  0.6513200219698 1.0
C      1  0.6080614976786  0.6872847299155  0.3734690068509 1.0
C      1  0.3129145031391  0.7062240711570  0.4688943087978 1.0
C      1  0.3287756888786  0.3161950605580  0.4325012313395 1.0
C      1  0.6068329157366  0.2957720453753  0.4082425173374 1.0
C      1  0.5380107523087  0.2958434705453  0.6835808324303 1.0
C      1  0.2991825363409  0.3232853731902  0.5261667950010 1.0
C      1  0.6028416669689  0.2831061888966  0.6122928819480 1.0
C      1  0.5619256405755  0.3212354575157  0.3251433356735 1.0
C      1  0.5167857276478  0.3895890026637  0.6864433867582 1.0
C      1  0.3321595009505  0.4096204633232  0.4091849446039 1.0
C      1  0.6442863186976  0.3752420319188  0.4614831581177 1.0
C      1  0.5436082399550  0.4136023766294  0.3326837923464 1.0
C      1  0.3197058841435  0.4016657711045  0.5656445420373 1.0
C      1  0.6366355297968  0.3715613401612  0.5662667203479 1.0
C      1  0.3870470617296  0.3877759035826  0.4936683990677 1.0
C      1  0.5485840779848  0.3899991906260  0.4282812811856 1.0
C      1  0.5350493081540  0.3665573470694  0.5903140665784 1.0
C      1  0.7248810775361  0.6193650676694  0.4817219723886 1.0
C      1  0.3443751930653  0.6475764834316  0.3022622433128 1.0
C      1  0.4066470075576  0.6271747238771  0.7182456634056 1.0
C      1  0.5133546633672  0.5075063976062  0.5369542745136 1.0
C      1  0.4862941087173  0.4009178788136  0.5082177475587 1.0
C      1  0.6095566342004  0.2106053842713  0.5487474645262 1.0
C      1  0.4687953235986  0.6701257562964  0.5075365615914 1.0
C      1  0.4373720902670  0.5741746969008  0.5047507988921 1.0
C      1  0.6035139540657  0.2206632765559  0.4661923255229 1.0
END
