TITL C-6315-4169-199 -2.422 3375.00 -409.16841798 0 0 54 (D2d) n - 1
REM
REM Run started: at 2020.12.19 05:51:07 in /gpfs/home/chem/mssmkc/CARBON/AIRSS/Generating-Clusters/Str-Search/Higher-Symm/C4-100
REM VASP from code version vasp.5.4.4.18Apr17-6-g9f103f2a35 (build Oct 11 2019 16:45:47) gamma-only
REM
REM
REM
REM
REM ./C.cell (6bd13a13d554368a30d355f37ece5b26)
REM AIRSS Version 0.9.1 bugfix July 2018 build 013d7b7c2542+ Fri, 06 Jul 2018 19:26:36 +0100
REM compiler GCC version 6.3.0
REM options -cpp -iprefix /gpfs/warwick/csc/orac/software/Core/GCCcore/6.3.0/bin/../lib/gcc/x86_64-pc-linux-gnu/6.3.0/ -mtune=generic -march=x86-64 -g -O0
REM seed -521440006 1210041645 1173531139 -204378187 -124005591 -233384229 692745185 -725782089 1960162649 -439824490 -1115016847 -746187028
REM
REM C.POTCAR (d86ddea03c3ceb6dc662c8ad6801f873)
REM 
CELL 1.54180   15.00000   15.00000   15.00000   90.00000   90.00000   90.00000
LATT -1
SFAC C  
C      1  0.6734996780528  0.5308984650280  0.3999855682457 1.0
C      1  0.3265003422160  0.4691015492906  0.3999855252846 1.0
C      1  0.3264000823277  0.5309994199923  0.5961740064262 1.0
C      1  0.6735999050328  0.4690005825528  0.5961740306515 1.0
C      1  0.5308984651834  0.6734996783347  0.3999855682305 1.0
C      1  0.4691015494478  0.3265003422856  0.3999855249508 1.0
C      1  0.5309994199686  0.3264000821430  0.5961740064025 1.0
C      1  0.4690005828441  0.6735999053675  0.5961740309130 1.0
C      1  0.5996449371973  0.4653027687995  0.5306362785226 1.0
C      1  0.4003550666207  0.5346972200888  0.5306362887225 1.0
C      1  0.4003602949529  0.4653351439309  0.4656542818227 1.0
C      1  0.5996396998187  0.5346648535512  0.4656542935231 1.0
C      1  0.4653027689372  0.5996449375217  0.5306362787326 1.0
C      1  0.5346972197245  0.4003550664111  0.5306362888775 1.0
C      1  0.4653351439663  0.4003602948062  0.4656542815596 1.0
C      1  0.5346648532662  0.5996397000174  0.4656542933479 1.0
C      1  0.5774998755677  0.6864974396255  0.5773808426064 1.0
C      1  0.4225001229871  0.3135025508971  0.5773808336396 1.0
C      1  0.4224203722205  0.6864812830070  0.4189459541875 1.0
C      1  0.5775796313015  0.3135187313615  0.4189459323430 1.0
C      1  0.6864974397399  0.5774998752937  0.5773808426089 1.0
C      1  0.3135025514222  0.4225001227786  0.5773808339710 1.0
C      1  0.6864812828433  0.4224203721465  0.4189459539097 1.0
C      1  0.3135187314835  0.5775796312692  0.4189459323375 1.0
C      1  0.6338728452705  0.4336203960231  0.6809892638164 1.0
C      1  0.3661271630573  0.5663795976534  0.6809892366500 1.0
C      1  0.3662363672019  0.4337489401371  0.3150686093229 1.0
C      1  0.6337636518220  0.5662510771344  0.3150686653180 1.0
C      1  0.4336203961021  0.6338728462408  0.6809892642692 1.0
C      1  0.5663795974946  0.3661271623065  0.6809892368907 1.0
C      1  0.4337489401344  0.3662363663010  0.3150686087125 1.0
C      1  0.5662510774509  0.6337636527950  0.3150686649891 1.0
C      1  0.4985326166028  0.4288464852904  0.2577652016844 1.0
C      1  0.5014673852970  0.5711535205372  0.2577653396221 1.0
C      1  0.5014604888871  0.4288831683556  0.7378341370673 1.0
C      1  0.4985395025671  0.5711168143579  0.7378341359609 1.0
C      1  0.4288464850964  0.4985326165014  0.2577652012136 1.0
C      1  0.5711535204572  0.5014673854664  0.2577653393329 1.0
C      1  0.4288831681855  0.5014604892319  0.7378341374800 1.0
C      1  0.5711168142589  0.4985395026457  0.7378341360172 1.0
C      1  0.3991346081121  0.3202655901763  0.4810991221588 1.0
C      1  0.6008653870126  0.6797344067193  0.4810991335491 1.0
C      1  0.6009109383879  0.3202213355434  0.5152449324513 1.0
C      1  0.3990890578910  0.6797786565793  0.5152449507628 1.0
C      1  0.3202655902566  0.3991346079776  0.4810991222698 1.0
C      1  0.6797344064669  0.6008653867714  0.4810991335374 1.0
C      1  0.3202213356030  0.6009109384253  0.5152449325340 1.0
C      1  0.6797786561399  0.3990890578940  0.5152449506655 1.0
C      1  0.3660205687854  0.3660205684990  0.6318778780505 1.0
C      1  0.3658970720153  0.6341029526121  0.3642671287260 1.0
C      1  0.6341029528595  0.3658970718470  0.3642671284512 1.0
C      1  0.6339794325136  0.6339794320312  0.6318779076536 1.0
C      1  0.4999999830726  0.4999999832009  0.6631053540432 1.0
C      1  0.4999999738755  0.4999999742450  0.3325030749825 1.0
END
