TITL C-6315-4169-95 -0.675 3375.00 -100.81742279 0 0 14 (C3v) n - 1
REM
REM Run started: at 2020.12.18 12:19:17 in /gpfs/home/chem/mssmkc/CARBON/AIRSS/Generating-Clusters/Str-Search/Higher-Symm/C4-100
REM VASP from code version vasp.5.4.4.18Apr17-6-g9f103f2a35 (build Oct 11 2019 16:45:47) gamma-only
REM
REM
REM
REM
REM ./C.cell (6bd13a13d554368a30d355f37ece5b26)
REM AIRSS Version 0.9.1 bugfix July 2018 build 013d7b7c2542+ Fri, 06 Jul 2018 19:26:36 +0100
REM compiler GCC version 6.3.0
REM options -cpp -iprefix /gpfs/warwick/csc/orac/software/Core/GCCcore/6.3.0/bin/../lib/gcc/x86_64-pc-linux-gnu/6.3.0/ -mtune=generic -march=x86-64 -g -O0
REM seed -235119590 2070658332 48401365 1778363882 478783113 -851303757 414921475 -1980937652 -170239574 -1033519475 -1350860182 628173981
REM
REM C.POTCAR (d86ddea03c3ceb6dc662c8ad6801f873)
REM 
CELL 1.54180   15.00000   15.00000   15.00000   90.00000   90.00000   90.00000
LATT -1
SFAC C  
C      1  0.5581205401625  0.6532401689565  0.5216897691679 1.0
C      1  0.4625055516178  0.6531094479060  0.5338825782743 1.0
C      1  0.4999330908870  0.6533254865548  0.4441625296211 1.0
C      1  0.4187998559807  0.5765490770878  0.5681403218345 1.0
C      1  0.4931377620739  0.5761150116561  0.3897703657447 1.0
C      1  0.6094652213970  0.5769739988036  0.5435685919755 1.0
C      1  0.4355371058814  0.4867707180481  0.5555424450752 1.0
C      1  0.4957048546028  0.4863769296002  0.4104437561262 1.0
C      1  0.5903406563126  0.4871477511066  0.5351915973479 1.0
C      1  0.3635206171894  0.5112159053562  0.6115381510177 1.0
C      1  0.4838153768387  0.5109961220663  0.3199994178693 1.0
C      1  0.6744806277293  0.5117591028196  0.5702757000221 1.0
C      1  0.5070999499556  0.4391726899453  0.5003224442008 1.0
C      1  0.5061915893712  0.3411727900929  0.4995537317227 1.0
END
