TITL C-6315-4169-152 -0.202 3375.00 -25.93629794 0 0 4 (D(inf)h) n - 1
REM
REM Run started: at 2020.12.18 22:43:13 in /gpfs/home/chem/mssmkc/CARBON/AIRSS/Generating-Clusters/Str-Search/Higher-Symm/C4-100
REM VASP from code version vasp.5.4.4.18Apr17-6-g9f103f2a35 (build Oct 11 2019 16:45:47) gamma-only
REM
REM
REM
REM
REM ./C.cell (6bd13a13d554368a30d355f37ece5b26)
REM AIRSS Version 0.9.1 bugfix July 2018 build 013d7b7c2542+ Fri, 06 Jul 2018 19:26:36 +0100
REM compiler GCC version 6.3.0
REM options -cpp -iprefix /gpfs/warwick/csc/orac/software/Core/GCCcore/6.3.0/bin/../lib/gcc/x86_64-pc-linux-gnu/6.3.0/ -mtune=generic -march=x86-64 -g -O0
REM seed 1058665722 -1911937197 -1643400957 -1809996702 417871521 -1400155201 943563699 1766325148 724358466 -1606154475 -312336187 -230066328
REM
REM C.POTCAR (d86ddea03c3ceb6dc662c8ad6801f873)
REM 
CELL 1.54180   15.00000   15.00000   15.00000   90.00000   90.00000   90.00000
LATT -1
SFAC C  
C      1  0.3692531277930  0.4833013350838  0.5000611764836 1.0
C      1  0.4567868343835  0.4952236546397  0.4986049021528 1.0
C      1  0.5433234737083  0.5043337582840  0.4987454301927 1.0
C      1  0.6306365641152  0.5171412519925  0.5025883911709 1.0
END
