TITL C-6315-4169-137 -3.842 3375.00 -655.88920527 0 0 81 (C1) n - 1
REM
REM Run started: at 2020.12.18 20:55:53 in /gpfs/home/chem/mssmkc/CARBON/AIRSS/Generating-Clusters/Str-Search/Higher-Symm/C4-100
REM VASP from code version vasp.5.4.4.18Apr17-6-g9f103f2a35 (build Oct 11 2019 16:45:47) gamma-only
REM
REM
REM
REM
REM ./C.cell (6bd13a13d554368a30d355f37ece5b26)
REM AIRSS Version 0.9.1 bugfix July 2018 build 013d7b7c2542+ Fri, 06 Jul 2018 19:26:36 +0100
REM compiler GCC version 6.3.0
REM options -cpp -iprefix /gpfs/warwick/csc/orac/software/Core/GCCcore/6.3.0/bin/../lib/gcc/x86_64-pc-linux-gnu/6.3.0/ -mtune=generic -march=x86-64 -g -O0
REM seed 2104423289 634696427 -25547621 1548107207 205681660 -194099700 1569228927 -1332005687 925447352 -2143441964 1454396940 -259031951
REM
REM C.POTCAR (d86ddea03c3ceb6dc662c8ad6801f873)
REM 
CELL 1.54180   15.00000   15.00000   15.00000   90.00000   90.00000   90.00000
LATT -1
SFAC C  
C      1  0.7224741583004  0.4547389992723  0.4141180856391 1.0
C      1  0.7242826889134  0.5448810918857  0.4449309158213 1.0
C      1  0.7174003878494  0.5466893211263  0.5417577378253 1.0
C      1  0.7170296710372  0.4532051026317  0.5696740143173 1.0
C      1  0.7195579029522  0.3966023167363  0.4904446585655 1.0
C      1  0.6827405059444  0.6269568580999  0.5875838810427 1.0
C      1  0.6865383159349  0.4284116766330  0.6577323791926 1.0
C      1  0.6875839956394  0.3056269419140  0.4895123609547 1.0
C      1  0.6881478308168  0.4340771805344  0.3262025103740 1.0
C      1  0.6769144389226  0.6934570852640  0.4352038620056 1.0
C      1  0.3949208211866  0.6990719411242  0.4685318543481 1.0
C      1  0.4094182846651  0.5915450224186  0.6777045681137 1.0
C      1  0.4100452171522  0.3585755340912  0.6363868911283 1.0
C      1  0.4103371493011  0.3227355325029  0.4016066248872 1.0
C      1  0.4095353470124  0.5369558474171  0.2975184560004 1.0
C      1  0.4688160292271  0.3035867383976  0.7025312684481 1.0
C      1  0.4691825912594  0.2414957034259  0.3731681844794 1.0
C      1  0.4841813054878  0.5547083268514  0.2225670206600 1.0
C      1  0.4438041570887  0.7888881013064  0.4556484577441 1.0
C      1  0.4781729242519  0.6366863721697  0.7451248869626 1.0
C      1  0.6327766795683  0.6275958371995  0.6735577708367 1.0
C      1  0.6289821271246  0.3499760095708  0.6769151688248 1.0
C      1  0.6299195388546  0.2691430264728  0.4171825733347 1.0
C      1  0.6376240986335  0.5060385263660  0.2812022558213 1.0
C      1  0.6059588174596  0.7606220145614  0.4309489578968 1.0
C      1  0.4065820560330  0.4941987064644  0.6804402352569 1.0
C      1  0.4073733439457  0.3250901623719  0.5449492689989 1.0
C      1  0.4059337280384  0.3986144614084  0.3399140958475 1.0
C      1  0.3985845327968  0.6166267250199  0.3527408115270 1.0
C      1  0.3963036333841  0.6726898222660  0.5617893959743 1.0
C      1  0.3358667891593  0.6235632560365  0.6089599142120 1.0
C      1  0.3429037546439  0.4363406511797  0.6478880204830 1.0
C      1  0.3436546991977  0.3362527942565  0.4805063728432 1.0
C      1  0.3416614046152  0.4640996646054  0.3322969391996 1.0
C      1  0.3326555456667  0.6396664871336  0.4123900079925 1.0
C      1  0.4786483302680  0.8388238389168  0.5243516723503 1.0
C      1  0.5236334136864  0.6090332774377  0.8207416976155 1.0
C      1  0.5062679442029  0.2193975609543  0.7012384159866 1.0
C      1  0.5081388320742  0.2118089846627  0.2947339661376 1.0
C      1  0.5326659802907  0.6334520401382  0.2139835480798 1.0
C      1  0.2720190364764  0.4617950996059  0.5810653879478 1.0
C      1  0.2727943487607  0.4071292056327  0.4859249589691 1.0
C      1  0.2711947700446  0.4779330561988  0.4048615651436 1.0
C      1  0.2665291045935  0.5754408973662  0.4505573859306 1.0
C      1  0.2680016436956  0.5657915222881  0.5597543245951 1.0
C      1  0.5175418254698  0.4877325238664  0.4146925908199 1.0
C      1  0.5176872369556  0.5776884783893  0.4507437762953 1.0
C      1  0.5150649171036  0.5655162353003  0.5455389281607 1.0
C      1  0.5205421531141  0.4724762817989  0.5683181854240 1.0
C      1  0.5220680544087  0.4235658413877  0.4863578556780 1.0
C      1  0.6897620895219  0.4850420183499  0.7298627286313 1.0
C      1  0.6843411075559  0.2501855463179  0.5624148369522 1.0
C      1  0.6838462300126  0.3502384481394  0.2886499526959 1.0
C      1  0.6973753382695  0.6169441958469  0.3876558065154 1.0
C      1  0.6777002687890  0.7030965782146  0.5317531265681 1.0
C      1  0.1642124617338  0.5634985318579  0.4561623098011 1.0
C      1  0.1643161682223  0.5543201442686  0.5537606747787 1.0
C      1  0.1682568477557  0.4606793913193  0.5727234728720 1.0
C      1  0.1698216274044  0.4126517824406  0.4863509100890 1.0
C      1  0.1666105652692  0.4760638336817  0.4140913741102 1.0
C      1  0.4844534811280  0.4356416604731  0.6530761348868 1.0
C      1  0.4846846459751  0.3316175934619  0.4803312811058 1.0
C      1  0.4821577968656  0.4629623672349  0.3260577551605 1.0
C      1  0.4730506327510  0.6575706420237  0.4071957350904 1.0
C      1  0.4776150687041  0.6327311142091  0.6059675494889 1.0
C      1  0.6471305858623  0.2574403924099  0.6458876240788 1.0
C      1  0.6514256649565  0.2705408240897  0.3203065486474 1.0
C      1  0.6594577130861  0.5984204573231  0.2990343685117 1.0
C      1  0.6208308066136  0.7860043544816  0.5246479051371 1.0
C      1  0.6579699344445  0.5686547977772  0.7497866618413 1.0
C      1  0.5869872316061  0.1967995829324  0.6877315384550 1.0
C      1  0.5901479982434  0.2147734647052  0.2730691620245 1.0
C      1  0.6087865177945  0.6556647829738  0.2437145932109 1.0
C      1  0.5553891528461  0.8395078887104  0.5616261745635 1.0
C      1  0.6058909531324  0.5891391720832  0.8268412567669 1.0
C      1  0.5388079658447  0.2597139163308  0.4374313838993 1.0
C      1  0.5471858933358  0.4886090291513  0.2528122572686 1.0
C      1  0.5175882871705  0.7492020727337  0.4052289779095 1.0
C      1  0.5429647368522  0.6584309457875  0.6763832837000 1.0
C      1  0.5403857488427  0.3686337221118  0.7018030301476 1.0
C      1  0.4378205162017  0.5028686658998  0.4931643183980 1.0
END
