TITL C-6315-4169-74 -3.968 3375.00 -679.58115236 0 0 83 (C1) n - 1
REM
REM Run started: at 2020.12.18 07:15:44 in /gpfs/home/chem/mssmkc/CARBON/AIRSS/Generating-Clusters/Str-Search/Higher-Symm/C4-100
REM VASP from code version vasp.5.4.4.18Apr17-6-g9f103f2a35 (build Oct 11 2019 16:45:47) gamma-only
REM
REM
REM
REM
REM ./C.cell (6bd13a13d554368a30d355f37ece5b26)
REM AIRSS Version 0.9.1 bugfix July 2018 build 013d7b7c2542+ Fri, 06 Jul 2018 19:26:36 +0100
REM compiler GCC version 6.3.0
REM options -cpp -iprefix /gpfs/warwick/csc/orac/software/Core/GCCcore/6.3.0/bin/../lib/gcc/x86_64-pc-linux-gnu/6.3.0/ -mtune=generic -march=x86-64 -g -O0
REM seed 1856290922 -1674871125 1418791000 -611533182 -697873061 42915295 -678933700 1977888384 -1275024799 1121852461 -166747552 1687995630
REM
REM C.POTCAR (d86ddea03c3ceb6dc662c8ad6801f873)
REM 
CELL 1.54180   15.00000   15.00000   15.00000   90.00000   90.00000   90.00000
LATT -1
SFAC C  
C      1  0.3250927565499  0.3735929592129  0.5663855612253 1.0
C      1  0.3945180935647  0.6781377591585  0.1778186100195 1.0
C      1  0.5399279002932  0.5781045315340  0.7560866171277 1.0
C      1  0.3383120341739  0.7314340747829  0.5120623093254 1.0
C      1  0.7502826370373  0.6275014482140  0.4511247805969 1.0
C      1  0.8172648333864  0.4189350201750  0.5326551001124 1.0
C      1  0.4542809791717  0.3476581362099  0.3884393443564 1.0
C      1  0.3902466228500  0.6032580358762  0.4420064452056 1.0
C      1  0.4576895939550  0.4091376459737  0.7497435227409 1.0
C      1  0.2553294142199  0.6157273038404  0.5247844558804 1.0
C      1  0.2935571405953  0.6832875012220  0.5820458221372 1.0
C      1  0.6476684241652  0.3951027757096  0.7090580872171 1.0
C      1  0.2915825975265  0.5903705876325  0.3087293737845 1.0
C      1  0.8475045693215  0.4921967960019  0.5024989705243 1.0
C      1  0.6899699663483  0.5566749188011  0.3282280874404 1.0
C      1  0.2365702102961  0.5213186436641  0.5310029296480 1.0
C      1  0.4253448618766  0.7665431571529  0.4907409564263 1.0
C      1  0.4132556134512  0.4352892369094  0.5441919724480 1.0
C      1  0.3328355644340  0.3155093971186  0.4839860421084 1.0
C      1  0.4932454227841  0.6478413305409  0.7154723867615 1.0
C      1  0.4168058555373  0.5201508581950  0.5787263127208 1.0
C      1  0.3612701186236  0.3326685547669  0.6525378551805 1.0
C      1  0.7168544230811  0.5918018562526  0.6193631176030 1.0
C      1  0.5146302851184  0.6957464646506  0.6326978533637 1.0
C      1  0.6868772440468  0.3220239688562  0.4259659798047 1.0
C      1  0.5293892145179  0.6446329877329  0.5398582254049 1.0
C      1  0.5694789980682  0.4667241468401  0.4479795674793 1.0
C      1  0.6188248904087  0.5083049729453  0.2872016836672 1.0
C      1  0.6027664454819  0.2875845956787  0.3889863678901 1.0
C      1  0.5463844969417  0.2291301198399  0.4401651434124 1.0
C      1  0.6161760525425  0.6135739253757  0.5210467727780 1.0
C      1  0.2788661651528  0.4204077171066  0.3705567856805 1.0
C      1  0.3729828237192  0.7420140053068  0.3285562591501 1.0
C      1  0.3823866947273  0.5624807036791  0.2791642703527 1.0
C      1  0.5533119098535  0.2227181167002  0.5341928954807 1.0
C      1  0.4997272330942  0.3246129019307  0.7203889207950 1.0
C      1  0.6248558202362  0.5145590428063  0.5161595972261 1.0
C      1  0.4232226101050  0.5885677330190  0.1967117145574 1.0
C      1  0.6358589683306  0.5582955226983  0.7529328335833 1.0
C      1  0.7465478905156  0.4933037709724  0.3760230057861 1.0
C      1  0.6385453563031  0.2473109780355  0.6616614739504 1.0
C      1  0.2602739644540  0.5165042637021  0.3591368013853 1.0
C      1  0.4874820822825  0.5157851969161  0.4317393899753 1.0
C      1  0.5652138798857  0.5273598563767  0.2192154458899 1.0
C      1  0.4407649166539  0.2804573365687  0.6556119491758 1.0
C      1  0.2157911475528  0.4892951708525  0.4416296796005 1.0
C      1  0.5172078669840  0.4801968118568  0.7719858352765 1.0
C      1  0.2644587318856  0.4526995248771  0.5963772280116 1.0
C      1  0.3100017155616  0.4743385587325  0.6790861018546 1.0
C      1  0.5504883874530  0.3511861819048  0.3427551840314 1.0
C      1  0.3904428633409  0.7367474086175  0.2373501184580 1.0
C      1  0.5368035377017  0.7389733034251  0.3733821093068 1.0
C      1  0.7020645526924  0.4157725610823  0.6344707290345 1.0
C      1  0.6407177302154  0.2467459270808  0.5685077511563 1.0
C      1  0.6068589613016  0.4322885623122  0.3521582762801 1.0
C      1  0.6130536246143  0.4652168863944  0.7613940768126 1.0
C      1  0.3469112410348  0.3595631697396  0.3974644601442 1.0
C      1  0.5934542285181  0.3128694617301  0.7087141270473 1.0
C      1  0.4590629111065  0.5777699201648  0.5093812297676 1.0
C      1  0.7117801742273  0.6445733798434  0.5353374197942 1.0
C      1  0.7546685035818  0.3633299523955  0.5707894396966 1.0
C      1  0.3661672673650  0.4051878625674  0.7129349974601 1.0
C      1  0.3022388536677  0.6785843067182  0.3520710629200 1.0
C      1  0.6967634040518  0.6067721581347  0.7058239754075 1.0
C      1  0.4931030382070  0.7371268454054  0.5566916926653 1.0
C      1  0.4262890768631  0.5590002559640  0.3671333105839 1.0
C      1  0.6818950390540  0.5006613724353  0.5885768077765 1.0
C      1  0.4585318720887  0.2556190387280  0.4258069697187 1.0
C      1  0.4017699579517  0.2495205606131  0.4999033705164 1.0
C      1  0.5013031657086  0.5483096863780  0.1689829617352 1.0
C      1  0.3998260666865  0.6304502513880  0.7100746404534 1.0
C      1  0.3072460782317  0.6608870866283  0.4482395649132 1.0
C      1  0.6109393825770  0.6993893049593  0.3710570090913 1.0
C      1  0.3284453779649  0.6489145708805  0.6616630013601 1.0
C      1  0.4468131727140  0.7628419849374  0.3961328419953 1.0
C      1  0.4637004746104  0.2357206738789  0.5747587435724 1.0
C      1  0.4740173350971  0.4203570946141  0.4644674971264 1.0
C      1  0.3621920788725  0.5541607999271  0.6591642340458 1.0
C      1  0.1882227302144  0.4030156976570  0.4086656336625 1.0
C      1  0.7995206421722  0.5422732467848  0.4399719700250 1.0
C      1  0.7010977156283  0.4088866430934  0.3832074784634 1.0
C      1  0.6865344867505  0.6405170200927  0.3736743950844 1.0
C      1  0.7056386300685  0.2958961005222  0.5165728777709 1.0
END
