TITL C-6315-4169-118 -3.252 3375.00 -552.93041248 0 0 66 (C1) n - 1
REM
REM Run started: at 2020.12.18 17:01:55 in /gpfs/home/chem/mssmkc/CARBON/AIRSS/Generating-Clusters/Str-Search/Higher-Symm/C4-100
REM VASP from code version vasp.5.4.4.18Apr17-6-g9f103f2a35 (build Oct 11 2019 16:45:47) gamma-only
REM
REM
REM
REM
REM ./C.cell (6bd13a13d554368a30d355f37ece5b26)
REM AIRSS Version 0.9.1 bugfix July 2018 build 013d7b7c2542+ Fri, 06 Jul 2018 19:26:36 +0100
REM compiler GCC version 6.3.0
REM options -cpp -iprefix /gpfs/warwick/csc/orac/software/Core/GCCcore/6.3.0/bin/../lib/gcc/x86_64-pc-linux-gnu/6.3.0/ -mtune=generic -march=x86-64 -g -O0
REM seed 1290438352 1306117303 1489987061 1434050923 1523312752 1082424630 1896299786 -1583757733 -273050931 473137449 -401116764 -1827441355
REM
REM C.POTCAR (d86ddea03c3ceb6dc662c8ad6801f873)
REM 
CELL 1.54180   15.00000   15.00000   15.00000   90.00000   90.00000   90.00000
LATT -1
SFAC C  
C      1  0.2107799618529  0.4420410266871  0.4407654334446 1.0
C      1  0.2059147904089  0.5400490209041  0.4437362602123 1.0
C      1  0.3442941655495  0.7308599349892  0.4490457253341 1.0
C      1  0.4324236555816  0.7640669614831  0.4312846095874 1.0
C      1  0.5708514957969  0.7631473102525  0.5003645762319 1.0
C      1  0.7096345559019  0.6300178925258  0.4665431800922 1.0
C      1  0.7560783346974  0.5443230165423  0.4564168581578 1.0
C      1  0.7241142539888  0.3504744122740  0.4495367731439 1.0
C      1  0.6617338729478  0.2794136433184  0.4461715564301 1.0
C      1  0.5176686053326  0.2322091389319  0.4936472778196 1.0
C      1  0.3301227641650  0.2718401921525  0.4605499314760 1.0
C      1  0.3357230120959  0.7315035928194  0.5466825911105 1.0
C      1  0.4790699801615  0.7817740491830  0.5148658982282 1.0
C      1  0.6285890678757  0.7353925338453  0.5655927451836 1.0
C      1  0.7004414127418  0.6749997984014  0.5496562857653 1.0
C      1  0.7768678690116  0.4854944291180  0.5321755179325 1.0
C      1  0.7449536313079  0.3934985888074  0.5327068810764 1.0
C      1  0.6108178493662  0.2526015661202  0.5225548413123 1.0
C      1  0.4511652316520  0.2212651748610  0.5602339339611 1.0
C      1  0.3627844549967  0.2592456752058  0.5439915831582 1.0
C      1  0.2187131668200  0.4398120636744  0.5392182808617 1.0
C      1  0.2079799050464  0.5365378512202  0.5427768062835 1.0
C      1  0.3141889778582  0.6677877816056  0.3862742540722 1.0
C      1  0.4933836310709  0.7248824968595  0.3708484985436 1.0
C      1  0.5809673236748  0.7235948620528  0.4122663557122 1.0
C      1  0.6441094230530  0.6552993497888  0.3959285228814 1.0
C      1  0.7401653753611  0.4986448383802  0.3774245937403 1.0
C      1  0.7253575802649  0.4045085013153  0.3722415828050 1.0
C      1  0.6005733993325  0.2810361240363  0.3741714272031 1.0
C      1  0.5114914720897  0.2604872130778  0.4008724920581 1.0
C      1  0.3229050150182  0.3263419988981  0.3918067097319 1.0
C      1  0.2622996434871  0.4005781493161  0.3761345872607 1.0
C      1  0.2571919001529  0.5873504541015  0.3847989119480 1.0
C      1  0.6136801236725  0.6992571350372  0.6567764016159 1.0
C      1  0.6977861623498  0.6474518002250  0.6452517980737 1.0
C      1  0.7912508962963  0.5177311455266  0.6177454254850 1.0
C      1  0.7039387048165  0.3586451097581  0.6147562927383 1.0
C      1  0.6331259460122  0.2929385742509  0.6061372193045 1.0
C      1  0.4838941236222  0.2415626599095  0.6461773133856 1.0
C      1  0.3362301882142  0.3272180807629  0.6072267582466 1.0
C      1  0.2763666748843  0.4018839350825  0.6012368759979 1.0
C      1  0.2543029218240  0.5840080222152  0.6054289778162 1.0
C      1  0.3013923156049  0.6670995561150  0.6040147015629 1.0
C      1  0.4233058752958  0.7526538690779  0.5845290718718 1.0
C      1  0.3231213656572  0.5438443752343  0.3242065913463 1.0
C      1  0.3744840477815  0.6279074888320  0.3223181819605 1.0
C      1  0.4661487264796  0.6518946347069  0.3140412762387 1.0
C      1  0.5312530636597  0.5933095551804  0.2829728712856 1.0
C      1  0.6169745349373  0.5930487885616  0.3229434159860 1.0
C      1  0.6674807380554  0.5153401682932  0.3160622863293 1.0
C      1  0.6481106683063  0.4183598327254  0.3107114648004 1.0
C      1  0.5784080714076  0.3567755235178  0.3191926581068 1.0
C      1  0.4810393256936  0.3389243596374  0.3428042216109 1.0
C      1  0.3955599717464  0.3744433826652  0.3415706961205 1.0
C      1  0.3318593613462  0.4507686040711  0.3264801165630 1.0
C      1  0.4462214274791  0.6901935509649  0.6607071805439 1.0
C      1  0.5330792207571  0.6759558266488  0.6921392872554 1.0
C      1  0.7472236142753  0.5771310513312  0.6768366166992 1.0
C      1  0.7526635208469  0.4825591529298  0.6971547916963 1.0
C      1  0.7079006286650  0.4040153268355  0.6979922379275 1.0
C      1  0.5603810626501  0.2892457846960  0.6683522012204 1.0
C      1  0.4720499848890  0.3252432199996  0.6896288149341 1.0
C      1  0.3934914705840  0.3728427132793  0.6713765996783 1.0
C      1  0.3337201125507  0.4537761809044  0.6649891922594 1.0
C      1  0.3232575968796  0.5460681833590  0.6677414532975 1.0
C      1  0.3669417740974  0.6368229649161  0.6692104252818 1.0
END
