TITL C-63076-5318-8 -6.559 3375.00 -1154.64649986 0 0 137 (C1) n - 1
REM
REM Run started: at 2020.12.03 14:17:45 in /rds/project/t2_vol4/rds-t2-cs072/BORA/CARBON/AIRSS/Generating-Clusters/Str-Search/Higher-Symm/C100-200
REM VASP from code version vasp.5.4.4.18Apr17-6-g9f103f2a35 (build Oct 11 2019 16:45:47) gamma-only
REM
REM
REM
REM
REM ./C.cell (533062f00bc710175b3da973d35f2034)
REM AIRSS Version 0.9.1 bugfix July 2018 build 013d7b7c2542+ Fri, 06 Jul 2018 19:26:36 +0100
REM compiler GCC version 4.8.5 20150623 (Red Hat 4.8.5-39)
REM options -cpp -mtune=generic -march=x86-64 -g -O0
REM seed -493131423 -1584532908 20302524 -458888564 -1938833284 -1385447347 510467906 202330770 470639257 -1392418792 -2103219027 86970777
REM
REM C.POTCAR (d86ddea03c3ceb6dc662c8ad6801f873)
REM 
CELL 1.54180   15.00000   15.00000   15.00000   90.00000   90.00000   90.00000
LATT -1
SFAC C  
C      1  0.6288366554446  0.3347039087053  0.2120001886407 1.0
C      1  0.4599717699163  0.2957998558701  0.2005676451017 1.0
C      1  0.3535797551946  0.4349409743284  0.1933402537830 1.0
C      1  0.3048600638188  0.6001267341290  0.2216437770232 1.0
C      1  0.4605758356782  0.6751588555054  0.2298507666403 1.0
C      1  0.6368095211579  0.6771758866544  0.2322474273337 1.0
C      1  0.6614728472756  0.5062454161660  0.2126496987316 1.0
C      1  0.5931774222119  0.2108410289713  0.4368324557957 1.0
C      1  0.3185754881453  0.2877557564377  0.4713975939579 1.0
C      1  0.2064075212175  0.4389039962180  0.4235700918280 1.0
C      1  0.2751354873970  0.7280859409705  0.5051884605826 1.0
C      1  0.5286535974907  0.7907532944399  0.4475657848836 1.0
C      1  0.7557248699673  0.6794363411855  0.4482558164587 1.0
C      1  0.7774592883917  0.4040758246337  0.4811946826381 1.0
C      1  0.5014016615162  0.1917439828769  0.4358920374630 1.0
C      1  0.2437890450850  0.2097887543285  0.2622650889976 1.0
C      1  0.1773086317297  0.5312155424876  0.4149594965272 1.0
C      1  0.3574071690420  0.7562657291725  0.4589327360366 1.0
C      1  0.6243248768839  0.8080390323002  0.4364235734515 1.0
C      1  0.8040264865458  0.5436096196808  0.4104619316108 1.0
C      1  0.7425947177206  0.3207777038807  0.4382006942741 1.0
C      1  0.7324286220084  0.3364984258730  0.3396348325039 1.0
C      1  0.4906943277162  0.2264091134293  0.3441721535021 1.0
C      1  0.2721478496555  0.2988091878206  0.2447088955935 1.0
C      1  0.2007809278181  0.5397314291993  0.3249478495624 1.0
C      1  0.3545112645646  0.7361349159992  0.3593006662688 1.0
C      1  0.6180895190583  0.7837791667820  0.3465050759657 1.0
C      1  0.7654648406683  0.5794037593366  0.3309315991446 1.0
C      1  0.5002061878592  0.8016600307781  0.6854445576970 1.0
C      1  0.7246182272508  0.7054323359939  0.6805297979555 1.0
C      1  0.7609030431311  0.4478403372304  0.6611084553709 1.0
C      1  0.6338866591417  0.2396401511916  0.6767927802413 1.0
C      1  0.3865386010739  0.2506797482424  0.6917106005475 1.0
C      1  0.2330263894227  0.4363123018943  0.6692277305249 1.0
C      1  0.2837238740274  0.6802125396955  0.6723513467905 1.0
C      1  0.5477674982916  0.3106803950771  0.1703739806849 1.0
C      1  0.4326888408019  0.3858284167197  0.1711625000725 1.0
C      1  0.3543792529453  0.5296479164826  0.1880836168508 1.0
C      1  0.3933869511538  0.6165224399725  0.2011722961533 1.0
C      1  0.5497313808750  0.6543757766268  0.2076002546316 1.0
C      1  0.6223781336003  0.5918718393155  0.1995974201287 1.0
C      1  0.6156407189127  0.4286373272936  0.1833010236524 1.0
C      1  0.6007792023370  0.4715325629937  0.6343360476902 1.0
C      1  0.5578227672923  0.4015716258695  0.5841499002021 1.0
C      1  0.4669445804087  0.4040834512387  0.6133971769043 1.0
C      1  0.4555709215879  0.4526332334861  0.6995530268608 1.0
C      1  0.4347324837934  0.5285131794785  0.6324590576961 1.0
C      1  0.5240238613222  0.5706508780564  0.6371648836526 1.0
C      1  0.6096203922052  0.5558781570562  0.5840341066431 1.0
C      1  0.7910333025780  0.6006268352878  0.5878608601787 1.0
C      1  0.7548338184703  0.3030799344376  0.5916788309608 1.0
C      1  0.5083099323607  0.1893974467389  0.6006853057092 1.0
C      1  0.2549914470400  0.2861449290325  0.6118951159308 1.0
C      1  0.2038577069727  0.5587058646303  0.5762903573146 1.0
C      1  0.3565331095809  0.8032554182537  0.6078650450346 1.0
C      1  0.6314880539826  0.8165214599473  0.5985153317672 1.0
C      1  0.8118061687437  0.4536780086271  0.4045759118328 1.0
C      1  0.6485684989228  0.2077484392834  0.5130117819256 1.0
C      1  0.3671961084811  0.2219622305363  0.5280521939028 1.0
C      1  0.1971115700425  0.3980002125212  0.5109711748572 1.0
C      1  0.2306506681625  0.6726627535112  0.4478245538866 1.0
C      1  0.4856295976315  0.8368778134152  0.5227898713107 1.0
C      1  0.7481531930230  0.7404395796481  0.5191924274364 1.0
C      1  0.4248413881377  0.6006148441207  0.8551123389445 1.0
C      1  0.4909187967819  0.6620218445409  0.8293190559046 1.0
C      1  0.5975982058958  0.5273658140568  0.7943233971647 1.0
C      1  0.6096717331426  0.4485362655800  0.8448719846384 1.0
C      1  0.5291483882768  0.3932211337616  0.8535500460747 1.0
C      1  0.4423063419295  0.4266162120925  0.8494537005774 1.0
C      1  0.3939444939721  0.5122422712993  0.8539984668806 1.0
C      1  0.7377300450638  0.5030244515686  0.2746032303895 1.0
C      1  0.6564783432726  0.3024572588804  0.2962197812849 1.0
C      1  0.4292781371736  0.2420208973204  0.2750183742243 1.0
C      1  0.2748730170914  0.3923408623670  0.2359103470849 1.0
C      1  0.2468203848563  0.6155917441943  0.2933672361169 1.0
C      1  0.4404626005622  0.7421379838013  0.3036054193645 1.0
C      1  0.6772793599012  0.7225703620359  0.3029738933896 1.0
C      1  0.6035894185040  0.5466956905778  0.4289582910105 1.0
C      1  0.6092783329860  0.4512011882544  0.4115536243843 1.0
C      1  0.5426821380083  0.3753651308143  0.4054989019719 1.0
C      1  0.4443466164340  0.4056105135403  0.4085994573497 1.0
C      1  0.3875491893547  0.4920852000770  0.3839701213326 1.0
C      1  0.4348034211116  0.5719572532212  0.4241825143601 1.0
C      1  0.5304509353212  0.6018714570453  0.4176196709694 1.0
C      1  0.7673120728739  0.5888355602326  0.4902121892244 1.0
C      1  0.7288538606291  0.2580431212204  0.5119676768913 1.0
C      1  0.4554776708901  0.1895557184873  0.5196195630342 1.0
C      1  0.2380115003768  0.3148490026987  0.5243731215158 1.0
C      1  0.1923430428427  0.5930122402911  0.4845309571557 1.0
C      1  0.3961288318141  0.8220814850915  0.5242419137965 1.0
C      1  0.6775170540961  0.8045572214408  0.5167854226631 1.0
C      1  0.2650444138022  0.5135603364931  0.7179707698010 1.0
C      1  0.3559627772835  0.7124053731065  0.7313040316672 1.0
C      1  0.5768984929673  0.7580817739669  0.7326992456993 1.0
C      1  0.7178256478208  0.6184237482426  0.7242565106260 1.0
C      1  0.7172755381883  0.3791973791066  0.7228595433692 1.0
C      1  0.5578478578125  0.2592794178089  0.7345721781432 1.0
C      1  0.3428743479923  0.3264576256830  0.7321075982464 1.0
C      1  0.6597084272697  0.3787495156462  0.7988200929668 1.0
C      1  0.5762311310592  0.3222285924180  0.8015677924835 1.0
C      1  0.3861333990953  0.4074260063603  0.7679369808019 1.0
C      1  0.3276820660436  0.4888784681001  0.7863527837523 1.0
C      1  0.4013021411640  0.6750010248672  0.8028987814406 1.0
C      1  0.5764033624741  0.6833512803559  0.7914299584701 1.0
C      1  0.6437959941615  0.6119656158004  0.7819476633410 1.0
C      1  0.6757102137549  0.3994887968220  0.4622394257830 1.0
C      1  0.5874439002020  0.3822128701649  0.4969766651262 1.0
C      1  0.3542671336551  0.3546286615966  0.4172481858875 1.0
C      1  0.3026681805204  0.4355205341744  0.3876014400350 1.0
C      1  0.4181520615951  0.6677694320384  0.4645453432655 1.0
C      1  0.5078193969876  0.6887306635254  0.4564828948374 1.0
C      1  0.6611455402266  0.5716360577184  0.5032102451767 1.0
C      1  0.5367200322121  0.8359706871648  0.6031776036013 1.0
C      1  0.7718362158771  0.6941044307454  0.6000355967134 1.0
C      1  0.7835506575909  0.3941258899178  0.5810327355658 1.0
C      1  0.6037597859308  0.1953530104774  0.5969790848376 1.0
C      1  0.3320135333649  0.2299830230089  0.6141283550284 1.0
C      1  0.1969215172748  0.4612003478917  0.5842740403191 1.0
C      1  0.2844205455396  0.7412569481597  0.5981050155931 1.0
C      1  0.2716589562483  0.6815107609714  0.3573761758100 1.0
C      1  0.5155819048357  0.7829869721453  0.3454252964874 1.0
C      1  0.7384608064642  0.6704522078796  0.3538726499126 1.0
C      1  0.7725350199069  0.4232622536249  0.3212685303847 1.0
C      1  0.5812950096273  0.2733405822666  0.3571034338471 1.0
C      1  0.3347780236414  0.2332992891487  0.2693147487483 1.0
C      1  0.2321437033807  0.4420195096841  0.3136955702870 1.0
C      1  0.6549243273444  0.7692266187721  0.6799461714816 1.0
C      1  0.7644936937692  0.5479503633594  0.6643127636676 1.0
C      1  0.7095923149234  0.2952190247777  0.6745077283521 1.0
C      1  0.4783518205046  0.2276653720680  0.6859097205672 1.0
C      1  0.2623670167954  0.3473767749918  0.6840083333999 1.0
C      1  0.2456218610962  0.5919844351537  0.6606801954207 1.0
C      1  0.4064421322290  0.7835689716501  0.6857668445021 1.0
C      1  0.4154868740606  0.4684534352791  0.5622429772478 1.0
C      1  0.4286431133755  0.4810607505336  0.4736010350254 1.0
C      1  0.5447892370889  0.5039182865178  0.7130363096929 1.0
C      1  0.5270163447959  0.4043122032563  0.1467823575883 1.0
END
