TITL C-63790-7496-7 -6.13 3375.00 -1115.24277413 0 0 132 (D2d) n - 1
REM
REM Run started: at 2020.11.23 02:11:10 in /rds/project/t2_vol4/rds-t2-cs072/BORA/CARBON/AIRSS/Generating-Clusters/Str-Search/Higher-Symm
REM VASP from code version vasp.5.4.4.18Apr17-6-g9f103f2a35 (build Oct 11 2019 16:45:47) gamma-only
REM
REM
REM
REM
REM ./C.cell (e5ae0387ce4d49c7c0135a1433873289)
REM AIRSS Version 0.9.1 bugfix July 2018 build 013d7b7c2542+ Fri, 06 Jul 2018 19:26:36 +0100
REM compiler GCC version 4.8.5 20150623 (Red Hat 4.8.5-39)
REM options -cpp -mtune=generic -march=x86-64 -g -O0
REM seed -1032408999 -1407927746 -203867055 -518656078 -1669186398 -1367057779 209429222 -698113425 24977851 -691705748 -802140091 1561834835
REM
REM C.POTCAR (d86ddea03c3ceb6dc662c8ad6801f873)
REM 
CELL 1.54180   15.00000   15.00000   15.00000   90.00000   90.00000   90.00000
LATT -1
SFAC C  
C      1  0.2617097824564  0.2812457658107  0.6072659108078 1.0
C      1  0.7382902297594  0.2812457556620  0.3927341248497 1.0
C      1  0.2617097804778  0.7187542369751  0.3927340582036 1.0
C      1  0.7382902316470  0.7187542472213  0.6072659062850 1.0
C      1  0.6072659255860  0.2812457513774  0.2617098026857 1.0
C      1  0.3927340763234  0.2812457527196  0.7382902413411 1.0
C      1  0.3927340923172  0.7187542281170  0.2617097572347 1.0
C      1  0.6072659096024  0.7187542294044  0.7382901987080 1.0
C      1  0.3535226845835  0.4540088121668  0.5790416359798 1.0
C      1  0.6464773457440  0.4540088116039  0.4209583828239 1.0
C      1  0.3535226894929  0.5459911863974  0.4209583530389 1.0
C      1  0.6464773405578  0.5459911876272  0.5790416276917 1.0
C      1  0.5790416353563  0.4540088174629  0.3535227037535 1.0
C      1  0.4209583801580  0.4540088170518  0.6464773496393 1.0
C      1  0.4209583773572  0.5459911825114  0.3535226268747 1.0
C      1  0.5790416392123  0.5459911819450  0.6464773193856 1.0
C      1  0.3956792204945  0.2757862350483  0.3279533104344 1.0
C      1  0.6043207653865  0.2757862328523  0.6720467093037 1.0
C      1  0.3956792207904  0.7242137696396  0.6720466745389 1.0
C      1  0.6043207649921  0.7242137721558  0.3279533056656 1.0
C      1  0.3279533080912  0.2757862360237  0.3956792290396 1.0
C      1  0.6720466828069  0.2757862310708  0.6043207962252 1.0
C      1  0.6720466818536  0.7242137683824  0.3956792190458 1.0
C      1  0.3279533087709  0.7242137632535  0.6043207556784 1.0
C      1  0.5385779961173  0.4699145531036  0.8183961663665 1.0
C      1  0.4614219897798  0.4699145341287  0.1816038246175 1.0
C      1  0.5385780082657  0.5300854420816  0.1816038262650 1.0
C      1  0.4614219775059  0.5300854612246  0.8183961826484 1.0
C      1  0.8183961778476  0.4699145534605  0.5385780094632 1.0
C      1  0.1816038422375  0.4699145545508  0.4614219951737 1.0
C      1  0.1816038392595  0.5300854529697  0.5385780148346 1.0
C      1  0.8183961806302  0.5300854541765  0.4614219806261 1.0
C      1  0.6405820519854  0.5482431821816  0.4262720256955 1.0
C      1  0.3594179781409  0.5482432049688  0.5737279884702 1.0
C      1  0.6405820572751  0.4517568185046  0.5737279820989 1.0
C      1  0.3594179731248  0.4517567961566  0.4262720035088 1.0
C      1  0.4262720186052  0.5482432069566  0.6405820724091 1.0
C      1  0.5737279983536  0.5482431845476  0.3594179849062 1.0
C      1  0.5737279959788  0.4517568158931  0.6405820109317 1.0
C      1  0.4262720205942  0.4517567944309  0.3594179317563 1.0
C      1  0.2548221158641  0.3443667017650  0.3903278993423 1.0
C      1  0.7451778859193  0.3443666931002  0.6096721141605 1.0
C      1  0.2548221187106  0.6556333006371  0.6096720876812 1.0
C      1  0.7451778832245  0.6556333095738  0.3903278987132 1.0
C      1  0.3903278860317  0.3443666810582  0.2548221029366 1.0
C      1  0.6096720908800  0.3443666856513  0.7451779069647 1.0
C      1  0.6096720879817  0.6556333212630  0.2548220958523 1.0
C      1  0.3903278890579  0.6556333256721  0.7451778939017 1.0
C      1  0.4427997555861  0.3452970562745  0.7948639376909 1.0
C      1  0.5572002316957  0.3452970524927  0.2051361189594 1.0
C      1  0.4427997581843  0.6547029393539  0.2051360228483 1.0
C      1  0.5572002288684  0.6547029428588  0.7948639203687 1.0
C      1  0.7948639349121  0.3452970575220  0.4427997874091 1.0
C      1  0.2051360714520  0.3452970653800  0.5572002399315 1.0
C      1  0.2051360732817  0.6547029445575  0.4427997521080 1.0
C      1  0.7948639330391  0.6547029525209  0.5572002206529 1.0
C      1  0.2017547302415  0.5943998510210  0.3639604208564 1.0
C      1  0.7982452668094  0.5943998584026  0.6360395610155 1.0
C      1  0.2017547347371  0.4056001549193  0.6360395682895 1.0
C      1  0.7982452622629  0.4056001475427  0.3639604498528 1.0
C      1  0.3639604308511  0.5943998396526  0.2017547055413 1.0
C      1  0.6360395596865  0.5943998473398  0.7982452540214 1.0
C      1  0.6360395641297  0.4056001468485  0.2017547786947 1.0
C      1  0.3639604264846  0.4056001546910  0.7982452619009 1.0
C      1  0.4891363331237  0.2411814491187  0.3773970332915 1.0
C      1  0.5108636716378  0.2411814532144  0.6226029799807 1.0
C      1  0.4891363225063  0.7588185572808  0.6226029594121 1.0
C      1  0.5108636824127  0.7588185534674  0.3773970272739 1.0
C      1  0.3773970333199  0.2411814484492  0.4891363227199 1.0
C      1  0.6226029715362  0.2411814454477  0.5108637004981 1.0
C      1  0.6226029737192  0.7588185482544  0.4891363153674 1.0
C      1  0.3773970310008  0.7588185457845  0.5108636617099 1.0
C      1  0.4960523495034  0.5941866159758  0.3678227088953 1.0
C      1  0.5039476437043  0.5941866352826  0.6321772850307 1.0
C      1  0.4960523491588  0.4058133907270  0.6321772628985 1.0
C      1  0.5039476452239  0.4058133716540  0.3678227431390 1.0
C      1  0.3678227431875  0.5941866031659  0.4960523466942 1.0
C      1  0.6321772769574  0.5941866311759  0.5039476557969 1.0
C      1  0.6321772838769  0.4058133650291  0.4960523523482 1.0
C      1  0.3678227362484  0.4058133937347  0.5039476461575 1.0
C      1  0.7962108985493  0.5006774390300  0.3712843685891 1.0
C      1  0.2037891024171  0.5006774447865  0.6287156507681 1.0
C      1  0.7962108964966  0.4993225704326  0.6287156205207 1.0
C      1  0.2037891043946  0.4993225646436  0.3712843599021 1.0
C      1  0.3712843549593  0.5006774480510  0.7962109221096 1.0
C      1  0.6287156237374  0.5006774360510  0.2037891478905 1.0
C      1  0.6287156199579  0.4993225588777  0.7962108769848 1.0
C      1  0.3712843588494  0.4993225468100  0.2037890528650 1.0
C      1  0.6754293442758  0.4196505933886  0.7456150435884 1.0
C      1  0.3245706151841  0.4196505756163  0.2543849031571 1.0
C      1  0.6754293390195  0.5803494110273  0.2543849731295 1.0
C      1  0.3245706205333  0.5803494287117  0.7456150799528 1.0
C      1  0.7456150396531  0.4196506003886  0.6754293469557 1.0
C      1  0.2543849274319  0.4196505859124  0.3245706089062 1.0
C      1  0.2543849248233  0.5803494279887  0.6754293889218 1.0
C      1  0.7456150420273  0.5803494136650  0.3245706550906 1.0
C      1  0.7510428583500  0.3363903388077  0.3129541944442 1.0
C      1  0.2489571439709  0.3363903457472  0.6870458476133 1.0
C      1  0.7510428650294  0.6636096569956  0.6870458258523 1.0
C      1  0.2489571371410  0.6636096498312  0.3129541321263 1.0
C      1  0.3129541413158  0.3363903449927  0.7510428655333 1.0
C      1  0.6870458462844  0.3363903485259  0.2489571773807 1.0
C      1  0.6870458269814  0.6636096359713  0.7510428277495 1.0
C      1  0.3129541606253  0.6636096393777  0.2489571288655 1.0
C      1  0.4277917500464  0.3310165541920  0.5005108805995 1.0
C      1  0.5722082488701  0.3310165533942  0.4994891520785 1.0
C      1  0.4277917535721  0.6689834413619  0.4994890932939 1.0
C      1  0.5722082453568  0.6689834426202  0.5005108741788 1.0
C      1  0.5005108842402  0.3310165550847  0.4277917678030 1.0
C      1  0.4994891129714  0.3310165532501  0.5722082619555 1.0
C      1  0.4994891222664  0.6689834440757  0.4277917287136 1.0
C      1  0.5005108753098  0.6689834418908  0.5722082420128 1.0
C      1  0.3421606747147  0.2374153222100  0.5864856198678 1.0
C      1  0.6578393418985  0.2374153170360  0.4135144250838 1.0
C      1  0.3421606791365  0.7625846704978  0.4135143507040 1.0
C      1  0.6578393375934  0.7625846757877  0.5864856045549 1.0
C      1  0.5864856367593  0.2374153133147  0.3421606949236 1.0
C      1  0.4135143837166  0.2374153210135  0.6578393449217 1.0
C      1  0.4135143984444  0.7625846735601  0.3421606443025 1.0
C      1  0.5864856220979  0.7625846815553  0.6578393161616 1.0
C      1  0.5304635740880  0.6241816121361  0.2027642098493 1.0
C      1  0.4695364121814  0.6241816263661  0.7972357698658 1.0
C      1  0.5304635658116  0.3758183881474  0.7972357626814 1.0
C      1  0.4695364201123  0.3758183739176  0.2027642571988 1.0
C      1  0.2027642514544  0.6241816094900  0.5304635640399 1.0
C      1  0.7972357636521  0.6241816167509  0.4695364110719 1.0
C      1  0.7972357625685  0.3758183904482  0.5304635950312 1.0
C      1  0.2027642528409  0.3758183977150  0.4695364300749 1.0
C      1  0.4666677792952  0.1925876011724  0.4666677694177 1.0
C      1  0.5333322166887  0.1925876010835  0.5333322326069 1.0
C      1  0.5333322234905  0.8074123982473  0.4666677815523 1.0
C      1  0.4666677722859  0.8074123983733  0.5333322166441 1.0
END
