TITL C-63790-7496-6 -11.778 3375.00 -2325.89517527 0 0 284 (C1) n - 1
REM
REM Run started: at 2020.11.23 01:53:11 in /rds/project/t2_vol4/rds-t2-cs072/BORA/CARBON/AIRSS/Generating-Clusters/Str-Search/Higher-Symm
REM VASP from code version vasp.5.4.4.18Apr17-6-g9f103f2a35 (build Oct 11 2019 16:45:47) gamma-only
REM
REM
REM
REM
REM ./C.cell (e5ae0387ce4d49c7c0135a1433873289)
REM AIRSS Version 0.9.1 bugfix July 2018 build 013d7b7c2542+ Fri, 06 Jul 2018 19:26:36 +0100
REM compiler GCC version 4.8.5 20150623 (Red Hat 4.8.5-39)
REM options -cpp -mtune=generic -march=x86-64 -g -O0
REM seed 36444022 -1080198742 428875874 796987148 564680580 -1590526274 1002302360 253803328 701068873 64880473 41821478 2003752692
REM
REM C.POTCAR (d86ddea03c3ceb6dc662c8ad6801f873)
REM 
CELL 1.54180   15.00000   15.00000   15.00000   90.00000   90.00000   90.00000
LATT -1
SFAC C  
C      1  0.8129183076516  0.5853264542186  0.7957886962078 1.0
C      1  0.8230238521222  0.8238806799700  0.5020545643898 1.0
C      1  0.7986956592754  0.6225154361309  0.1823170401816 1.0
C      1  0.8075207170531  0.2356047636552  0.2774943524488 1.0
C      1  0.8407962917820  0.1976918225891  0.6625169159035 1.0
C      1  0.5798445535241  0.2113821896759  0.1413151360944 1.0
C      1  0.6343839912815  0.0535166466159  0.6724441272190 1.0
C      1  0.6343509887030  0.5404550579284  0.9875545827514 1.0
C      1  0.6371763836597  0.9541379739539  0.6420919762794 1.0
C      1  0.6256008024590  0.8123394372191  0.1314930099228 1.0
C      1  0.5633388309330  0.3222199755355  0.9108980973304 1.0
C      1  0.5513739146293  0.8726775541045  0.7646698255082 1.0
C      1  0.6099041079319  0.9402737006237  0.2524422054644 1.0
C      1  0.5551203922258  0.3160425805814  0.0061626205672 1.0
C      1  0.5792132797186  0.0227457343185  0.5169612049204 1.0
C      1  0.7989436998582  0.8522414925825  0.6682116728628 1.0
C      1  0.7857342752615  0.8169877500368  0.1130750217961 1.0
C      1  0.7492027498186  0.2665049321845  0.1142493288342 1.0
C      1  0.7811732897899  0.0432115382931  0.5708763984930 1.0
C      1  0.7627456419250  0.4579200845383  0.9159846372119 1.0
C      1  0.8796157904966  0.5135764319404  0.3966153726122 1.0
C      1  0.8863555214644  0.4140601040953  0.4348709590031 1.0
C      1  0.8708143064047  0.4152652223067  0.5411653121071 1.0
C      1  0.9055973609834  0.5174396307825  0.5589434460536 1.0
C      1  0.8739070385130  0.5769707139205  0.4765164054538 1.0
C      1  0.0985329072840  0.4409877565754  0.3347743080017 1.0
C      1  0.0738361410114  0.3002108368105  0.4548051833652 1.0
C      1  0.0588334991211  0.4332945785602  0.7196566169893 1.0
C      1  0.0803068901860  0.6347050163999  0.6156058065082 1.0
C      1  0.0706027354969  0.6211862211939  0.4141523960214 1.0
C      1  0.2429593544014  0.7687984652754  0.4128878019031 1.0
C      1  0.2835930973785  0.4907884356973  0.2713307633651 1.0
C      1  0.2659265272619  0.2768017117858  0.4518349517936 1.0
C      1  0.1775895765491  0.3306755743611  0.6948593331606 1.0
C      1  0.2788142346369  0.6360617999996  0.6918144187404 1.0
C      1  0.3284206419782  0.2551620206318  0.5337315367201 1.0
C      1  0.3376430192830  0.4369767186523  0.7154150146040 1.0
C      1  0.3589664883311  0.6818961919980  0.6493063154261 1.0
C      1  0.3014855915660  0.7642168107641  0.3301409414087 1.0
C      1  0.3373900928418  0.3998149665623  0.2865736605572 1.0
C      1  0.3411674052250  0.1047807279633  0.4934783929114 1.0
C      1  0.2612852051655  0.3677414980485  0.8536619142814 1.0
C      1  0.2523427067808  0.7892611176670  0.7357554247634 1.0
C      1  0.3430410659979  0.8419682730694  0.2820777318057 1.0
C      1  0.3353611820984  0.3820018498435  0.1238746929706 1.0
C      1  0.7476494147850  0.0144319723058  0.8791979940840 1.0
C      1  0.6913744253902  0.7022460553502  0.9171701808024 1.0
C      1  0.6744921612087  0.0017006201863  0.3874732612357 1.0
C      1  0.6172056800871  0.6248292437883  0.0357865135046 1.0
C      1  0.6498088541233  0.0222292390619  0.3021559940316 1.0
C      1  0.6426511154623  0.3053834351770  0.4399772224541 1.0
C      1  0.6378772294560  0.3882320504670  0.6780598501111 1.0
C      1  0.6143538817109  0.5332058187641  0.6180705040477 1.0
C      1  0.6146223913910  0.6291606148216  0.4149354013738 1.0
C      1  0.6381093356024  0.4908188949819  0.3352745499251 1.0
C      1  0.0719357940984  0.3922810629493  0.4939575246425 1.0
C      1  0.9958107488418  0.4168416976459  0.6528272949929 1.0
C      1  0.0784602049028  0.5434453540219  0.5703962078636 1.0
C      1  0.0740483099971  0.5501098737575  0.4694074787672 1.0
C      1  0.0910776072201  0.4631884451045  0.4301182454602 1.0
C      1  0.3669688820028  0.3752327282074  0.3867278751277 1.0
C      1  0.3231133614890  0.2984754249878  0.6285144303141 1.0
C      1  0.3819051422173  0.5201725062111  0.6821672138459 1.0
C      1  0.3670570569310  0.7046621341880  0.5604336545308 1.0
C      1  0.4346150726790  0.5211811980550  0.2643729276407 1.0
C      1  0.3285541504009  0.5462402566022  0.1222219810574 1.0
C      1  0.3164489239025  0.1320544402695  0.3458524187421 1.0
C      1  0.3014695536657  0.2274851002174  0.7634500697099 1.0
C      1  0.3255078222104  0.6991308150531  0.8373346891153 1.0
C      1  0.3317791067836  0.9071797268281  0.4279237635388 1.0
C      1  0.2514961313807  0.2701349835918  0.6960783268890 1.0
C      1  0.2991038583229  0.6232069697760  0.7939380413930 1.0
C      1  0.2801516637244  0.8437961509943  0.4613800091071 1.0
C      1  0.3501598794981  0.5486823093112  0.2255781326596 1.0
C      1  0.2725815949026  0.2187780339631  0.3635724417848 1.0
C      1  0.3975822771192  0.8447356236989  0.8247447963638 1.0
C      1  0.4528733750009  0.9634631169742  0.3276656697590 1.0
C      1  0.4352837877343  0.4587705697753  0.0262558751149 1.0
C      1  0.4470241352042  0.0336167061895  0.3938229986063 1.0
C      1  0.3953532075254  0.2832100694976  0.8846024693419 1.0
C      1  0.8658046139736  0.6350176923620  0.2483928217671 1.0
C      1  0.8710469814152  0.3082873188519  0.2883482974651 1.0
C      1  0.8861536094963  0.2493076710229  0.5940675365767 1.0
C      1  0.8616224415968  0.5268724840725  0.7380167020331 1.0
C      1  0.8594516648234  0.7414498813070  0.5321054316295 1.0
C      1  0.2301950991929  0.3774073239017  0.4583144989345 1.0
C      1  0.1976324944995  0.4020889746421  0.6208592595354 1.0
C      1  0.2497117904446  0.5764246671423  0.6065922994516 1.0
C      1  0.2505904803983  0.6716646479260  0.4535272642236 1.0
C      1  0.2560815207957  0.5234065632413  0.3678114491300 1.0
C      1  0.7489926432491  0.6435291285547  0.9586246906839 1.0
C      1  0.6625355071043  0.9832210031783  0.4740266970881 1.0
C      1  0.6836336276543  0.6965800875780  0.0151641992795 1.0
C      1  0.6470180144793  0.1148507513632  0.2748018961191 1.0
C      1  0.7387087663685  0.0484979721932  0.8012514572465 1.0
C      1  0.5495355472245  0.5933798265238  0.9644490996774 1.0
C      1  0.5528973507378  0.9470982782041  0.5819176419955 1.0
C      1  0.5375528061271  0.7700332118221  0.1345518898615 1.0
C      1  0.4964295951017  0.2049800109418  0.1842837186107 1.0
C      1  0.5532688622375  0.0854258608375  0.7191927932483 1.0
C      1  0.1988104850353  0.7015421340841  0.7000515576006 1.0
C      1  0.1487707878155  0.7475018549328  0.3869488507626 1.0
C      1  0.1938533253846  0.4709999353697  0.2291985556045 1.0
C      1  0.1745364215471  0.2129740385322  0.3801887918908 1.0
C      1  0.1731593973097  0.3981638630660  0.8263548944466 1.0
C      1  0.7836221318920  0.3601717545865  0.5786945693548 1.0
C      1  0.7694554582529  0.5221732554611  0.6370971153476 1.0
C      1  0.7745919558469  0.6345395850634  0.4919292473227 1.0
C      1  0.7956433138654  0.5211855643840  0.3480383032344 1.0
C      1  0.8144013236744  0.3694826915143  0.3912916299731 1.0
C      1  0.4297520544279  0.3144688605552  0.6595599493762 1.0
C      1  0.4563219888269  0.5727425254736  0.7231010856009 1.0
C      1  0.4580385808106  0.7322054667585  0.5391093456487 1.0
C      1  0.4913049405955  0.5850044396980  0.3099567914414 1.0
C      1  0.4325623676982  0.2994553393856  0.4015806063442 1.0
C      1  0.5149718259402  0.7332352272130  0.7039224323396 1.0
C      1  0.5125718697222  0.8191182046252  0.3074675836220 1.0
C      1  0.5413416731702  0.4113363975517  0.1415942440488 1.0
C      1  0.4828291862581  0.1906047266373  0.5325007811780 1.0
C      1  0.4664219104757  0.4001011505477  0.8104524732376 1.0
C      1  0.1266748335030  0.3512015203612  0.2999774323618 1.0
C      1  0.1285089151645  0.2645201309058  0.5238440968208 1.0
C      1  0.1314052109226  0.5224029724818  0.7206385297499 1.0
C      1  0.1189721247943  0.7025279321281  0.5520666123033 1.0
C      1  0.1201972897667  0.6018123288305  0.3256818814590 1.0
C      1  0.4110251905647  0.2434927967346  0.1534442074228 1.0
C      1  0.4766652147672  0.0343551486761  0.7111394309325 1.0
C      1  0.4614555676997  0.5599031706183  0.9974512254255 1.0
C      1  0.4672044739023  0.9647076383188  0.6377403877638 1.0
C      1  0.4574265180288  0.8123948185495  0.1431986053294 1.0
C      1  0.6997209901815  0.4914442153596  0.5716746533993 1.0
C      1  0.6997041058715  0.6021912770123  0.4397216376693 1.0
C      1  0.7129664458553  0.5173314789609  0.3944885322663 1.0
C      1  0.6594595200265  0.3828246293279  0.4860152622572 1.0
C      1  0.6849577342411  0.3899688921226  0.5853525339203 1.0
C      1  0.7286039487305  0.2073993825322  0.5304520897928 1.0
C      1  0.7106304068861  0.4658448987947  0.7812302868042 1.0
C      1  0.7292237199851  0.7877704623705  0.6144425411995 1.0
C      1  0.7876188694377  0.7721102455060  0.2272828442941 1.0
C      1  0.7020178294549  0.3416053481726  0.2749483786076 1.0
C      1  0.6370778484179  0.3224109577040  0.7511567779227 1.0
C      1  0.6040628471293  0.6878548167798  0.6907060416027 1.0
C      1  0.5635478436636  0.7962086921747  0.3787638417785 1.0
C      1  0.6135435903235  0.4548821422238  0.1833062010188 1.0
C      1  0.5751337446490  0.1821697644433  0.5431389103263 1.0
C      1  0.5440652461135  0.8680241003625  0.5209516250825 1.0
C      1  0.5518264802597  0.6730560818222  0.1724631637654 1.0
C      1  0.5091437768794  0.2086711986146  0.2814512892318 1.0
C      1  0.5440367121431  0.1800643586949  0.7220062080391 1.0
C      1  0.5508949387185  0.6261143773076  0.8702865705349 1.0
C      1  0.7201923850228  0.9581081507753  0.5641311644378 1.0
C      1  0.7026976053053  0.7582566449769  0.0933767896323 1.0
C      1  0.6512883008946  0.1895334947571  0.2101604334959 1.0
C      1  0.7241288149317  0.0758884343546  0.7159519113370 1.0
C      1  0.7191264891427  0.5478865730632  0.9407052345024 1.0
C      1  0.7549290704528  0.7085134323664  0.1657539320691 1.0
C      1  0.7331114273414  0.2565782788309  0.2092172024584 1.0
C      1  0.7863928178025  0.1105656696426  0.6494534453301 1.0
C      1  0.7509933206220  0.5306226096936  0.8471089330329 1.0
C      1  0.7710455866164  0.8687101158789  0.5716621111675 1.0
C      1  0.3859078180633  0.7843146418303  0.2052834788065 1.0
C      1  0.4223544285905  0.3349592031762  0.1198958534031 1.0
C      1  0.4136804237398  0.0483623116660  0.6200821218217 1.0
C      1  0.4175850959221  0.4854797480391  0.9363910993722 1.0
C      1  0.4198450457862  0.8800346605746  0.6627970242949 1.0
C      1  0.6717274633251  0.2714007438279  0.3506894710649 1.0
C      1  0.7092643568852  0.2526045227791  0.7412563640840 1.0
C      1  0.6714331073146  0.6776385799422  0.7592607316617 1.0
C      1  0.6866227466415  0.7892494625266  0.4269309954974 1.0
C      1  0.6610530222452  0.5347705393915  0.1655002128256 1.0
C      1  0.7801957664830  0.8005480660572  0.4182353098492 1.0
C      1  0.7529073612028  0.5395345738366  0.1907095103006 1.0
C      1  0.7668531102672  0.2252456172116  0.3617644371836 1.0
C      1  0.7972669606695  0.2660391362086  0.7145882408660 1.0
C      1  0.7618611285624  0.6476430176122  0.7435031323902 1.0
C      1  0.1700587222652  0.5039408532942  0.6260102324704 1.0
C      1  0.2140304301237  0.6606499927967  0.5470494631980 1.0
C      1  0.2201374498871  0.6150639365684  0.3732946618657 1.0
C      1  0.1875314325089  0.4494783456763  0.4001789926352 1.0
C      1  0.1604283453188  0.3627123652412  0.5365070263415 1.0
C      1  0.8625835376966  0.5594294424040  0.6421462448986 1.0
C      1  0.8640659252981  0.6764321095941  0.4557749192943 1.0
C      1  0.8753369653360  0.5504713994028  0.2984833102030 1.0
C      1  0.9052016723413  0.3165673427618  0.3848123598927 1.0
C      1  0.9140377257200  0.3562168537557  0.6235206167006 1.0
C      1  0.4382369301352  0.4210216174179  0.2752027173770 1.0
C      1  0.4282916097046  0.2722860088899  0.5022579205665 1.0
C      1  0.4353530393822  0.3975735525713  0.7186220118541 1.0
C      1  0.4527889357541  0.6628942099129  0.6753204699706 1.0
C      1  0.3905145583886  0.7090620756065  0.3454965622805 1.0
C      1  0.4931885611037  0.3785758174645  0.0568505765558 1.0
C      1  0.4932545037751  0.0495945116181  0.4717164292751 1.0
C      1  0.4744333430770  0.3223984531605  0.8693434197368 1.0
C      1  0.4818377020366  0.8651233949596  0.8306461209481 1.0
C      1  0.5226234037948  0.9160464299481  0.2838641372455 1.0
C      1  0.2611346045950  0.8199301371262  0.6465319028423 1.0
C      1  0.2494486637462  0.7195445713805  0.2576736294585 1.0
C      1  0.2896826557644  0.3419817855513  0.2071951021996 1.0
C      1  0.2794535089828  0.1652294084796  0.5232794993346 1.0
C      1  0.2768319767652  0.4417931635129  0.7941863939512 1.0
C      1  0.3378652204172  0.8681095547587  0.6145440510056 1.0
C      1  0.3091451082032  0.7149434552342  0.1865455728938 1.0
C      1  0.3339708493456  0.2478504743457  0.2041670683804 1.0
C      1  0.3894711357487  0.0781840088145  0.7077595181166 1.0
C      1  0.3791926464660  0.5748103017452  0.9487503083643 1.0
C      1  0.4352407779839  0.2326093107593  0.3303584314134 1.0
C      1  0.4568350856260  0.2232790625031  0.7049235720857 1.0
C      1  0.4693039167809  0.5794218880049  0.8208236947737 1.0
C      1  0.4587061826811  0.8204367171662  0.5171439041849 1.0
C      1  0.5084093387422  0.6650222324988  0.2518016615123 1.0
C      1  0.1923035920382  0.4921760601753  0.7991291561194 1.0
C      1  0.1980762126612  0.7440343003455  0.6066233264916 1.0
C      1  0.1739720955177  0.6820183353200  0.3082133238723 1.0
C      1  0.1908124681353  0.3732488077622  0.2321129838858 1.0
C      1  0.1938435117845  0.2048367723794  0.4810042029715 1.0
C      1  0.3570529472125  0.0751786765419  0.4038888835382 1.0
C      1  0.3135725843319  0.2835882440497  0.8419097343653 1.0
C      1  0.3217667110723  0.7888728393613  0.8071543561165 1.0
C      1  0.3716827859695  0.9105058321260  0.3371143917187 1.0
C      1  0.3502329275818  0.4622602790346  0.0840078611469 1.0
C      1  0.4475121067699  0.3567442484447  0.5583825244493 1.0
C      1  0.4756686726845  0.4841425671380  0.6748026482035 1.0
C      1  0.4996718472488  0.6515681121452  0.5803643558666 1.0
C      1  0.4242590267261  0.6281222064441  0.3731521554956 1.0
C      1  0.4657025405347  0.3944670486631  0.3702569590373 1.0
C      1  0.7918573004468  0.6304015847657  0.6520701995764 1.0
C      1  0.8394201840412  0.7321893016537  0.3766247200195 1.0
C      1  0.8072579646362  0.4807627782921  0.2583276292682 1.0
C      1  0.8225578654376  0.2764356982014  0.4283484553011 1.0
C      1  0.8223657915557  0.3601749280570  0.6752867451588 1.0
C      1  0.4491934344078  0.5686109560206  0.5443307174644 1.0
C      1  0.3954571109691  0.5827445986244  0.4539242924485 1.0
C      1  0.5119573924691  0.4548403259160  0.4298548909519 1.0
C      1  0.5123110919960  0.4259803266836  0.5189584018388 1.0
C      1  0.5195357953262  0.4979379338619  0.5852895188523 1.0
C      1  0.4740785801030  0.3819231644671  0.1938859397838 1.0
C      1  0.4327030338576  0.1014577533353  0.5363532779042 1.0
C      1  0.4617322517383  0.4814575703695  0.8536898452159 1.0
C      1  0.4889976126561  0.8233138523266  0.7038291302808 1.0
C      1  0.4541899746358  0.7426686129838  0.2774984387676 1.0
C      1  0.3605023968090  0.5303957513958  0.5889269264840 1.0
C      1  0.3402334709935  0.6621979869631  0.4819566439991 1.0
C      1  0.3287462547625  0.5134686588206  0.4297938908629 1.0
C      1  0.3230668510141  0.4219567231330  0.4648061271874 1.0
C      1  0.2986264069310  0.3943886933828  0.6281569736938 1.0
C      1  0.6058651696714  0.6104870193413  0.1296300181339 1.0
C      1  0.6088532522982  0.2027931691757  0.3027703951677 1.0
C      1  0.6213570639227  0.2290709281030  0.7304894473960 1.0
C      1  0.6294012788006  0.6741546809710  0.8474984151640 1.0
C      1  0.6054716628927  0.8447830706207  0.4531038959645 1.0
C      1  0.3429807613921  0.2091933670067  0.2926541540670 1.0
C      1  0.3805612754623  0.1738551859507  0.7298568715186 1.0
C      1  0.3786857586986  0.6192848612380  0.8594967671052 1.0
C      1  0.3631530399571  0.8664235677763  0.5165513069928 1.0
C      1  0.3282241423494  0.6242247202633  0.1604449248771 1.0
C      1  0.6324905393630  0.4753787862149  0.7080982705941 1.0
C      1  0.5920746991528  0.6303755578825  0.6184927766907 1.0
C      1  0.6176739325891  0.7210512119996  0.4007129374257 1.0
C      1  0.6404314150178  0.4219807185170  0.2700586523374 1.0
C      1  0.6437329035872  0.2348417148644  0.5058733790549 1.0
C      1  0.6054391448427  0.2548438524767  0.0579403231158 1.0
C      1  0.6227490764069  0.0987032680241  0.5753553983429 1.0
C      1  0.6335031981904  0.3449997494740  0.8519305937800 1.0
C      1  0.6374006319390  0.8890480940370  0.7245231915204 1.0
C      1  0.6581684404689  0.8796048410364  0.1930360290925 1.0
C      1  0.8498745513762  0.7228076120643  0.2867650841276 1.0
C      1  0.7982441202671  0.3829909540875  0.2902866025317 1.0
C      1  0.8077695592732  0.2680047265277  0.5286690226332 1.0
C      1  0.7915885804077  0.4547503102365  0.7168529710162 1.0
C      1  0.7792941469792  0.6976170876925  0.5814959012086 1.0
C      1  0.1135214995208  0.3624960862778  0.7598824809988 1.0
C      1  0.1167413844717  0.6296929192127  0.7003000112363 1.0
C      1  0.0937967199487  0.7087156864130  0.4510390625456 1.0
C      1  0.1216079273576  0.5146481710733  0.2762590149692 1.0
C      1  0.1104463118331  0.2783851117542  0.3641091162666 1.0
C      1  0.7014775912571  0.2550604203534  0.0474851585034 1.0
C      1  0.7222943750039  0.1186100644726  0.5619899344336 1.0
C      1  0.7050599025379  0.4045507399717  0.8619973726930 1.0
C      1  0.7159059058499  0.8349356466995  0.7037755101807 1.0
C      1  0.7547317167847  0.8590683029433  0.1927708619033 1.0
C      1  0.3594493999378  0.4279487183181  0.5571609413647 1.0
C      1  0.0015467593012  0.4814004431988  0.5801313010444 1.0
C      1  0.7023725906307  0.4656106049206  0.4756429061730 1.0
C      1  0.5626720552936  0.5466100142461  0.3706832499124 1.0
END
