TITL C-6315-4169-144 -2.349 3375.00 -400.19983576 0 0 54 (D3d) n - 1
REM
REM Run started: at 2020.12.18 21:45:55 in /gpfs/home/chem/mssmkc/CARBON/AIRSS/Generating-Clusters/Str-Search/Higher-Symm/C4-100
REM VASP from code version vasp.5.4.4.18Apr17-6-g9f103f2a35 (build Oct 11 2019 16:45:47) gamma-only
REM
REM
REM
REM
REM ./C.cell (6bd13a13d554368a30d355f37ece5b26)
REM AIRSS Version 0.9.1 bugfix July 2018 build 013d7b7c2542+ Fri, 06 Jul 2018 19:26:36 +0100
REM compiler GCC version 6.3.0
REM options -cpp -iprefix /gpfs/warwick/csc/orac/software/Core/GCCcore/6.3.0/bin/../lib/gcc/x86_64-pc-linux-gnu/6.3.0/ -mtune=generic -march=x86-64 -g -O0
REM seed 2050205126 -1354516979 473449462 -405342883 692242675 -1285625434 809007899 1597375568 352086454 -1752083951 490256119 -1916281179
REM
REM C.POTCAR (d86ddea03c3ceb6dc662c8ad6801f873)
REM 
CELL 1.54180   15.00000   15.00000   15.00000   90.00000   90.00000   90.00000
LATT -1
SFAC C  
C      1  0.7265793642116  0.5698628325293  0.5756661995709 1.0
C      1  0.4520839173651  0.5697629066954  0.2658023870756 1.0
C      1  0.3214604671414  0.5698902637803  0.6585505014320 1.0
C      1  0.7265794010363  0.4301372019781  0.4243337930991 1.0
C      1  0.4520838953153  0.4302371145454  0.7341975872831 1.0
C      1  0.3214604299934  0.4301097475368  0.3414494780503 1.0
C      1  0.2734206372617  0.4301371662212  0.4243338007939 1.0
C      1  0.5479160822617  0.4302370917904  0.7341976097247 1.0
C      1  0.6785395321082  0.4301097360353  0.3414494995152 1.0
C      1  0.2734205993669  0.5698627979314  0.5756662073261 1.0
C      1  0.5479161049179  0.5697628862682  0.2658024149472 1.0
C      1  0.6785395693559  0.5698902518693  0.6585505208848 1.0
C      1  0.6904025730824  0.6146453225769  0.4998437944676 1.0
C      1  0.4046306092099  0.6146970145671  0.3350318462665 1.0
C      1  0.4051013964871  0.6148068264513  0.6652689991568 1.0
C      1  0.6904027539320  0.3853547283570  0.5001561918951 1.0
C      1  0.4046305591977  0.3853030530231  0.6649681895514 1.0
C      1  0.4051012828060  0.3851932292990  0.3347308711865 1.0
C      1  0.3095974296121  0.3853546762832  0.5001562065916 1.0
C      1  0.5953693904741  0.3853029834171  0.6649681490438 1.0
C      1  0.5948986021358  0.3851931735517  0.3347310030581 1.0
C      1  0.3095972482771  0.6146452718947  0.4998438076444 1.0
C      1  0.5953694402962  0.6146969490271  0.3350318147250 1.0
C      1  0.5948987152732  0.6148067708544  0.6652691261426 1.0
C      1  0.3946498824460  0.6698665677072  0.4989951971568 1.0
C      1  0.5517756243816  0.6701739592853  0.5920778984554 1.0
C      1  0.5535949657381  0.6700197862379  0.4089649373823 1.0
C      1  0.3946496260085  0.3301329545014  0.5010049628608 1.0
C      1  0.5517756631591  0.3298255552171  0.4079217640194 1.0
C      1  0.5535950381403  0.3299799797470  0.5910351585164 1.0
C      1  0.6053501133429  0.3301334403072  0.5010048033198 1.0
C      1  0.4482243753411  0.3298260498507  0.4079221060823 1.0
C      1  0.4464050466157  0.3299802329477  0.5910350554979 1.0
C      1  0.6053503686610  0.6698670360331  0.4989950384142 1.0
C      1  0.4482243371384  0.6701744391167  0.5920782333414 1.0
C      1  0.4464049738488  0.6700200015900  0.4089648483723 1.0
C      1  0.6817956191448  0.4756579974097  0.5463123590921 1.0
C      1  0.4492119601867  0.4756424420085  0.3194316476318 1.0
C      1  0.3691795108999  0.4756635703201  0.6343243579893 1.0
C      1  0.6817955854923  0.5243420575078  0.4536876755214 1.0
C      1  0.4492120020234  0.5243576289789  0.6805683746459 1.0
C      1  0.3691794797059  0.5243365241564  0.3656756198443 1.0
C      1  0.3182043821478  0.5243420021107  0.4536876408202 1.0
C      1  0.5507880389249  0.5243575574244  0.6805683499651 1.0
C      1  0.6308204876757  0.5243364304596  0.3656756443881 1.0
C      1  0.3182044138774  0.4756579422488  0.5463123256452 1.0
C      1  0.5507879977824  0.4756423723785  0.3194316259099 1.0
C      1  0.6308205198310  0.4756634756644  0.6343243791395 1.0
C      1  0.4512188404558  0.5759013784519  0.5280685867399 1.0
C      1  0.4512193203181  0.4240985525202  0.4719306588186 1.0
C      1  0.5487811665270  0.4240986172995  0.4719314281007 1.0
C      1  0.5487806874534  0.5759014517811  0.5280693236001 1.0
C      1  0.5000002856707  0.5753743884090  0.4438069368921 1.0
C      1  0.4999996859422  0.4246256118457  0.5561930624043 1.0
END
