TITL C-64804-9177-8 -5.63 3375.00 -965.46900365 0 0 117 (C1) n - 1
REM
REM Run started: at 2020.12.07 06:48:57 in /rds/project/t2_vol4/rds-t2-cs072/BORA/CARBON/AIRSS/Generating-Clusters/Str-Search/Higher-Symm/C100-200
REM VASP from code version vasp.5.4.4.18Apr17-6-g9f103f2a35 (build Oct 11 2019 16:45:47) gamma-only
REM
REM
REM
REM
REM ./C.cell (533062f00bc710175b3da973d35f2034)
REM AIRSS Version 0.9.1 bugfix July 2018 build 013d7b7c2542+ Fri, 06 Jul 2018 19:26:36 +0100
REM compiler GCC version 4.8.5 20150623 (Red Hat 4.8.5-39)
REM options -cpp -mtune=generic -march=x86-64 -g -O0
REM seed -692262852 -1106562355 222076898 1719807550 1645437987 -1413063654 -325145455 938063372 -1755881272 1903611195 1467136379 2136780310
REM
REM C.POTCAR (d86ddea03c3ceb6dc662c8ad6801f873)
REM 
CELL 1.54180   15.00000   15.00000   15.00000   90.00000   90.00000   90.00000
LATT -1
SFAC C  
C      1  0.4465007958786  0.7585547999227  0.6736638108876 1.0
C      1  0.4502711778246  0.7653479731992  0.3055863941360 1.0
C      1  0.3327947484557  0.3721038173340  0.7704904034695 1.0
C      1  0.3186886136703  0.3791381357769  0.2299032701870 1.0
C      1  0.4904395780497  0.3957647865111  0.7206505665453 1.0
C      1  0.5179546062005  0.4104561624789  0.3039672933793 1.0
C      1  0.6216507010666  0.2923927820065  0.3018756717186 1.0
C      1  0.6177966815688  0.2913179548888  0.6974372513223 1.0
C      1  0.7444715538167  0.3596494985095  0.3798556146384 1.0
C      1  0.7387671370073  0.3594906483923  0.6154266325133 1.0
C      1  0.5670528572522  0.1728009292930  0.5443263829813 1.0
C      1  0.5671914025314  0.1767062573786  0.4484015225459 1.0
C      1  0.3504334202834  0.7360101399089  0.5345787202261 1.0
C      1  0.3507851321729  0.7348908598101  0.4379865972202 1.0
C      1  0.4008528775479  0.7933296123774  0.5898017945233 1.0
C      1  0.4010050559803  0.7972590312618  0.3881579408046 1.0
C      1  0.5509693725582  0.7687389999314  0.6731310137535 1.0
C      1  0.5571912563755  0.7570657512174  0.3162249387526 1.0
C      1  0.1688860593576  0.5090478329993  0.6200916279049 1.0
C      1  0.1669034341352  0.5829851171539  0.3766785743493 1.0
C      1  0.8374179599523  0.5661939306663  0.4085497886672 1.0
C      1  0.8336512967802  0.5667434172801  0.5865052074810 1.0
C      1  0.5267543020734  0.4527009010748  0.5701063401303 1.0
C      1  0.5140104661979  0.4059594595586  0.4882095310270 1.0
C      1  0.8325203932678  0.4845102665954  0.4171234103647 1.0
C      1  0.8267803031771  0.4849218367893  0.5795934223897 1.0
C      1  0.5197344162174  0.3006683207922  0.6995686785566 1.0
C      1  0.5250384222794  0.3120521529993  0.3085769860578 1.0
C      1  0.2181963517835  0.3480590520548  0.3489635691051 1.0
C      1  0.2239129603022  0.3491676196422  0.6752580100064 1.0
C      1  0.7895156662357  0.6381123410020  0.4492342845704 1.0
C      1  0.7865440087295  0.6369723876534  0.5423231526875 1.0
C      1  0.5455390114655  0.8600200575806  0.5396132399384 1.0
C      1  0.5464064580992  0.8597615812092  0.4439836279866 1.0
C      1  0.7005995510336  0.6615466653952  0.4056886730306 1.0
C      1  0.6946248967880  0.6578667279776  0.5801434312995 1.0
C      1  0.6369610490120  0.5812558207501  0.5328889500610 1.0
C      1  0.6387367413827  0.5816978172546  0.4426343496834 1.0
C      1  0.3653798992238  0.2747562651768  0.6315811883514 1.0
C      1  0.3645382374929  0.2968010557754  0.3739982611664 1.0
C      1  0.4873821457537  0.6038069583391  0.3880841384745 1.0
C      1  0.4920242705740  0.6027083158155  0.5988646317099 1.0
C      1  0.3705755151240  0.3857392757588  0.4274169646293 1.0
C      1  0.3897451314498  0.3632154701923  0.5864005172278 1.0
C      1  0.5141756683351  0.4553773437437  0.3980495286759 1.0
C      1  0.4491369329298  0.4301842092260  0.6348479290900 1.0
C      1  0.6877040237252  0.5750284714463  0.2509533831829 1.0
C      1  0.6747197552167  0.5752498772515  0.7368806021820 1.0
C      1  0.4591848375601  0.2618762565461  0.3472816064829 1.0
C      1  0.4607787060403  0.2434350797128  0.6558299943358 1.0
C      1  0.5974382471506  0.7981709981397  0.3975566513964 1.0
C      1  0.5952247047016  0.7999354278555  0.5898536158583 1.0
C      1  0.3070450602201  0.4295996402360  0.5707558645731 1.0
C      1  0.2851494501993  0.4094634360973  0.4756525321340 1.0
C      1  0.6596431274188  0.7452817366065  0.4477348081398 1.0
C      1  0.6573719119727  0.7443701734020  0.5411910497468 1.0
C      1  0.7063989006802  0.4846934630101  0.2432615119641 1.0
C      1  0.6975628943668  0.4843907286337  0.7487792515287 1.0
C      1  0.7936877269537  0.4032049849433  0.4492223901999 1.0
C      1  0.7906064631929  0.4030790710580  0.5469254616627 1.0
C      1  0.3964103498505  0.5792449371105  0.5883313046688 1.0
C      1  0.3983507953381  0.5640827086284  0.3984119434875 1.0
C      1  0.1423743421209  0.5460899675339  0.5411921490094 1.0
C      1  0.1431358928576  0.5636536499850  0.4574855348488 1.0
C      1  0.6315009042959  0.4309177796310  0.2058241004517 1.0
C      1  0.6260286229305  0.4315707345717  0.7891323083413 1.0
C      1  0.3410138486905  0.6320031531040  0.4402161919220 1.0
C      1  0.3435318830085  0.6382766573633  0.5344030379057 1.0
C      1  0.1990001483467  0.5534764818001  0.6979851684451 1.0
C      1  0.2125398472200  0.5824375561460  0.3021000675639 1.0
C      1  0.4096774824943  0.1525971979758  0.4472616537624 1.0
C      1  0.4099279279576  0.1475363487346  0.5435840294654 1.0
C      1  0.6012330914448  0.6100551315556  0.2173067769968 1.0
C      1  0.5906987417637  0.6070515408476  0.7774237866610 1.0
C      1  0.6668212692404  0.3509967839653  0.2455917116090 1.0
C      1  0.6616627661597  0.3511418088450  0.7508073633263 1.0
C      1  0.7287653205726  0.4010548339615  0.7018029513981 1.0
C      1  0.7351723359372  0.3998365660067  0.2914801585212 1.0
C      1  0.3021153208821  0.3106011237946  0.7046116259699 1.0
C      1  0.2929585110704  0.3231797597365  0.3002425113357 1.0
C      1  0.2725287298877  0.5821634282775  0.2421078350550 1.0
C      1  0.2621533277888  0.5648663981938  0.7510205443475 1.0
C      1  0.5056522969710  0.6722987174129  0.6604740737404 1.0
C      1  0.4965655098866  0.6802467998598  0.3347763590303 1.0
C      1  0.6485015459131  0.2268520531455  0.5480514001611 1.0
C      1  0.6497860384273  0.2288753957427  0.4489403188186 1.0
C      1  0.2182111753693  0.4214883998082  0.6248385805826 1.0
C      1  0.2124369447709  0.3762467103535  0.4296648953865 1.0
C      1  0.3429408035004  0.4493441439745  0.8016692499499 1.0
C      1  0.3429054067067  0.4512756582358  0.1950465038282 1.0
C      1  0.4319341621733  0.6769738100111  0.7263049427841 1.0
C      1  0.4379230226405  0.6796468872530  0.2582273857843 1.0
C      1  0.5349732993649  0.4560305449778  0.7798664986512 1.0
C      1  0.5444034170087  0.4616887992667  0.2266730002110 1.0
C      1  0.5947639391251  0.6891704806114  0.7157961459688 1.0
C      1  0.6182946027441  0.6992720814079  0.2609112023970 1.0
C      1  0.4461891941299  0.8614618803239  0.4425520638100 1.0
C      1  0.4461064086087  0.8597496935440  0.5389346001460 1.0
C      1  0.6901650040521  0.6563103731008  0.3062075773935 1.0
C      1  0.6765833145457  0.6501104243670  0.6775787077274 1.0
C      1  0.6785063620402  0.2858197482969  0.3826128491056 1.0
C      1  0.6746067063958  0.2834398330664  0.6152445891800 1.0
C      1  0.3430412902558  0.2262469758534  0.4528811251878 1.0
C      1  0.3390375647002  0.2165059506959  0.5493121800955 1.0
C      1  0.4852526190150  0.1718105083177  0.5940372683695 1.0
C      1  0.4837568280742  0.1820321019116  0.3998123424889 1.0
C      1  0.5597278969355  0.5406666694003  0.5775010025414 1.0
C      1  0.5573277300750  0.5460368442218  0.4009658385032 1.0
C      1  0.5244056600251  0.5565683163299  0.2109780889373 1.0
C      1  0.5152613006449  0.5532912815532  0.7873050769533 1.0
C      1  0.4120710235358  0.4725905572105  0.3952380323946 1.0
C      1  0.3751009948985  0.4949670232699  0.6082804561938 1.0
C      1  0.4255266016768  0.5962928416798  0.7785116256735 1.0
C      1  0.4333847706060  0.5960383887714  0.2129597104412 1.0
C      1  0.3507329994386  0.5457334154222  0.2050182561998 1.0
C      1  0.3453546326315  0.5440220205836  0.7903004709381 1.0
C      1  0.4337897464611  0.3609219366564  0.4983833677185 1.0
END
