TITL C-64438-8562-27 -4.386 3375.00 -756.07505764 0 0 93 (C1) n - 1
REM
REM Run started: at 2020.11.27 12:36:22 in /rds/project/t2_vol4/rds-t2-cs072/BORA/CARBON/AIRSS/Generating-Clusters/Str-Search/Higher-Symm/C10-100
REM VASP from code version vasp.5.4.4.18Apr17-6-g9f103f2a35 (build Oct 11 2019 16:45:47) gamma-only
REM
REM
REM
REM
REM ./C.cell (f39ce9773e2efe3fa5bbdf770a4156b8)
REM AIRSS Version 0.9.1 bugfix July 2018 build 013d7b7c2542+ Fri, 06 Jul 2018 19:26:36 +0100
REM compiler GCC version 4.8.5 20150623 (Red Hat 4.8.5-39)
REM options -cpp -mtune=generic -march=x86-64 -g -O0
REM seed 2138715337 -1953280418 822451283 -94626457 1383714862 -203651998 -114295154 -1121396653 1371059840 -1919531478 341349522 182930957
REM
REM C.POTCAR (d86ddea03c3ceb6dc662c8ad6801f873)
REM 
CELL 1.54180   15.00000   15.00000   15.00000   90.00000   90.00000   90.00000
LATT -1
SFAC C  
C      1  0.4421484018443  0.6205878654429  0.2834556768670 1.0
C      1  0.4411953276535  0.6424731139597  0.7083832852466 1.0
C      1  0.6051434624795  0.4347879947078  0.3066358549088 1.0
C      1  0.5603950330741  0.4362285946674  0.6863481494893 1.0
C      1  0.2797770565641  0.6001959340487  0.6904272157468 1.0
C      1  0.2798910293695  0.5553927304248  0.3095356960594 1.0
C      1  0.5957174046795  0.2667297727600  0.6674240015150 1.0
C      1  0.6927964112270  0.2726881379937  0.3384246151248 1.0
C      1  0.6588265394606  0.6595257724748  0.3652774225771 1.0
C      1  0.6681512980104  0.6524852391630  0.6080820960579 1.0
C      1  0.6921008027866  0.4208794722916  0.2806697669455 1.0
C      1  0.6512540371358  0.4134759074595  0.6962371684208 1.0
C      1  0.7977373146279  0.4271349886970  0.3608266948644 1.0
C      1  0.6933602831130  0.3952063200776  0.5890731560436 1.0
C      1  0.4603593164864  0.6536675129385  0.3684820464100 1.0
C      1  0.4716232627707  0.6908806218808  0.6364964257719 1.0
C      1  0.3624468200951  0.5619692351851  0.2642637542160 1.0
C      1  0.3590101522424  0.5961462771744  0.7389577708213 1.0
C      1  0.4971296050292  0.2974991767399  0.6836864152025 1.0
C      1  0.5402106913030  0.2974690511197  0.2971049668528 1.0
C      1  0.3005647954213  0.3079288453383  0.2613543294460 1.0
C      1  0.2669677631725  0.3533379402942  0.6584563827187 1.0
C      1  0.3395803076754  0.2906408891971  0.6678319992828 1.0
C      1  0.3743930881837  0.2638175077221  0.2442571445915 1.0
C      1  0.7392507090561  0.5006121244213  0.3117462370866 1.0
C      1  0.7112796868848  0.4731994369763  0.6449849418542 1.0
C      1  0.7041847745370  0.7226856799413  0.5567194780882 1.0
C      1  0.7023453322997  0.7246833066451  0.4200228117742 1.0
C      1  0.4121908906665  0.4027888250509  0.3037944537625 1.0
C      1  0.3711029177382  0.4243266865251  0.7473999287636 1.0
C      1  0.4666003704506  0.5096526711870  0.5352146150502 1.0
C      1  0.4734645680953  0.5103063246619  0.4334607535259 1.0
C      1  0.4085863949378  0.5853393936046  0.4189058069256 1.0
C      1  0.3761976948444  0.5460187679753  0.5545385771657 1.0
C      1  0.5055720220762  0.5506703174927  0.2581548726085 1.0
C      1  0.4882149434111  0.5615005906320  0.7297378291035 1.0
C      1  0.2013948536801  0.4999622589500  0.5825293907907 1.0
C      1  0.2329074634884  0.4657932209449  0.4311602188320 1.0
C      1  0.5641537614606  0.5449368988254  0.4149321526797 1.0
C      1  0.5507618381222  0.5529182671702  0.5746127610219 1.0
C      1  0.6677302041373  0.3254709283440  0.6570830867080 1.0
C      1  0.7474477162601  0.3522960520773  0.3168485064124 1.0
C      1  0.4496420430823  0.3102973417186  0.2669664682258 1.0
C      1  0.4061201288887  0.3266373567613  0.7243022663519 1.0
C      1  0.5261003731964  0.2224979674684  0.6225810820187 1.0
C      1  0.6182822549476  0.2525862439535  0.2848880184413 1.0
C      1  0.4073076632728  0.5123174931936  0.7618298126493 1.0
C      1  0.4290408207571  0.4916573682748  0.2560565732157 1.0
C      1  0.6798020725941  0.5758234566121  0.3209593591897 1.0
C      1  0.7215960066946  0.5637491005284  0.6092296570418 1.0
C      1  0.5593878566764  0.6469736348119  0.4058337454729 1.0
C      1  0.5590263159493  0.6531565813372  0.5832258341207 1.0
C      1  0.3209484309230  0.7359330407529  0.5780779784692 1.0
C      1  0.2627584273461  0.7068467665683  0.4097912891657 1.0
C      1  0.2445311268136  0.6232162215211  0.3720156805984 1.0
C      1  0.2632987864898  0.6764590540836  0.6324268005782 1.0
C      1  0.2596356848319  0.4615415706986  0.3419044160800 1.0
C      1  0.2417311176116  0.5114839403913  0.6698874234587 1.0
C      1  0.2809099763633  0.4326044030706  0.7070995213028 1.0
C      1  0.3087303050093  0.3883969389684  0.3019128843500 1.0
C      1  0.4609860253351  0.4124752442487  0.3962223179587 1.0
C      1  0.4609784480420  0.4137847649331  0.5568195006797 1.0
C      1  0.5539761091892  0.3746181298774  0.3654905588834 1.0
C      1  0.5000408772886  0.3842582133097  0.6390992818154 1.0
C      1  0.5472569066304  0.5272340418749  0.6711694818847 1.0
C      1  0.5875112321407  0.5298143621294  0.3131158454376 1.0
C      1  0.5056713370219  0.2292228605204  0.5306676780681 1.0
C      1  0.7715619637754  0.7126861495820  0.4867850216704 1.0
C      1  0.6584222732230  0.2603887940095  0.4286083098689 1.0
C      1  0.3354235025065  0.5664945174670  0.4776045823421 1.0
C      1  0.2003512083008  0.6676790912076  0.5612424162562 1.0
C      1  0.7924831835068  0.5651914058790  0.5455549000082 1.0
C      1  0.2625981691559  0.3479732542173  0.5635667456214 1.0
C      1  0.6426977785843  0.4185112161059  0.5073135151917 1.0
C      1  0.1865691401834  0.5807282092806  0.5331795824991 1.0
C      1  0.8399199482348  0.4409850598792  0.4386605647899 1.0
C      1  0.5465613473639  0.7945941860510  0.4969998179482 1.0
C      1  0.3418758047160  0.2789270361661  0.5693465403554 1.0
C      1  0.2357453005658  0.5624021332854  0.4508617922586 1.0
C      1  0.5626379110901  0.6960790361731  0.4922559142264 1.0
C      1  0.6105378755856  0.5076599252509  0.4991160348913 1.0
C      1  0.5834450191563  0.2532376897885  0.4763307226393 1.0
C      1  0.2255908696666  0.4244467946071  0.5202082389788 1.0
C      1  0.4185538094820  0.2711735903666  0.5128453773276 1.0
C      1  0.8307244204343  0.6395724404125  0.4982969066138 1.0
C      1  0.4151325989982  0.7546323201664  0.5846869448804 1.0
C      1  0.6103583746754  0.3478522660895  0.4469519294389 1.0
C      1  0.6386381729636  0.7623460041630  0.4909186817286 1.0
C      1  0.9125652263952  0.5931981351126  0.4865095816685 1.0
C      1  0.8533227434364  0.5097184427104  0.4931816814331 1.0
C      1  0.2584475509814  0.7246592790237  0.4999857711853 1.0
C      1  0.4699800670094  0.8114403894083  0.5364138332192 1.0
C      1  0.4356296663614  0.3639175828040  0.4820390601663 1.0
END
