TITL C-64634-3431-25 -2.895 3375.00 -497.50514355 0 0 60 (C1) n - 1
REM
REM Run started: at 2020.12.15 09:34:55 in /rds/project/t2_vol4/rds-t2-cs072/BORA/CARBON/AIRSS/Generating-Clusters/Str-Search/Higher-Symm/Only-C60
REM VASP from code version vasp.5.4.4.18Apr17-6-g9f103f2a35 (build Oct 11 2019 16:45:47) gamma-only
REM
REM
REM
REM
REM ./C.cell (5f7b7a0d59291d2373303da1f58b8d66)
REM AIRSS Version 0.9.1 bugfix July 2018 build 013d7b7c2542+ Fri, 06 Jul 2018 19:26:36 +0100
REM compiler GCC version 4.8.5 20150623 (Red Hat 4.8.5-39)
REM options -cpp -mtune=generic -march=x86-64 -g -O0
REM seed -525122471 -1613205528 341976630 -1010465806 -263268412 376346794 1180953110 -2021389906 752824838 -1268294244 -1492708827 -1312244103
REM
REM C.POTCAR (d86ddea03c3ceb6dc662c8ad6801f873)
REM 
CELL 1.54180   15.00000   15.00000   15.00000   90.00000   90.00000   90.00000
LATT -1
SFAC C  
C      1  0.4197568297572  0.2527446450787  0.5038466592127 1.0
C      1  0.4198737962294  0.3268551267302  0.3398046320777 1.0
C      1  0.4206200069546  0.4089307177305  0.2928409036330 1.0
C      1  0.4190671058293  0.5858128170382  0.3022514583799 1.0
C      1  0.4025354226045  0.6629917251388  0.3527117313909 1.0
C      1  0.3573108422327  0.7377320948527  0.5047526784864 1.0
C      1  0.3220008220991  0.7358343017061  0.5918602652352 1.0
C      1  0.3693693128851  0.6754086462360  0.6516447742141 1.0
C      1  0.4169738093540  0.5115448033637  0.6884651276805 1.0
C      1  0.4184520870944  0.4196286419507  0.7023211336932 1.0
C      1  0.4198513346052  0.2743768917737  0.5961857900490 1.0
C      1  0.5713405266389  0.5201911924080  0.6711876893707 1.0
C      1  0.5760122919182  0.4277749293219  0.6910267299241 1.0
C      1  0.5810876691819  0.2745765080553  0.5952013651894 1.0
C      1  0.5803498068370  0.2511420075232  0.5031645621141 1.0
C      1  0.5804112684243  0.3216428728793  0.3366249417757 1.0
C      1  0.5807123603304  0.4047309144414  0.2898973456001 1.0
C      1  0.5812035733903  0.5904837090079  0.3311317641646 1.0
C      1  0.5636981741260  0.6708447539634  0.3839589441589 1.0
C      1  0.6232092560542  0.6977190898099  0.4511259111800 1.0
C      1  0.6013132836760  0.7146745551409  0.5444552384760 1.0
C      1  0.7508431497793  0.6716444177710  0.6585528186313 1.0
C      1  0.6549542240738  0.3388302217307  0.5820384841196 1.0
C      1  0.6543008608923  0.3143558035148  0.4820054574544 1.0
C      1  0.6544433307907  0.3507371423937  0.3961381100116 1.0
C      1  0.6523337570213  0.4410119819522  0.3433128242203 1.0
C      1  0.6555154148479  0.5328290432247  0.3627870892193 1.0
C      1  0.6943548421693  0.5585660730467  0.4504155824288 1.0
C      1  0.7022215321413  0.6495074655621  0.4803734377417 1.0
C      1  0.6942445312080  0.6771299636267  0.5729669923915 1.0
C      1  0.7156533557656  0.5949564321243  0.6369584115364 1.0
C      1  0.6599705088456  0.5171181452356  0.6165047432136 1.0
C      1  0.6566928705829  0.4127720667369  0.6381576795582 1.0
C      1  0.3459537835195  0.3173507029347  0.4848236691835 1.0
C      1  0.3463674236231  0.3560781153679  0.3996563082762 1.0
C      1  0.3449845004163  0.4460067453123  0.3440774544213 1.0
C      1  0.3397916904393  0.5395329529090  0.3422506022046 1.0
C      1  0.3193298247620  0.6274603646030  0.3914198670026 1.0
C      1  0.2926623010615  0.6704448238223  0.4690941402287 1.0
C      1  0.2643661574599  0.6595539402987  0.5659528117467 1.0
C      1  0.2949186284465  0.6057609786571  0.6394274905222 1.0
C      1  0.3292009844303  0.5114662205172  0.6340358689637 1.0
C      1  0.3359676852013  0.4043329442824  0.6500560299674 1.0
C      1  0.3436029825998  0.3367121422413  0.5865063127669 1.0
C      1  0.5097744007824  0.7104394586303  0.5670017601268 1.0
C      1  0.4618507547284  0.6586010236966  0.6392684941769 1.0
C      1  0.4901223055000  0.5693763136852  0.6708981178052 1.0
C      1  0.5000635054973  0.3712145218071  0.6984013974176 1.0
C      1  0.5008324041905  0.2921175560137  0.6438029915934 1.0
C      1  0.4996979848639  0.2436144484111  0.4540604831366 1.0
C      1  0.4997712179295  0.2822835586604  0.3659037762059 1.0
C      1  0.5022225489688  0.4536771235163  0.2728361247337 1.0
C      1  0.5051028760484  0.5486373379954  0.2884619504338 1.0
C      1  0.4736621199551  0.7013019854601  0.4015709959623 1.0
C      1  0.4507921091397  0.7292007086350  0.4898716734201 1.0
C      1  0.5720007088373  0.4694553928041  0.4896279878885 1.0
C      1  0.3426377319825  0.5047248613957  0.5383828811391 1.0
C      1  0.6498547652073  0.5098265757688  0.5167210835997 1.0
C      1  0.4101545093818  0.4984863483859  0.4905880387993 1.0
C      1  0.4916657366865  0.4719697531186  0.4720086117441 1.0
END
