TITL C-64677-7008-4 -2.843 3375.00 -466.82969810 0 0 60 (C2) n - 1
REM
REM Run started: at 2020.12.15 03:39:12 in /rds/project/t2_vol4/rds-t2-cs072/BORA/CARBON/AIRSS/Generating-Clusters/Str-Search/Higher-Symm/Only-C60
REM VASP from code version vasp.5.4.4.18Apr17-6-g9f103f2a35 (build Oct 11 2019 16:45:47) gamma-only
REM
REM
REM
REM
REM ./C.cell (5f7b7a0d59291d2373303da1f58b8d66)
REM AIRSS Version 0.9.1 bugfix July 2018 build 013d7b7c2542+ Fri, 06 Jul 2018 19:26:36 +0100
REM compiler GCC version 4.8.5 20150623 (Red Hat 4.8.5-39)
REM options -cpp -mtune=generic -march=x86-64 -g -O0
REM seed -293313332 -1007398038 -1833466806 1812389369 -635843998 -1814008282 2098316824 78537592 -877456235 1880961543 -389034404 -1944707377
REM
REM C.POTCAR (d86ddea03c3ceb6dc662c8ad6801f873)
REM 
CELL 1.54180   15.00000   15.00000   15.00000   90.00000   90.00000   90.00000
LATT -1
SFAC C  
C      1  0.5347584580983  0.5820238906504  0.6089593716689 1.0
C      1  0.5888300610174  0.4936826684118  0.6087290973663 1.0
C      1  0.5211967456883  0.4150238383311  0.6087372795721 1.0
C      1  0.4262113526502  0.4563685762521  0.6102248561390 1.0
C      1  0.4335105329573  0.5590559259422  0.6082277318390 1.0
C      1  0.5347607360004  0.4179689809208  0.3910383488560 1.0
C      1  0.5888223229057  0.5063175031422  0.3912695845183 1.0
C      1  0.5211961727082  0.5849804866499  0.3912612463605 1.0
C      1  0.4262115242266  0.5436276971769  0.3897767439455 1.0
C      1  0.4335118335897  0.4409417879182  0.3917747291128 1.0
C      1  0.7448523849723  0.5350041497122  0.5998695515478 1.0
C      1  0.6113754935449  0.2815292276765  0.5990671734430 1.0
C      1  0.3158876215546  0.3482534514804  0.6161197295550 1.0
C      1  0.2781778503155  0.6075836075220  0.5902691905046 1.0
C      1  0.5380183541409  0.7424695116150  0.6009639991577 1.0
C      1  0.7448451919655  0.4650864298812  0.4000521341804 1.0
C      1  0.6114103124586  0.7184666972421  0.4009650109214 1.0
C      1  0.3159049301514  0.6517640985405  0.3838868534220 1.0
C      1  0.2781804742711  0.3924023330651  0.4097297408938 1.0
C      1  0.5379421710111  0.2575020099250  0.3990955314517 1.0
C      1  0.3876631750984  0.3888317468363  0.3100750341916 1.0
C      1  0.3592286044316  0.5708278787754  0.3104840822280 1.0
C      1  0.5263027670234  0.6565436303419  0.3101197940771 1.0
C      1  0.6578170042075  0.5237222176598  0.3104298380810 1.0
C      1  0.5733935595659  0.3571111179719  0.3101050316907 1.0
C      1  0.3876554844447  0.6111640397971  0.6899292610300 1.0
C      1  0.3592363143625  0.4291683048811  0.6895171707088 1.0
C      1  0.5263027560067  0.3434390287505  0.6898599320204 1.0
C      1  0.6578034209103  0.4762834511331  0.6895911114372 1.0
C      1  0.5733995554591  0.6428874173912  0.6898756319011 1.0
C      1  0.3708678035758  0.3323212552545  0.6910719994220 1.0
C      1  0.2969460762646  0.5710927299506  0.6752474762843 1.0
C      1  0.5043381684860  0.7121584337098  0.6839164223149 1.0
C      1  0.7055720467481  0.5624611622038  0.6813793999002 1.0
C      1  0.6227565748911  0.3254704088466  0.6817599796686 1.0
C      1  0.3708723084099  0.6676697228599  0.3089223634277 1.0
C      1  0.2969481099840  0.4288984262794  0.3247533484037 1.0
C      1  0.5043431857918  0.2878318349679  0.3161154941158 1.0
C      1  0.7055623346731  0.4375358218085  0.3185814839150 1.0
C      1  0.6227557991533  0.6745364622970  0.3182580442333 1.0
C      1  0.2891126673882  0.4860378137988  0.7065510968193 1.0
C      1  0.4208491934490  0.6897896314260  0.7133418571508 1.0
C      1  0.6611641739311  0.6367392205419  0.7081304188375 1.0
C      1  0.6793091615985  0.3913690296172  0.7089426738125 1.0
C      1  0.4518490393058  0.2985218868566  0.7114209169544 1.0
C      1  0.2891109396001  0.5139519897444  0.2934501395417 1.0
C      1  0.4208531950407  0.3102021479651  0.2866766923735 1.0
C      1  0.6611433323551  0.3632731190816  0.2918316146325 1.0
C      1  0.6793382626855  0.6086513277804  0.2910956142856 1.0
C      1  0.4518571357892  0.7014538707372  0.2885517519570 1.0
C      1  0.5567575777992  0.3395690943557  0.5460308625698 1.0
C      1  0.3646224119907  0.3999634580578  0.5496511472566 1.0
C      1  0.3596088775613  0.5969103785097  0.5428639725470 1.0
C      1  0.5478923628587  0.6638454387149  0.5468025468270 1.0
C      1  0.6711429114388  0.5041306494026  0.5461685973144 1.0
C      1  0.5567619761069  0.6604377276873  0.4539742439781 1.0
C      1  0.3646260759231  0.6000372822887  0.4503497050601 1.0
C      1  0.3596107748981  0.4030864233433  0.4571377252707 1.0
C      1  0.5478889771951  0.3361458790457  0.4531995551658 1.0
C      1  0.6711313793692  0.4958756672733  0.4538180641387 1.0
END
