TITL C-64438-8562-41 -1.753 3375.00 -306.40845415 0 0 38 (C2v) n - 1
REM
REM Run started: at 2020.11.27 15:38:53 in /rds/project/t2_vol4/rds-t2-cs072/BORA/CARBON/AIRSS/Generating-Clusters/Str-Search/Higher-Symm/C10-100
REM VASP from code version vasp.5.4.4.18Apr17-6-g9f103f2a35 (build Oct 11 2019 16:45:47) gamma-only
REM
REM
REM
REM
REM ./C.cell (f39ce9773e2efe3fa5bbdf770a4156b8)
REM AIRSS Version 0.9.1 bugfix July 2018 build 013d7b7c2542+ Fri, 06 Jul 2018 19:26:36 +0100
REM compiler GCC version 4.8.5 20150623 (Red Hat 4.8.5-39)
REM options -cpp -mtune=generic -march=x86-64 -g -O0
REM seed 938406744 1317853060 -851788531 -682120125 1871394200 -493768173 1643328587 -1165358422 -558875377 1643218802 1230833997 1506011949
REM
REM C.POTCAR (d86ddea03c3ceb6dc662c8ad6801f873)
REM 
CELL 1.54180   15.00000   15.00000   15.00000   90.00000   90.00000   90.00000
LATT -1
SFAC C  
C      1  0.4138921394099  0.3125631368483  0.5475547412971 1.0
C      1  0.4954718131732  0.3127089248193  0.4018961438662 1.0
C      1  0.5785940729452  0.3165063199392  0.5487246698600 1.0
C      1  0.4137954281482  0.7008797132995  0.5473943050406 1.0
C      1  0.4953906176572  0.7006696595029  0.4016902802154 1.0
C      1  0.5785252043413  0.6967698053774  0.5485929948241 1.0
C      1  0.4137913641720  0.3125246610516  0.4515280021455 1.0
C      1  0.4956214794108  0.3127363111547  0.5971558966120 1.0
C      1  0.5785367405382  0.3165205337917  0.4502043494160 1.0
C      1  0.4136801608712  0.7008192068724  0.4513760503832 1.0
C      1  0.4955475878381  0.7006967249860  0.5969896749201 1.0
C      1  0.5784069499364  0.6966894982599  0.4500694995454 1.0
C      1  0.3812292868043  0.6234969176682  0.5985800059070 1.0
C      1  0.4675854621328  0.6228354650044  0.3469139436120 1.0
C      1  0.6401869101351  0.6180117982026  0.5527526570887 1.0
C      1  0.3813240710210  0.3899072416588  0.5987131168438 1.0
C      1  0.4676140914439  0.3903885130731  0.3470098420271 1.0
C      1  0.6402814865411  0.3951517291203  0.5528527816765 1.0
C      1  0.3811422496464  0.6234186893203  0.4001687185247 1.0
C      1  0.4677692700122  0.6229345884844  0.6518446664259 1.0
C      1  0.6402058572809  0.6180051991844  0.4457993534896 1.0
C      1  0.3812062030270  0.3898069368953  0.4002080053723 1.0
C      1  0.4677918402945  0.3905140838784  0.6519168984231 1.0
C      1  0.6402963467551  0.3951116546642  0.4458795826012 1.0
C      1  0.3427933301218  0.4575865506459  0.4493746132915 1.0
C      1  0.6221924589317  0.4597879109428  0.3738648386298 1.0
C      1  0.5292628930907  0.4573638068506  0.6660756338143 1.0
C      1  0.3428111722168  0.5555383776111  0.4493448455715 1.0
C      1  0.6221285819265  0.5532747199083  0.3738870076369 1.0
C      1  0.5292142559040  0.5560126360812  0.6659826137086 1.0
C      1  0.3428788122210  0.4576302115150  0.5494278240692 1.0
C      1  0.6223313413362  0.4598677691113  0.6248313138299 1.0
C      1  0.5290593639811  0.4572640049164  0.3327391230821 1.0
C      1  0.3428762007018  0.5556073954003  0.5493849513632 1.0
C      1  0.6222968497354  0.5533307251139  0.6247563251848 1.0
C      1  0.5289928778102  0.5558661323073  0.3327465266706 1.0
C      1  0.5527446892473  0.6003145970835  0.4992957458405 1.0
C      1  0.5528925392392  0.4129133494548  0.4993866571897 1.0
END
