TITL C-64634-3431-30 -2.937 3375.00 -482.56743165 0 0 60 (C1) n - 1
REM
REM Run started: at 2020.12.15 10:40:36 in /rds/project/t2_vol4/rds-t2-cs072/BORA/CARBON/AIRSS/Generating-Clusters/Str-Search/Higher-Symm/Only-C60
REM VASP from code version vasp.5.4.4.18Apr17-6-g9f103f2a35 (build Oct 11 2019 16:45:47) gamma-only
REM
REM
REM
REM
REM ./C.cell (5f7b7a0d59291d2373303da1f58b8d66)
REM AIRSS Version 0.9.1 bugfix July 2018 build 013d7b7c2542+ Fri, 06 Jul 2018 19:26:36 +0100
REM compiler GCC version 4.8.5 20150623 (Red Hat 4.8.5-39)
REM options -cpp -mtune=generic -march=x86-64 -g -O0
REM seed 640835406 708628534 1353776936 -960765838 -2101188344 -877152204 1845826388 1636627033 1194459357 -709019399 48861631 -980225069
REM
REM C.POTCAR (d86ddea03c3ceb6dc662c8ad6801f873)
REM 
CELL 1.54180   15.00000   15.00000   15.00000   90.00000   90.00000   90.00000
LATT -1
SFAC C  
C      1  0.3591936494116  0.3191687417301  0.6023927728220 1.0
C      1  0.4967096147821  0.3116299671990  0.3323161253833 1.0
C      1  0.6456106007210  0.3097540495132  0.5762009820782 1.0
C      1  0.4887503527249  0.6660185989841  0.3281454872777 1.0
C      1  0.6527995489127  0.6715378568641  0.5783424254494 1.0
C      1  0.3547177431271  0.6650459529857  0.5951572562028 1.0
C      1  0.3029758249709  0.3439706365657  0.5367913386664 1.0
C      1  0.5751840462943  0.3554289593428  0.3035267963086 1.0
C      1  0.6343127339910  0.3578212978624  0.6562305281472 1.0
C      1  0.5810165320084  0.2708422377384  0.3471754832687 1.0
C      1  0.5890673220630  0.2748342557525  0.6439846881541 1.0
C      1  0.2947355291438  0.2749883111828  0.4708993160773 1.0
C      1  0.7080660088277  0.6262014872445  0.4304720192262 1.0
C      1  0.4567351577150  0.6247713490744  0.7174679629712 1.0
C      1  0.3328347531582  0.6213970670681  0.3548404042974 1.0
C      1  0.5754111677679  0.7213973597096  0.4436242980958 1.0
C      1  0.5080658329186  0.7224056014187  0.5958468414858 1.0
C      1  0.4104001806429  0.7189097693530  0.4617901123210 1.0
C      1  0.4210760985330  0.3274227653405  0.3898641058396 1.0
C      1  0.6318244735354  0.3194571819281  0.4804273552239 1.0
C      1  0.4492080136288  0.3307950090101  0.6272215577910 1.0
C      1  0.7052071565631  0.5270845495651  0.5568298913271 1.0
C      1  0.3522584091067  0.5204547574470  0.6518703564663 1.0
C      1  0.4448005453491  0.5205355488853  0.2962112133067 1.0
C      1  0.6109676366552  0.4395930711875  0.3443536653220 1.0
C      1  0.5852395053294  0.4434680461027  0.6711797711762 1.0
C      1  0.3164116284581  0.4348855513721  0.4878314172901 1.0
C      1  0.4070811718419  0.4091136463496  0.4404048633495 1.0
C      1  0.6066042149026  0.4090753179360  0.4455547759635 1.0
C      1  0.4986824475442  0.4186977734467  0.6157062997956 1.0
C      1  0.4937340519697  0.4854818845874  0.5526500185295 1.0
C      1  0.4637106209268  0.4771738851955  0.4633342563759 1.0
C      1  0.5557916847420  0.4744868792417  0.4826061089839 1.0
C      1  0.4670879711506  0.5404995897151  0.7600636874610 1.0
C      1  0.2944109964696  0.5352259092887  0.3429386919355 1.0
C      1  0.7425705559157  0.5412290808297  0.4036407005801 1.0
C      1  0.6133070699037  0.6175285350447  0.6490603870493 1.0
C      1  0.3155623642156  0.6094501162379  0.5255144043163 1.0
C      1  0.5706603598283  0.6130523478262  0.3286003497251 1.0
C      1  0.5010364734787  0.2585494589889  0.6575009526648 1.0
C      1  0.3506809929049  0.2678808415186  0.4080482168033 1.0
C      1  0.6245119728680  0.2468787195826  0.4229881382519 1.0
C      1  0.6314177604738  0.6616880162044  0.3911207945917 1.0
C      1  0.5279179326155  0.6636757762194  0.6707759220674 1.0
C      1  0.3383959463052  0.6571720935342  0.4410102552169 1.0
C      1  0.5106789010206  0.4609399183664  0.7403539533291 1.0
C      1  0.2917844852376  0.4562537548337  0.3890592774005 1.0
C      1  0.7071671378677  0.4612999689020  0.3743641647820 1.0
C      1  0.4156144619143  0.6144580877800  0.3052323260025 1.0
C      1  0.7102080339419  0.6211298784286  0.5266121059327 1.0
C      1  0.3725537406236  0.6153656074964  0.6708774617760 1.0
C      1  0.5855250259471  0.7249296641684  0.5373162517132 1.0
C      1  0.4217577159680  0.7218168843288  0.5580432562130 1.0
C      1  0.4862254024995  0.7213466527661  0.4056307174418 1.0
C      1  0.6400664234018  0.5260799586231  0.6360221301556 1.0
C      1  0.3184928075940  0.5174626604533  0.5542085316697 1.0
C      1  0.5479418846887  0.5213133781645  0.3150201760832 1.0
C      1  0.7348830875569  0.4798947949118  0.4755669230005 1.0
C      1  0.4102284541200  0.4772411140839  0.7175615703253 1.0
C      1  0.3601278832216  0.4737875245181  0.3116181585377 1.0
END
