TITL C-64528-842-23 -2.912 3375.00 -500.36166209 0 0 60 (C1) n - 1
REM
REM Run started: at 2020.12.15 09:02:14 in /rds/project/t2_vol4/rds-t2-cs072/BORA/CARBON/AIRSS/Generating-Clusters/Str-Search/Higher-Symm/Only-C60
REM VASP from code version vasp.5.4.4.18Apr17-6-g9f103f2a35 (build Oct 11 2019 16:45:47) gamma-only
REM
REM
REM
REM
REM ./C.cell (5f7b7a0d59291d2373303da1f58b8d66)
REM AIRSS Version 0.9.1 bugfix July 2018 build 013d7b7c2542+ Fri, 06 Jul 2018 19:26:36 +0100
REM compiler GCC version 4.8.5 20150623 (Red Hat 4.8.5-39)
REM options -cpp -mtune=generic -march=x86-64 -g -O0
REM seed -1632038803 -1436997054 525117676 57559685 1650762063 -325160627 -1954374302 1358267080 691019412 1221368851 -1094667194 791530547
REM
REM C.POTCAR (d86ddea03c3ceb6dc662c8ad6801f873)
REM 
CELL 1.54180   15.00000   15.00000   15.00000   90.00000   90.00000   90.00000
LATT -1
SFAC C  
C      1  0.5606660296347  0.3323194205529  0.3213110627079 1.0
C      1  0.5603430248750  0.2793722185371  0.4020420489813 1.0
C      1  0.5608745870608  0.2973401656557  0.5866939809575 1.0
C      1  0.5512364914887  0.3206364015152  0.6791671824344 1.0
C      1  0.5633015522003  0.4130951028869  0.7038347655236 1.0
C      1  0.5602146409524  0.5971346741859  0.7207624503813 1.0
C      1  0.5607709323731  0.6779692686275  0.6678901444790 1.0
C      1  0.5617554276460  0.7416110556420  0.4987090235941 1.0
C      1  0.5616634654517  0.7210255344242  0.4062765420284 1.0
C      1  0.5614706148565  0.5937398427628  0.2786979436097 1.0
C      1  0.5615005937557  0.5014039687646  0.2577925082156 1.0
C      1  0.4069226944971  0.3213593635979  0.6796076293800 1.0
C      1  0.3946279261824  0.4132458678374  0.7059225867938 1.0
C      1  0.4020586125848  0.5998260426939  0.7241927948579 1.0
C      1  0.4023584416177  0.6790503630713  0.6698893913942 1.0
C      1  0.4020071342549  0.7405171424349  0.4996754635407 1.0
C      1  0.4016751337524  0.7183341871229  0.4079624712076 1.0
C      1  0.4015202260022  0.5921660683625  0.2816184715703 1.0
C      1  0.4017826971488  0.5005354234728  0.2593402275486 1.0
C      1  0.4020291667478  0.3303306123201  0.3204422778757 1.0
C      1  0.4016989812315  0.2754941648501  0.3992431988170 1.0
C      1  0.3982695993105  0.2956249607948  0.5867806640155 1.0
C      1  0.6298121775496  0.4810185452184  0.3255165295211 1.0
C      1  0.6295302188927  0.3930132569005  0.3576556851555 1.0
C      1  0.6279136711633  0.3336141132678  0.4419666722046 1.0
C      1  0.6287614537262  0.3436296581498  0.5361233786038 1.0
C      1  0.6672834712623  0.4250120587281  0.5744171391975 1.0
C      1  0.6296730636025  0.4638342629530  0.6561504837077 1.0
C      1  0.6280512091634  0.5576625487286  0.6660368125378 1.0
C      1  0.6295439070835  0.6417465154210  0.6070299232029 1.0
C      1  0.6298138445204  0.6739084463886  0.5189601774923 1.0
C      1  0.6305782347433  0.6508528198277  0.4152645322856 1.0
C      1  0.6305261987442  0.5844811872589  0.3488109919294 1.0
C      1  0.4815831288543  0.4514545250301  0.2459938181369 1.0
C      1  0.4819244977670  0.3610855225988  0.2790373218628 1.0
C      1  0.4809835964448  0.2537892574140  0.4478673245700 1.0
C      1  0.4798175202690  0.2646393201052  0.5430208289700 1.0
C      1  0.4796125819674  0.2895483696509  0.7335576460698 1.0
C      1  0.4797312606141  0.4550117033811  0.7367806347823 1.0
C      1  0.4810768430655  0.5510514747952  0.7462947427282 1.0
C      1  0.4821618736762  0.7203041227214  0.6389837853607 1.0
C      1  0.4818723872877  0.7537347298661  0.5488119924142 1.0
C      1  0.4813673862926  0.7100979921717  0.3573076016058 1.0
C      1  0.4812591349009  0.6426959870806  0.2899064530875 1.0
C      1  0.3337475290158  0.3304257153712  0.4396474254968 1.0
C      1  0.3364714657729  0.3458791542347  0.5306177292151 1.0
C      1  0.3278917897009  0.4387810393761  0.5605630169736 1.0
C      1  0.3354175945907  0.4696102185940  0.6530569042697 1.0
C      1  0.3334342347676  0.5602995804724  0.6688643937391 1.0
C      1  0.3335687804267  0.6423975052687  0.6090725635066 1.0
C      1  0.3343417828046  0.6715638566055  0.5210530845806 1.0
C      1  0.3348471887502  0.6460675203456  0.4203064867755 1.0
C      1  0.3348317574519  0.5797405530198  0.3541248020018 1.0
C      1  0.3341700975533  0.4790591809520  0.3286539545731 1.0
C      1  0.3333369385483  0.3909521524935  0.3575389585058 1.0
C      1  0.7260874896246  0.4840220680345  0.5152555600507 1.0
C      1  0.6405261002264  0.4988591571331  0.5007931802812 1.0
C      1  0.3857966969748  0.4880992677517  0.5117336225600 1.0
C      1  0.5526369731267  0.5120785821284  0.4874249080359 1.0
C      1  0.4686995454488  0.5059896804479  0.4937578040940 1.0
END
