TITL C-64677-7008-10 -2.852 3375.00 -480.69540169 0 0 60 (D2d) n - 1
REM
REM Run started: at 2020.12.15 05:33:08 in /rds/project/t2_vol4/rds-t2-cs072/BORA/CARBON/AIRSS/Generating-Clusters/Str-Search/Higher-Symm/Only-C60
REM VASP from code version vasp.5.4.4.18Apr17-6-g9f103f2a35 (build Oct 11 2019 16:45:47) gamma-only
REM
REM
REM
REM
REM ./C.cell (5f7b7a0d59291d2373303da1f58b8d66)
REM AIRSS Version 0.9.1 bugfix July 2018 build 013d7b7c2542+ Fri, 06 Jul 2018 19:26:36 +0100
REM compiler GCC version 4.8.5 20150623 (Red Hat 4.8.5-39)
REM options -cpp -mtune=generic -march=x86-64 -g -O0
REM seed 1105924031 589978341 256326303 651034311 2013923706 1389227883 1861349061 -261404639 1974041831 -2022123545 1705173509 2147220320
REM
REM C.POTCAR (d86ddea03c3ceb6dc662c8ad6801f873)
REM 
CELL 1.54180   15.00000   15.00000   15.00000   90.00000   90.00000   90.00000
LATT -1
SFAC C  
C      1  0.3215540174967  0.6183171007236  0.5485932204539 1.0
C      1  0.3215540028075  0.3816829262558  0.4514067861148 1.0
C      1  0.6784459843879  0.3816829063524  0.5485931956327 1.0
C      1  0.6784460130926  0.6183170893362  0.4514068024367 1.0
C      1  0.3215539693528  0.5485932194004  0.6183171113730 1.0
C      1  0.3215540332477  0.4514067960995  0.3816828966467 1.0
C      1  0.6784459862144  0.5485932148031  0.3816829192194 1.0
C      1  0.6784459942533  0.4514068066930  0.6183170527583 1.0
C      1  0.3333406808759  0.3253530770684  0.6072050375798 1.0
C      1  0.3333406794003  0.6746469645488  0.3927949301440 1.0
C      1  0.6666593291353  0.6746469513738  0.6072050756839 1.0
C      1  0.6666593171200  0.3253530388184  0.3927949494635 1.0
C      1  0.3333406692653  0.6072050514195  0.3253530093233 1.0
C      1  0.3333406699723  0.3927949389030  0.6746469414295 1.0
C      1  0.6666593043723  0.6072050581297  0.6746469480835 1.0
C      1  0.6666593329263  0.3927949504296  0.3253530530928 1.0
C      1  0.5472910432653  0.5134446111229  0.7387483880275 1.0
C      1  0.5472910703962  0.4865554179946  0.2612516118471 1.0
C      1  0.4527089316728  0.4865553724844  0.7387484100805 1.0
C      1  0.4527089518389  0.5134445843362  0.2612515848265 1.0
C      1  0.5472910649684  0.7387484114749  0.5134445958031 1.0
C      1  0.5472910516976  0.2612515937913  0.4865554053612 1.0
C      1  0.4527089485320  0.7387483796943  0.4865553923769 1.0
C      1  0.4527089339823  0.2612515911341  0.5134446128992 1.0
C      1  0.2931741948371  0.4581196900106  0.6139787509506 1.0
C      1  0.2931742627525  0.5418803347237  0.3860212397872 1.0
C      1  0.7068257876255  0.5418803306083  0.6139787361536 1.0
C      1  0.7068257721138  0.4581196741250  0.3860212382439 1.0
C      1  0.2931742656049  0.6139787666164  0.4581196656678 1.0
C      1  0.2931742058857  0.3860212734814  0.5418803101921 1.0
C      1  0.7068258059635  0.6139787582227  0.5418803311421 1.0
C      1  0.7068257650224  0.3860212432347  0.4581196683467 1.0
C      1  0.5783803168089  0.7172047586491  0.6041743101223 1.0
C      1  0.5783803159362  0.2827952618499  0.3958256887270 1.0
C      1  0.4216196832754  0.2827952561863  0.6041743223068 1.0
C      1  0.4216196771280  0.7172047409602  0.3958256673670 1.0
C      1  0.5783802846592  0.6041743223445  0.7172047250988 1.0
C      1  0.5783803455384  0.3958256998071  0.2827952351947 1.0
C      1  0.4216196720202  0.6041742999838  0.2827952346514 1.0
C      1  0.4216196872572  0.3958256647053  0.7172047320026 1.0
C      1  0.5931859003795  0.5444742478165  0.3284001923140 1.0
C      1  0.5931859216861  0.4555258196681  0.6715997848082 1.0
C      1  0.4068141153236  0.4555257557441  0.3284001728313 1.0
C      1  0.4068140613734  0.5444741582395  0.6715997952905 1.0
C      1  0.5931859105643  0.3284001774241  0.5444742295841 1.0
C      1  0.5931859181171  0.6715997829678  0.4555258320524 1.0
C      1  0.4068140799813  0.3284002051110  0.4555258213358 1.0
C      1  0.4068141002938  0.6715998270370  0.5444742661862 1.0
C      1  0.5323206345272  0.5980225866296  0.4654139478798 1.0
C      1  0.5323206068231  0.4019773875779  0.5345861176562 1.0
C      1  0.4676793760618  0.4019774014362  0.4654139212770 1.0
C      1  0.4676793843996  0.5980225891583  0.5345861229651 1.0
C      1  0.5323206124889  0.4654138951107  0.5980226046147 1.0
C      1  0.5323206210387  0.5345860923533  0.4019774261090 1.0
C      1  0.4676793943883  0.4654139006051  0.4019774094906 1.0
C      1  0.4676793520622  0.5345860675844  0.5980226012005 1.0
C      1  0.4716263716372  0.6767930383877  0.3232069174273 1.0
C      1  0.5283736280807  0.3232069604468  0.3232069056688 1.0
C      1  0.5283735747131  0.6767931031788  0.6767930388504 1.0
C      1  0.4716264133571  0.3232068756263  0.6767931058456 1.0
END
