TITL C-64528-842-39 -2.797 3375.00 -441.00577568 0 0 60 (Th) n - 1
REM
REM Run started: at 2020.12.15 13:41:00 in /rds/project/t2_vol4/rds-t2-cs072/BORA/CARBON/AIRSS/Generating-Clusters/Str-Search/Higher-Symm/Only-C60
REM VASP from code version vasp.5.4.4.18Apr17-6-g9f103f2a35 (build Oct 11 2019 16:45:47) gamma-only
REM
REM
REM
REM
REM ./C.cell (5f7b7a0d59291d2373303da1f58b8d66)
REM AIRSS Version 0.9.1 bugfix July 2018 build 013d7b7c2542+ Fri, 06 Jul 2018 19:26:36 +0100
REM compiler GCC version 4.8.5 20150623 (Red Hat 4.8.5-39)
REM options -cpp -mtune=generic -march=x86-64 -g -O0
REM seed 869860561 -1235661802 1431421347 1395993693 623660627 -760837496 -123862738 -236731005 539486396 -1779365861 1379190769 -1593831269
REM
REM C.POTCAR (d86ddea03c3ceb6dc662c8ad6801f873)
REM 
CELL 1.54180   15.00000   15.00000   15.00000   90.00000   90.00000   90.00000
LATT -1
SFAC C  
C      1  0.5467398197062  0.4251465543683  0.7159498042797 1.0
C      1  0.4251535317610  0.7159556987879  0.5467333917818 1.0
C      1  0.7159407645837  0.5467131796075  0.4251471283532 1.0
C      1  0.4532563320383  0.5748358452781  0.7159354284784 1.0
C      1  0.5467380752104  0.5748525995612  0.2840612934460 1.0
C      1  0.4532521338895  0.4251637624823  0.2840541914356 1.0
C      1  0.5748427776678  0.2840705295042  0.5467525348946 1.0
C      1  0.4251590461358  0.2840522774954  0.4532387913363 1.0
C      1  0.5748490957792  0.7159358777502  0.4532763269464 1.0
C      1  0.2840552969284  0.4532289301487  0.4251617786329 1.0
C      1  0.7159406081952  0.4532887779098  0.5748580487678 1.0
C      1  0.2840568903894  0.5467737371625  0.5748305227731 1.0
C      1  0.5467421788757  0.4251624334267  0.2840651698027 1.0
C      1  0.4251579358074  0.7159281655441  0.4532484941377 1.0
C      1  0.7159450545795  0.5467715590477  0.5748371104397 1.0
C      1  0.4532599017417  0.5748524179326  0.2840501442555 1.0
C      1  0.5467474412723  0.5748352570617  0.7159442819834 1.0
C      1  0.4532627125140  0.4251457409708  0.7159396324006 1.0
C      1  0.5748480061914  0.2840448139345  0.4532685394423 1.0
C      1  0.4251516838618  0.2840636236826  0.5467234385931 1.0
C      1  0.5748424349327  0.7159489616091  0.5467600951255 1.0
C      1  0.2840607527409  0.4532871678129  0.5748518261497 1.0
C      1  0.7159424655532  0.4532276306052  0.4251679444972 1.0
C      1  0.2840581922184  0.5467106966512  0.4251404903407 1.0
C      1  0.5455760193446  0.6788749308995  0.7074999660333 1.0
C      1  0.6788700274388  0.7075288260769  0.5455953361492 1.0
C      1  0.7075095710967  0.5455916976151  0.6788718379940 1.0
C      1  0.4544630490523  0.3210997703257  0.7074354752165 1.0
C      1  0.5455337524596  0.3211052861363  0.2925713032666 1.0
C      1  0.4544190256759  0.6788796806768  0.2924896006819 1.0
C      1  0.3210965132843  0.2925845753854  0.5455235072728 1.0
C      1  0.6788663953008  0.2924466943686  0.4543937724821 1.0
C      1  0.3210904216008  0.7073782630632  0.4544947194739 1.0
C      1  0.2925689531992  0.4544751034614  0.6789017468512 1.0
C      1  0.7075005255851  0.4544146888169  0.3211288220447 1.0
C      1  0.2925662230361  0.5455276468804  0.3210948492885 1.0
C      1  0.5455350459302  0.6789000912203  0.2925677171116 1.0
C      1  0.6789051164617  0.7074096634482  0.4544796827741 1.0
C      1  0.7074390616375  0.5455299696139  0.3210998366488 1.0
C      1  0.4544187761132  0.3211267798760  0.2924919023217 1.0
C      1  0.5455792032169  0.3211192223945  0.7075070456940 1.0
C      1  0.4544612086659  0.6788919660175  0.7074365607011 1.0
C      1  0.3211293835883  0.2924767656468  0.4544079623956 1.0
C      1  0.6789080217327  0.2926143776918  0.5455100845149 1.0
C      1  0.3211360454818  0.7075603996675  0.5456108748275 1.0
C      1  0.2924960606682  0.4544115635751  0.3211264276174 1.0
C      1  0.7074282767997  0.4544757520704  0.6789057101195 1.0
C      1  0.2924916921556  0.5455902137051  0.6788685750302 1.0
C      1  0.3949920601742  0.4999683275853  0.7088682117233 1.0
C      1  0.5000264993784  0.7088741394223  0.3949926834154 1.0
C      1  0.6050079079560  0.5000255290325  0.2911310863826 1.0
C      1  0.5000271367604  0.2911440946330  0.3949935311823 1.0
C      1  0.4999758563627  0.2911266060631  0.6050072310511 1.0
C      1  0.4999789184965  0.7088551065523  0.6050065051044 1.0
C      1  0.7088656732412  0.3949936010136  0.5000639818000 1.0
C      1  0.2911351453117  0.6050064130627  0.4999304209103 1.0
C      1  0.7088645336793  0.6050063033314  0.4999516683303 1.0
C      1  0.2911346847946  0.3949936119299  0.5000443074756 1.0
C      1  0.6050059822350  0.4999673385111  0.7088611583217 1.0
C      1  0.3949940995097  0.5000287618939  0.2911394894978 1.0
END
