TITL C-64677-7008-32 -2.866 3375.00 -463.71937568 0 0 60 (C2) n - 1
REM
REM Run started: at 2020.12.15 11:35:03 in /rds/project/t2_vol4/rds-t2-cs072/BORA/CARBON/AIRSS/Generating-Clusters/Str-Search/Higher-Symm/Only-C60
REM VASP from code version vasp.5.4.4.18Apr17-6-g9f103f2a35 (build Oct 11 2019 16:45:47) gamma-only
REM
REM
REM
REM
REM ./C.cell (5f7b7a0d59291d2373303da1f58b8d66)
REM AIRSS Version 0.9.1 bugfix July 2018 build 013d7b7c2542+ Fri, 06 Jul 2018 19:26:36 +0100
REM compiler GCC version 4.8.5 20150623 (Red Hat 4.8.5-39)
REM options -cpp -mtune=generic -march=x86-64 -g -O0
REM seed -1911019433 565016729 1943626342 1067734638 -1339746150 195290847 -517201595 -102705655 1995412761 1405435922 2022453798 -858011100
REM
REM C.POTCAR (d86ddea03c3ceb6dc662c8ad6801f873)
REM 
CELL 1.54180   15.00000   15.00000   15.00000   90.00000   90.00000   90.00000
LATT -1
SFAC C  
C      1  0.4333533059598  0.5113323145246  0.7581372913079 1.0
C      1  0.5666495167209  0.4886623738766  0.7581370919873 1.0
C      1  0.3495370755800  0.2703212323128  0.3769529556627 1.0
C      1  0.6504609776626  0.7296831612753  0.3769562354723 1.0
C      1  0.4697530941018  0.3173263743123  0.5954170701001 1.0
C      1  0.5302464799563  0.6826704121837  0.5954191318867 1.0
C      1  0.7043261402587  0.3468491976527  0.2962870181748 1.0
C      1  0.2956739279960  0.6531556579776  0.2962804216249 1.0
C      1  0.4651517658790  0.7002815467427  0.5210917742778 1.0
C      1  0.5348484502944  0.2997190574284  0.5210891474202 1.0
C      1  0.5171679266517  0.5842322225683  0.5814739636081 1.0
C      1  0.4828327109304  0.4157650702674  0.5814722378698 1.0
C      1  0.4209596613622  0.5604668697396  0.5692803421496 1.0
C      1  0.5790410708739  0.4395300042214  0.5692789843031 1.0
C      1  0.3815621500691  0.6456059159409  0.5267645445045 1.0
C      1  0.6184378661232  0.3543916499188  0.5267626438863 1.0
C      1  0.5866457540466  0.7648494226861  0.4225565623509 1.0
C      1  0.4133551397194  0.2351530226223  0.4225525116895 1.0
C      1  0.6783442881673  0.6551118802232  0.3403333296308 1.0
C      1  0.3216540627791  0.3448922114493  0.3403298371477 1.0
C      1  0.2461840246943  0.5780489814142  0.2569201099775 1.0
C      1  0.7538168147221  0.4219525207471  0.2569230947011 1.0
C      1  0.4697861113293  0.5389837567349  0.3791435626375 1.0
C      1  0.5302119110568  0.4610209482921  0.3791436365988 1.0
C      1  0.3521860503335  0.5069823719789  0.7121878857575 1.0
C      1  0.6478157188514  0.4930138825536  0.7121863445607 1.0
C      1  0.4107647238487  0.4673921318740  0.5465474537064 1.0
C      1  0.5892342264740  0.5326066357459  0.5465487246624 1.0
C      1  0.6735222767019  0.2707414873823  0.3282074318263 1.0
C      1  0.3264774217877  0.7292621062591  0.3282050724655 1.0
C      1  0.6802487587416  0.4424053094184  0.3071038417189 1.0
C      1  0.3197525567240  0.5575988980783  0.3071007185478 1.0
C      1  0.3223630693815  0.4307587356761  0.5734121006024 1.0
C      1  0.6776356059291  0.5692384596290  0.5734120899629 1.0
C      1  0.3498114998882  0.5790994997240  0.6468320178840 1.0
C      1  0.6501901080871  0.4208979682803  0.6468294148929 1.0
C      1  0.8332725869858  0.4996407849800  0.4998142846269 1.0
C      1  0.1667274010583  0.5003589950025  0.4998149116434 1.0
C      1  0.3875203380038  0.5065367733266  0.3446306433212 1.0
C      1  0.6124792404902  0.4934683046029  0.3446324431533 1.0
C      1  0.5145523797911  0.7043845024697  0.4351075401045 1.0
C      1  0.4854466929043  0.2956186142553  0.4351034384363 1.0
C      1  0.4881397776379  0.4306861034737  0.7510196027468 1.0
C      1  0.5118620374950  0.5693084620999  0.7510201289760 1.0
C      1  0.6876148264516  0.3470732468702  0.6052638145162 1.0
C      1  0.3123832524081  0.6529226753432  0.6052673729618 1.0
C      1  0.4478506204740  0.3764030150332  0.6752597921069 1.0
C      1  0.5521511923483  0.6235929696281  0.6752619843466 1.0
C      1  0.7156309874409  0.3569399236604  0.5118632955437 1.0
C      1  0.2843685328246  0.6430590983776  0.5118657075781 1.0
C      1  0.7501022601267  0.5259300498959  0.5352019965078 1.0
C      1  0.2498975045166  0.4740685468453  0.5352025019284 1.0
C      1  0.4785988057182  0.3798880967411  0.3848882933249 1.0
C      1  0.5213998667171  0.6201151568527  0.3848908242233 1.0
C      1  0.6489023330515  0.5790774509339  0.6673968808024 1.0
C      1  0.3510988194715  0.4209202551269  0.6673962240016 1.0
C      1  0.2350795210822  0.5635504530994  0.5008680247992 1.0
C      1  0.7649206830738  0.4364489445843  0.5008659701306 1.0
C      1  0.3896416149476  0.4079643065459  0.3500432460587 1.0
C      1  0.6103564812975  0.5920399785391  0.3500444826038 1.0
END
