TITL C-64804-9177-5 -5.581 3375.00 -960.11318853 0 0 118 (C1) n - 1
REM
REM Run started: at 2020.12.07 04:04:25 in /rds/project/t2_vol4/rds-t2-cs072/BORA/CARBON/AIRSS/Generating-Clusters/Str-Search/Higher-Symm/C100-200
REM VASP from code version vasp.5.4.4.18Apr17-6-g9f103f2a35 (build Oct 11 2019 16:45:47) gamma-only
REM
REM
REM
REM
REM ./C.cell (533062f00bc710175b3da973d35f2034)
REM AIRSS Version 0.9.1 bugfix July 2018 build 013d7b7c2542+ Fri, 06 Jul 2018 19:26:36 +0100
REM compiler GCC version 4.8.5 20150623 (Red Hat 4.8.5-39)
REM options -cpp -mtune=generic -march=x86-64 -g -O0
REM seed 597481499 -1402043418 -1160062769 1670314410 -2022538903 1511488054 1707920640 449249941 -1766355014 627211511 -309616607 -2125885790
REM
REM C.POTCAR (d86ddea03c3ceb6dc662c8ad6801f873)
REM 
CELL 1.54180   15.00000   15.00000   15.00000   90.00000   90.00000   90.00000
LATT -1
SFAC C  
C      1  0.6772066972649  0.7494895098427  0.5131015184373 1.0
C      1  0.6916871989134  0.5464441738829  0.7664694072573 1.0
C      1  0.6928188453516  0.2617910477086  0.6234477035765 1.0
C      1  0.6993773971929  0.3039277753912  0.3186808367830 1.0
C      1  0.6905585014191  0.6172114772974  0.2702178780967 1.0
C      1  0.2891391321396  0.7663180982195  0.5400387737567 1.0
C      1  0.3058719793424  0.5332355731001  0.7467631109170 1.0
C      1  0.2983884109789  0.2673933804906  0.6004370995119 1.0
C      1  0.2921490468832  0.3082862977521  0.3051154058123 1.0
C      1  0.2962558047199  0.6260129132877  0.2625520432813 1.0
C      1  0.1956376540468  0.3277095911525  0.4599443138045 1.0
C      1  0.2064135079848  0.4754330394332  0.3232004608587 1.0
C      1  0.2021471179923  0.6547380497039  0.4165868710413 1.0
C      1  0.2064722522808  0.6172788813468  0.6133109154301 1.0
C      1  0.2049684828379  0.4194319920032  0.6404505435176 1.0
C      1  0.7905698558337  0.3264736539261  0.4786013073344 1.0
C      1  0.7836939270361  0.4689429915880  0.3343319662317 1.0
C      1  0.7921337613624  0.6526984249639  0.4215066606794 1.0
C      1  0.7797137253669  0.6224993511640  0.6159754012659 1.0
C      1  0.7797567244313  0.4235616703012  0.6554889917424 1.0
C      1  0.6125841995827  0.8053265555727  0.5709088008026 1.0
C      1  0.6074233394485  0.5548425981384  0.8107634205373 1.0
C      1  0.5919055896987  0.2432778826040  0.6190427035137 1.0
C      1  0.5969290771996  0.3008665988137  0.3200386307967 1.0
C      1  0.5934357713747  0.6267813792506  0.2565901914832 1.0
C      1  0.3738076286846  0.7965410519561  0.5668020517296 1.0
C      1  0.3921819911042  0.5400465010540  0.7794375718634 1.0
C      1  0.3973020086669  0.2627580772034  0.6082388610155 1.0
C      1  0.3928515522989  0.2962298841948  0.3109343621316 1.0
C      1  0.3841528865512  0.6378533497792  0.2360286352212 1.0
C      1  0.7512046593191  0.5821344303149  0.6999096878438 1.0
C      1  0.7518563279839  0.3331800619215  0.6412772857711 1.0
C      1  0.7622176475331  0.3127980365833  0.3899644615631 1.0
C      1  0.7512742469664  0.5487568751390  0.2960881211263 1.0
C      1  0.7690411970779  0.7233399478779  0.4835869997996 1.0
C      1  0.2392553839030  0.5742574293950  0.6914075580816 1.0
C      1  0.2336800316590  0.3309476273361  0.6220095922215 1.0
C      1  0.2258489538703  0.3164935877369  0.3729518392323 1.0
C      1  0.2321536480214  0.5582039894193  0.2847329794762 1.0
C      1  0.2285560431761  0.7182196528941  0.4827708879380 1.0
C      1  0.4539872804951  0.4644392619525  0.7873635780489 1.0
C      1  0.4476550512346  0.2392745823429  0.5133953521474 1.0
C      1  0.4424294544540  0.3769029616824  0.2610689537665 1.0
C      1  0.4435715956114  0.6922589141003  0.2936597141120 1.0
C      1  0.4078801289364  0.7270584126005  0.6289761054551 1.0
C      1  0.5496925406716  0.4774227819729  0.7980960738959 1.0
C      1  0.5543729847127  0.2146819855202  0.5209306136566 1.0
C      1  0.5534838215188  0.3870143805976  0.2688227987355 1.0
C      1  0.5378868334830  0.7027175237565  0.2931428851052 1.0
C      1  0.5970227640238  0.7496175269434  0.6508669939920 1.0
C      1  0.4396575116684  0.8639568808324  0.4187767462805 1.0
C      1  0.4445887393918  0.7193243778549  0.7203733189018 1.0
C      1  0.4765249505021  0.2887378520870  0.7527353301466 1.0
C      1  0.4513769570211  0.1798186309036  0.4290562154909 1.0
C      1  0.4471922494856  0.4465938419829  0.1827034627403 1.0
C      1  0.5193872620820  0.8100614160148  0.4309890573035 1.0
C      1  0.5372855240638  0.7341347879055  0.7327759733783 1.0
C      1  0.5578157854613  0.2530467315768  0.7896472248602 1.0
C      1  0.5422288182751  0.1551654204163  0.4332197432870 1.0
C      1  0.5402733370878  0.4535105289873  0.1865378568965 1.0
C      1  0.4406253103803  0.2205455156374  0.6908880255787 1.0
C      1  0.4461736039934  0.2155366837997  0.3340548471145 1.0
C      1  0.4333927004299  0.5465168584457  0.2205182158395 1.0
C      1  0.4403577483820  0.8419029769023  0.5156614302215 1.0
C      1  0.4481630080095  0.6204084831413  0.7501235063203 1.0
C      1  0.5380437710391  0.2203113139924  0.6988718391746 1.0
C      1  0.5389288608496  0.2177814300828  0.3394131979269 1.0
C      1  0.5358897953946  0.5519878445034  0.2166988818798 1.0
C      1  0.5377288371788  0.8316244603050  0.5224960967505 1.0
C      1  0.5486414466985  0.6341717934419  0.7715840084033 1.0
C      1  0.8242001135967  0.5720801435578  0.4631720392681 1.0
C      1  0.8205545239309  0.5583914297467  0.5592420860442 1.0
C      1  0.8208041935273  0.4624155759396  0.5761800401046 1.0
C      1  0.8259918172541  0.4178532567799  0.4912399372293 1.0
C      1  0.8244760053575  0.4843281245779  0.4220834984858 1.0
C      1  0.1669913400721  0.5741927231033  0.4556161796750 1.0
C      1  0.1675695619341  0.5567288764383  0.5495311664957 1.0
C      1  0.1644151418541  0.4602711897057  0.5620638999060 1.0
C      1  0.1594924474470  0.4182816946682  0.4765467255958 1.0
C      1  0.1657497082248  0.4870919903710  0.4101330501914 1.0
C      1  0.6141250734300  0.6610543813086  0.6237463413179 1.0
C      1  0.5425933510659  0.4414017525749  0.7078733890217 1.0
C      1  0.5963904121665  0.2971607179816  0.4929657712984 1.0
C      1  0.5803456083783  0.4604659355306  0.3354256632340 1.0
C      1  0.5456976305150  0.7170047940304  0.3990133334220 1.0
C      1  0.4225854691607  0.6446504096841  0.5874631965795 1.0
C      1  0.4615275688521  0.3823465045618  0.7164912736518 1.0
C      1  0.4395888018934  0.3317699875301  0.4764248385527 1.0
C      1  0.4091865660254  0.4318901707026  0.3354415828209 1.0
C      1  0.4544506492066  0.6668926868154  0.3974238001720 1.0
C      1  0.4236631388929  0.6221529235233  0.4939639903344 1.0
C      1  0.4660340877187  0.5865320422246  0.6526157023508 1.0
C      1  0.4253773791421  0.3642354685377  0.6250095767943 1.0
C      1  0.4059734001337  0.3576437637238  0.3966955855456 1.0
C      1  0.4152859542900  0.5195680712653  0.3176001818906 1.0
C      1  0.6139272369112  0.6813194133472  0.4670726893152 1.0
C      1  0.5708813335296  0.6037168965309  0.6813493790221 1.0
C      1  0.5762774093927  0.3401442029746  0.5767987465443 1.0
C      1  0.5897235327602  0.3382305156943  0.4140636662177 1.0
C      1  0.5541729450670  0.5490082300468  0.3171378852513 1.0
C      1  0.7498914703259  0.4903030202066  0.7156011374058 1.0
C      1  0.7574953444306  0.2890182019280  0.5591181767233 1.0
C      1  0.7583795616287  0.3776645408092  0.3226148472609 1.0
C      1  0.7556193374889  0.6339538291209  0.3357083156751 1.0
C      1  0.7583958440734  0.7068359106668  0.5719584736451 1.0
C      1  0.2400286788887  0.4816446048339  0.7012929311145 1.0
C      1  0.2306161561021  0.2891125924653  0.5384749591832 1.0
C      1  0.2348393579309  0.3838039192261  0.3086485591433 1.0
C      1  0.2282013125593  0.6417477456127  0.3265276771350 1.0
C      1  0.2289593348335  0.7002553096669  0.5734483207609 1.0
C      1  0.6071929951040  0.6167036795580  0.5352813526554 1.0
C      1  0.4843875561682  0.3872814554665  0.5486503863861 1.0
C      1  0.5723405581506  0.4293377754885  0.4193521525206 1.0
C      1  0.4744963822730  0.5711584062540  0.3744959480810 1.0
C      1  0.5437503861603  0.5196439349773  0.6447945065652 1.0
C      1  0.4627825862985  0.5429245258308  0.4664906025326 1.0
C      1  0.5797090620703  0.5268356463650  0.5542190152291 1.0
C      1  0.5231815937473  0.4698915580232  0.4976280227555 1.0
END
