TITL C-65295-7641-37 -2.931 3375.00 -490.31344820 0 0 60 (Ci) n - 1
REM
REM Run started: at 2020.12.15 12:15:26 in /rds/project/t2_vol4/rds-t2-cs072/BORA/CARBON/AIRSS/Generating-Clusters/Str-Search/Higher-Symm/Only-C60
REM VASP from code version vasp.5.4.4.18Apr17-6-g9f103f2a35 (build Oct 11 2019 16:45:47) gamma-only
REM
REM
REM
REM
REM ./C.cell (5f7b7a0d59291d2373303da1f58b8d66)
REM AIRSS Version 0.9.1 bugfix July 2018 build 013d7b7c2542+ Fri, 06 Jul 2018 19:26:36 +0100
REM compiler GCC version 4.8.5 20150623 (Red Hat 4.8.5-39)
REM options -cpp -mtune=generic -march=x86-64 -g -O0
REM seed 1349542417 1821213465 -838514893 -1634163899 215219474 -503103447 -957569708 2024727272 1717109659 -517617216 135477856 -1102705533
REM
REM C.POTCAR (d86ddea03c3ceb6dc662c8ad6801f873)
REM 
CELL 1.54180   15.00000   15.00000   15.00000   90.00000   90.00000   90.00000
LATT -1
SFAC C  
C      1  0.4577408191092  0.4187582005395  0.2551136152438 1.0
C      1  0.5422591903609  0.5812418290983  0.7448863651853 1.0
C      1  0.6420883908459  0.6528741622645  0.6447965759638 1.0
C      1  0.3579116009825  0.3471258343185  0.3552034329631 1.0
C      1  0.3044218069098  0.3757325828032  0.5835841068977 1.0
C      1  0.6955781906163  0.6242674119946  0.4164159006094 1.0
C      1  0.3734459373052  0.4163501375269  0.2909973365003 1.0
C      1  0.6265540740971  0.5836498996038  0.7090026577974 1.0
C      1  0.4252999115212  0.5438512746679  0.5323018834145 1.0
C      1  0.5747000892029  0.4561487209699  0.4676981269770 1.0
C      1  0.4265475261450  0.2854085973521  0.4857351710526 1.0
C      1  0.5734524570872  0.7145914081173  0.5142648246661 1.0
C      1  0.4273392126767  0.7215537646196  0.5660247152061 1.0
C      1  0.5726607878057  0.2784462347846  0.4339752732540 1.0
C      1  0.4815708374181  0.7218165045942  0.4847880036324 1.0
C      1  0.5184291610588  0.2781835068723  0.5152119828436 1.0
C      1  0.4792116914340  0.6897699410627  0.6422622302725 1.0
C      1  0.5207883213643  0.3102300707148  0.3577377692077 1.0
C      1  0.5819531551784  0.5412120696566  0.3302189758359 1.0
C      1  0.4180468510743  0.4587879264687  0.6697810342915 1.0
C      1  0.5363992892898  0.3837733850313  0.2934295959864 1.0
C      1  0.4636006912137  0.6162266137366  0.7065704052838 1.0
C      1  0.7421081460324  0.5573557367931  0.5561012262997 1.0
C      1  0.2578918605082  0.4426442165783  0.4438987759306 1.0
C      1  0.6850949236604  0.4929479279034  0.3257853333967 1.0
C      1  0.3149050605346  0.5070520775647  0.6742146682876 1.0
C      1  0.2728121924664  0.5291154692885  0.5882617201204 1.0
C      1  0.7271877988982  0.4708845357403  0.4117382960643 1.0
C      1  0.5751057445614  0.3401983287933  0.5817608442358 1.0
C      1  0.4248942380068  0.6598016618391  0.4182390316743 1.0
C      1  0.5349703434420  0.4276302571248  0.5470629729417 1.0
C      1  0.4650296496860  0.5723697569848  0.4529370172895 1.0
C      1  0.4317431108786  0.2976359698890  0.3868391210772 1.0
C      1  0.5682568769937  0.7023640313521  0.6131608761675 1.0
C      1  0.6309396450176  0.4164165232421  0.7126748900361 1.0
C      1  0.3690599117727  0.5835826984795  0.2873247941098 1.0
C      1  0.4102649140996  0.6474362440858  0.3202853990132 1.0
C      1  0.5897354767363  0.3525642899036  0.6797150553039 1.0
C      1  0.6636710274985  0.5920827635138  0.3314222619006 1.0
C      1  0.3363289725497  0.4079172462528  0.6685777270227 1.0
C      1  0.2553583629889  0.4508278185284  0.5412922309885 1.0
C      1  0.7446416223242  0.5491721747663  0.4587077746956 1.0
C      1  0.7358593762278  0.4911071334282  0.6230026642649 1.0
C      1  0.2641406518976  0.5088928867913  0.3769973047576 1.0
C      1  0.6979696276929  0.6393323151721  0.5707220806709 1.0
C      1  0.3020303710817  0.3606676857795  0.4292779325658 1.0
C      1  0.3239467487818  0.5016105935413  0.3052961623062 1.0
C      1  0.6760533415328  0.4983895607953  0.6947038308018 1.0
C      1  0.3955254679748  0.5449569228011  0.7111897925015 1.0
C      1  0.6044745329732  0.4550430727269  0.2888102067316 1.0
C      1  0.6686271665158  0.3458691053789  0.5352883645838 1.0
C      1  0.3313728538235  0.6541309074329  0.4647116529619 1.0
C      1  0.4629652202131  0.4738790079756  0.5829400410516 1.0
C      1  0.5370347764310  0.5261209910701  0.4170599625187 1.0
C      1  0.3417800023664  0.3239744471693  0.5124540929239 1.0
C      1  0.6582200098625  0.6760255526556  0.4875459094465 1.0
C      1  0.6592659845911  0.3104993713559  0.4505735596506 1.0
C      1  0.3407340016995  0.6895006301052  0.5494264387943 1.0
C      1  0.6648447109106  0.4092415180396  0.4560213820820 1.0
C      1  0.3351552840705  0.5907584923598  0.5439786217455 1.0
END
