TITL C-65295-7641-41 -2.703 3375.00 -475.99532929 0 0 60 (Cs) n - 1
REM
REM Run started: at 2020.12.15 13:07:20 in /rds/project/t2_vol4/rds-t2-cs072/BORA/CARBON/AIRSS/Generating-Clusters/Str-Search/Higher-Symm/Only-C60
REM VASP from code version vasp.5.4.4.18Apr17-6-g9f103f2a35 (build Oct 11 2019 16:45:47) gamma-only
REM
REM
REM
REM
REM ./C.cell (5f7b7a0d59291d2373303da1f58b8d66)
REM AIRSS Version 0.9.1 bugfix July 2018 build 013d7b7c2542+ Fri, 06 Jul 2018 19:26:36 +0100
REM compiler GCC version 4.8.5 20150623 (Red Hat 4.8.5-39)
REM options -cpp -mtune=generic -march=x86-64 -g -O0
REM seed 454875698 -318352501 838894340 -882501494 -1981259511 -1145248975 848193164 1731816264 1984017781 -291868569 -227596098 1629058770
REM
REM C.POTCAR (d86ddea03c3ceb6dc662c8ad6801f873)
REM 
CELL 1.54180   15.00000   15.00000   15.00000   90.00000   90.00000   90.00000
LATT -1
SFAC C  
C      1  0.7148144627549  0.5282696567910  0.3992427299866 1.0
C      1  0.7165863955808  0.6045046158474  0.4607057933173 1.0
C      1  0.7149937230960  0.5738730868002  0.6224651829011 1.0
C      1  0.6854303017217  0.4275716450576  0.5716235654815 1.0
C      1  0.7141084203543  0.3957555952333  0.4796490897361 1.0
C      1  0.2851856750970  0.5282626544766  0.3992438637770 1.0
C      1  0.2834123211310  0.6044986088532  0.4607080515475 1.0
C      1  0.2850048471475  0.5738682762922  0.6224658545324 1.0
C      1  0.3145716005305  0.4275671392091  0.5716240379786 1.0
C      1  0.2858925763797  0.3957506861425  0.4796500780694 1.0
C      1  0.4490738664125  0.7198532117335  0.5128290486630 1.0
C      1  0.4514713611770  0.5546303692259  0.7146702895442 1.0
C      1  0.4520443064478  0.3070642736001  0.6168263079972 1.0
C      1  0.4466724647296  0.3323049105861  0.3554269525707 1.0
C      1  0.4518950089077  0.5825473482198  0.2884311073494 1.0
C      1  0.5509209620179  0.7198542036134  0.5128295423390 1.0
C      1  0.5485282415408  0.5546322750927  0.7146703781569 1.0
C      1  0.5479600009825  0.3070646960533  0.6168252625480 1.0
C      1  0.5533315565712  0.3323064639328  0.3554277036963 1.0
C      1  0.5481023781454  0.5825486353020  0.2884308799209 1.0
C      1  0.5519545028640  0.6711549457614  0.4224491597381 1.0
C      1  0.5531379332894  0.6203437592414  0.6350643235379 1.0
C      1  0.5526207659924  0.4053605962593  0.6538084611203 1.0
C      1  0.5520952244405  0.3151282741311  0.4566353505885 1.0
C      1  0.5548767461454  0.4827700334716  0.3121847692439 1.0
C      1  0.4480423154867  0.6711533359350  0.4224493370207 1.0
C      1  0.4468595681098  0.6203423162074  0.6350644876374 1.0
C      1  0.4473818401882  0.4053591811563  0.6538096539782 1.0
C      1  0.4479078283851  0.3151268885855  0.4566357338466 1.0
C      1  0.4451230379176  0.4827685216462  0.3121855460510 1.0
C      1  0.5857912326629  0.4509346391964  0.5667305197699 1.0
C      1  0.5497903660335  0.4169677633148  0.4821733809987 1.0
C      1  0.5519940587448  0.4923081624530  0.4149242919932 1.0
C      1  0.5516477029871  0.5756243972953  0.4670017932014 1.0
C      1  0.5517939430136  0.5454498965825  0.5624861213297 1.0
C      1  0.4142098607180  0.4509328455034  0.5667310869709 1.0
C      1  0.4502094468971  0.4169670010610  0.4821735336811 1.0
C      1  0.4480057497437  0.4923074921544  0.4149245631704 1.0
C      1  0.4483529448100  0.5756231490047  0.4670023032480 1.0
C      1  0.4482054169903  0.5454489316539  0.5624862607503 1.0
C      1  0.6866837541307  0.3313121803484  0.5410588186758 1.0
C      1  0.6950014288397  0.4340974035475  0.3941326690044 1.0
C      1  0.6844723961807  0.6133540727653  0.3713421677955 1.0
C      1  0.6941379496585  0.6311648399474  0.5516463436344 1.0
C      1  0.6909117879309  0.4924557488938  0.6541658370004 1.0
C      1  0.3133190347637  0.3313069966606  0.5410599085169 1.0
C      1  0.3049990993176  0.4340919175940  0.3941338790788 1.0
C      1  0.3155265222308  0.6133493358246  0.3713426621791 1.0
C      1  0.3058595037314  0.6311599893454  0.5516466559825 1.0
C      1  0.3090888024647  0.4924509276187  0.6541660504216 1.0
C      1  0.6037576276528  0.2856586595719  0.5412293487640 1.0
C      1  0.6143295503613  0.4010794480860  0.3273292907417 1.0
C      1  0.6028727995394  0.6463902247769  0.3381647171231 1.0
C      1  0.6100491218661  0.6852231860776  0.5787292964935 1.0
C      1  0.6075650729170  0.4768832072718  0.7068651261649 1.0
C      1  0.3962469805701  0.2856571237831  0.5412304689678 1.0
C      1  0.3856718775522  0.4010762510474  0.3273295811027 1.0
C      1  0.3971233542335  0.6463871729850  0.3381654271223 1.0
C      1  0.3899465534255  0.6852203234926  0.5787293126271 1.0
C      1  0.3924358264878  0.4768803076849  0.7068662406146 1.0
END
