TITL C-6535-55-22 -8.649 3375.00 -1596.72224641 0 0 196 (C1) n - 1
REM
REM Run started: at 2020.12.18 07:27:32 in /gpfs/home/chem/mssmkc/CARBON/AIRSS/Generating-Clusters/Str-Search/Higher-Symm
REM VASP from code version vasp.5.4.4.18Apr17-6-g9f103f2a35 (build Oct 11 2019 16:45:47) gamma-only
REM
REM
REM
REM
REM ./C.cell (533062f00bc710175b3da973d35f2034)
REM AIRSS Version 0.9.1 bugfix July 2018 build 013d7b7c2542+ Fri, 06 Jul 2018 19:26:36 +0100
REM compiler GCC version 6.3.0
REM options -cpp -iprefix /gpfs/warwick/csc/orac/software/Core/GCCcore/6.3.0/bin/../lib/gcc/x86_64-pc-linux-gnu/6.3.0/ -mtune=generic -march=x86-64 -g -O0
REM seed 2005276030 -654256849 -1947426003 -243491643 -1446193066 686264865 662501130 285806135 -246660065 -1944292479 1424023867 -1395016684
REM
REM C.POTCAR (d86ddea03c3ceb6dc662c8ad6801f873)
REM 
CELL 1.54180   15.00000   15.00000   15.00000   90.00000   90.00000   90.00000
LATT -1
SFAC C  
C      1  0.5851635585016  0.7008336943777  0.4684684039403 1.0
C      1  0.5828878421204  0.6048385757619  0.3290203932690 1.0
C      1  0.5817167113072  0.4363473463498  0.3197184677944 1.0
C      1  0.5800524040020  0.3166465453411  0.4378661285678 1.0
C      1  0.5871375715017  0.3388913151197  0.6099147413643 1.0
C      1  0.5926229950725  0.4904851716662  0.6891808609091 1.0
C      1  0.5827863569801  0.6499867971687  0.6330411927017 1.0
C      1  0.5317825716794  0.5635538644106  0.4031312560046 1.0
C      1  0.5326809952068  0.4668621774141  0.3986848907440 1.0
C      1  0.5337599492340  0.3984084866865  0.4675842679563 1.0
C      1  0.5353551443238  0.4101067045858  0.5629681522415 1.0
C      1  0.5364548484187  0.4956891431850  0.6085357812743 1.0
C      1  0.5321310324677  0.5870730995605  0.5742107904333 1.0
C      1  0.5321326483474  0.6179522581789  0.4823125550582 1.0
C      1  0.8197944946483  0.5256597395704  0.2685192841010 1.0
C      1  0.8039251872447  0.3343507271284  0.3279795739810 1.0
C      1  0.8110056101868  0.2669949924122  0.5147427832028 1.0
C      1  0.8235060514864  0.3738184754700  0.6890194328947 1.0
C      1  0.8148615618815  0.5743008393362  0.7197727136406 1.0
C      1  0.8183789591991  0.7134941533056  0.5812444815015 1.0
C      1  0.8211136181813  0.6933191648953  0.3835489669215 1.0
C      1  0.5107028261140  0.1471264348924  0.3218513554327 1.0
C      1  0.5250794388941  0.1444553463233  0.6663609259028 1.0
C      1  0.4915211945161  0.4307926258149  0.9827447934374 1.0
C      1  0.5273398505215  0.7435089920948  0.8184863126873 1.0
C      1  0.5539776247399  0.8784816745919  0.5275256291390 1.0
C      1  0.5539111121016  0.7613754779298  0.2255134958014 1.0
C      1  0.4811938122603  0.3709822286155  0.0375550803223 1.0
C      1  0.4807497514114  0.6065272425346  0.3272722036703 1.0
C      1  0.4758988575824  0.4392397072637  0.3199538553633 1.0
C      1  0.4775826957367  0.3187438645809  0.4409553094958 1.0
C      1  0.4861983476707  0.3392695955169  0.6146318375234 1.0
C      1  0.4861111293755  0.4870487967373  0.6944963344208 1.0
C      1  0.4805827234333  0.6493358254047  0.6333665433757 1.0
C      1  0.4822565517300  0.7034810287256  0.4689362755484 1.0
C      1  0.8360688766739  0.6190039972644  0.5481310733311 1.0
C      1  0.8370822229693  0.6074778415341  0.4358300427607 1.0
C      1  0.8338347486671  0.5113709879174  0.3683514485354 1.0
C      1  0.8297225834454  0.4042135718420  0.3994402385036 1.0
C      1  0.8330563649513  0.3660559737271  0.5032545897796 1.0
C      1  0.8378405343824  0.4283356409088  0.6050905004156 1.0
C      1  0.8354939996658  0.5405845149554  0.6244156803197 1.0
C      1  0.3082618331017  0.6293882609341  0.3439186992782 1.0
C      1  0.3032972835977  0.4575969057124  0.3279702178932 1.0
C      1  0.3096848926599  0.3366715385193  0.4254897906870 1.0
C      1  0.3302117390709  0.3278564780536  0.5928292034731 1.0
C      1  0.3294130013108  0.4616480906292  0.6946511897384 1.0
C      1  0.3243349973165  0.6314764536942  0.6547341490306 1.0
C      1  0.3134564553544  0.7016919035303  0.4906914291620 1.0
C      1  0.6690315656983  0.2525325695207  0.3016070773094 1.0
C      1  0.6822292713549  0.1926857729350  0.5737496179578 1.0
C      1  0.6965913287243  0.3680861997469  0.7773326413805 1.0
C      1  0.6826254389625  0.6402462202920  0.7829717312978 1.0
C      1  0.6949526274235  0.8090568075221  0.5645066422024 1.0
C      1  0.6953844880517  0.7425359746786  0.3011725356906 1.0
C      1  0.6868430785228  0.5021241995194  0.1903138891176 1.0
C      1  0.6223089222478  0.7283812411639  0.7963070452584 1.0
C      1  0.6448144508724  0.8766230282074  0.5082918736644 1.0
C      1  0.6436351976194  0.7435258605416  0.2138724367370 1.0
C      1  0.6102219979920  0.4505458444006  0.1524622691995 1.0
C      1  0.6076883365789  0.1702988859711  0.3321471672913 1.0
C      1  0.6216776866188  0.1619125432134  0.6569887573297 1.0
C      1  0.6226745035055  0.4030193380070  0.8352635205226 1.0
C      1  0.4524625938833  0.7355701486305  0.5696799996037 1.0
C      1  0.4528223277490  0.7075598991523  0.3630800894973 1.0
C      1  0.4470683704472  0.5222131502744  0.2602940504831 1.0
C      1  0.4426928775054  0.3375486321147  0.3380604401284 1.0
C      1  0.4519189099084  0.2665941448676  0.5311928354956 1.0
C      1  0.4621292506991  0.3857086678426  0.7165423753622 1.0
C      1  0.4517311892176  0.5843772809160  0.7225299948094 1.0
C      1  0.4737813580470  0.4875333817065  0.9094795010867 1.0
C      1  0.4923595467277  0.8094405493060  0.7585373441750 1.0
C      1  0.4966596543484  0.8854269509087  0.4484974249478 1.0
C      1  0.4988581737686  0.6993965862048  0.1717268706441 1.0
C      1  0.4574064571342  0.3433874184852  0.1250460293640 1.0
C      1  0.4781144514708  0.1126088724878  0.4029546459291 1.0
C      1  0.4940032978943  0.1950196142523  0.7423572906748 1.0
C      1  0.3258058014755  0.5701850766560  0.5819229192612 1.0
C      1  0.3423822261115  0.6147050229190  0.4964636059995 1.0
C      1  0.3472692963313  0.5711844723311  0.4146895789616 1.0
C      1  0.3587662038523  0.4793577751698  0.4055644298591 1.0
C      1  0.3614698357552  0.4092356900505  0.4660946929894 1.0
C      1  0.3580144467136  0.4086448426566  0.5573411393732 1.0
C      1  0.3551781293591  0.4832102575610  0.6117275767794 1.0
C      1  0.5266312215970  0.3170155188678  0.1891037839834 1.0
C      1  0.5414555253485  0.1295233786440  0.4717640582037 1.0
C      1  0.5577499294999  0.2537423158510  0.7738740217669 1.0
C      1  0.5417952677261  0.5393892586953  0.8617122416087 1.0
C      1  0.5513182770510  0.8253248614617  0.6892069611622 1.0
C      1  0.5525035387814  0.8538461549098  0.3789390204738 1.0
C      1  0.5535982874507  0.6242862703905  0.1512997307273 1.0
C      1  0.6140678983276  0.3579255833366  0.1710415653486 1.0
C      1  0.6261413544394  0.1412085489728  0.4225841770707 1.0
C      1  0.6393800408987  0.2199601467516  0.7332205136444 1.0
C      1  0.6286911237714  0.4939407184447  0.8580772632275 1.0
C      1  0.6369241232596  0.7920907839926  0.7232620953766 1.0
C      1  0.6466855801532  0.8615443184482  0.4118925980393 1.0
C      1  0.6444812820981  0.6589206708266  0.1642589890969 1.0
C      1  0.5286868564115  0.5912042765030  0.7858218141718 1.0
C      1  0.5326459577030  0.8034602408937  0.5923241270015 1.0
C      1  0.5329125898552  0.7675564607913  0.3254924312171 1.0
C      1  0.5377799583855  0.5278979834569  0.1881464229914 1.0
C      1  0.5160505941841  0.3036562809800  0.2795618844496 1.0
C      1  0.5279140184605  0.2015206775272  0.5304203493658 1.0
C      1  0.5486905370573  0.3545362028962  0.7735578841382 1.0
C      1  0.2926579336703  0.2405368962206  0.4605019751766 1.0
C      1  0.3028723133892  0.3023442394319  0.6822822218605 1.0
C      1  0.2888142288028  0.5179025278734  0.7631611143887 1.0
C      1  0.3009232073791  0.7224119349943  0.6567393950651 1.0
C      1  0.2731240948164  0.7135801548496  0.3989266710613 1.0
C      1  0.2645702437519  0.5801449310877  0.2650828269902 1.0
C      1  0.2776473236006  0.3659610929337  0.2789060950511 1.0
C      1  0.7036118637703  0.5482779652896  0.8294493986508 1.0
C      1  0.7092980642939  0.7915928620321  0.6633130238921 1.0
C      1  0.7146563714676  0.8105791621744  0.3736250789740 1.0
C      1  0.7110011969991  0.5978818972146  0.1808574739469 1.0
C      1  0.6884612542239  0.3164284860424  0.2198241050323 1.0
C      1  0.6994794833392  0.1640592460183  0.4761629634157 1.0
C      1  0.7127814110635  0.2765540836888  0.7414168971964 1.0
C      1  0.7701222293573  0.2406444568491  0.5956659373999 1.0
C      1  0.7798338726150  0.4180913228670  0.7607657153276 1.0
C      1  0.7691286957408  0.6554897751648  0.7301816559584 1.0
C      1  0.7780515980654  0.7737534408877  0.5216695155337 1.0
C      1  0.7777116936898  0.6847174637800  0.2999432973389 1.0
C      1  0.7693944136640  0.4589648483718  0.2246880539596 1.0
C      1  0.7564710980284  0.2582153621033  0.3549744757625 1.0
C      1  0.1863300506466  0.2508682650833  0.4707557295069 1.0
C      1  0.1970169495302  0.3224984084969  0.6649410956534 1.0
C      1  0.1911129127807  0.5153937566586  0.7303851120562 1.0
C      1  0.1894821790776  0.6918963899382  0.6442366406867 1.0
C      1  0.1704822407940  0.7010241720075  0.4054255941072 1.0
C      1  0.1726396304450  0.5614423307512  0.2759142397029 1.0
C      1  0.1756237711158  0.3546919273711  0.2967930834865 1.0
C      1  0.0746694636513  0.3809604762917  0.4339788501114 1.0
C      1  0.0909067575831  0.3764770393544  0.5325867581648 1.0
C      1  0.0938075465385  0.4525976693080  0.6063807744098 1.0
C      1  0.0828963969988  0.5506329362870  0.6004557787463 1.0
C      1  0.0810153558575  0.5975673073781  0.5148525045005 1.0
C      1  0.0785592183432  0.5534382036675  0.4179555757332 1.0
C      1  0.0686970851076  0.4601788293220  0.3825631667035 1.0
C      1  0.1681169595203  0.5875939195564  0.6570747925136 1.0
C      1  0.1490441763949  0.6780677060157  0.5065984632656 1.0
C      1  0.1382476306208  0.6125615542060  0.3588456444839 1.0
C      1  0.1422014746722  0.4560281218387  0.3094815336449 1.0
C      1  0.1496810812472  0.3198310853154  0.3949350569613 1.0
C      1  0.1621655052229  0.3048433203879  0.5588244196681 1.0
C      1  0.1693422218370  0.4253986197450  0.6741838542954 1.0
C      1  0.4083487795578  0.7129723143506  0.1838905271993 1.0
C      1  0.3788745704121  0.3749511134331  0.1518224169757 1.0
C      1  0.4131680821304  0.1605969414974  0.3577553402390 1.0
C      1  0.4269075245926  0.1748525215078  0.6820400602349 1.0
C      1  0.3938988044113  0.4679358250095  0.8758605167557 1.0
C      1  0.4261971945544  0.7496850162106  0.7838680214666 1.0
C      1  0.4056245833904  0.8785233128172  0.4699298910495 1.0
C      1  0.3510475534898  0.7425101139936  0.2363276754658 1.0
C      1  0.3176008454024  0.4162729864431  0.1980039356345 1.0
C      1  0.3385066595200  0.2123900310066  0.3684514878105 1.0
C      1  0.3478421306994  0.2093026733870  0.6474109638713 1.0
C      1  0.3308063399857  0.4415449683585  0.8219576758276 1.0
C      1  0.3474437928438  0.7099552222200  0.7579092332519 1.0
C      1  0.3522506258408  0.8529655659854  0.5284107956127 1.0
C      1  0.7340442438372  0.5144858880857  0.3941994760126 1.0
C      1  0.7318030698907  0.4267987134327  0.4209427652459 1.0
C      1  0.7342088434027  0.3930879333877  0.5065579355152 1.0
C      1  0.7384283693417  0.4398245836225  0.5846625020625 1.0
C      1  0.7354746363537  0.5298340923760  0.6016323180266 1.0
C      1  0.7354486696815  0.5977342761395  0.5388971885080 1.0
C      1  0.7367054371760  0.5890563688297  0.4476254408043 1.0
C      1  0.7660199098445  0.2213563156884  0.4420125040579 1.0
C      1  0.7810890256801  0.2867141385781  0.6771319395676 1.0
C      1  0.7758165296875  0.5105695857196  0.7803223676680 1.0
C      1  0.7769752394824  0.7253687166984  0.6676883891222 1.0
C      1  0.7833725945192  0.7692788570059  0.4280013272761 1.0
C      1  0.7827851356834  0.6112907872880  0.2427565116256 1.0
C      1  0.7632756971200  0.3676337274367  0.2473192682962 1.0
C      1  0.3519009871783  0.7196176892270  0.3309221536112 1.0
C      1  0.3359068964910  0.5075962849197  0.2446438249754 1.0
C      1  0.3430553247124  0.3086142072474  0.3341301367581 1.0
C      1  0.3523527017531  0.2427684070800  0.5486612786921 1.0
C      1  0.3573371407429  0.3788559099485  0.7393582738967 1.0
C      1  0.3500395390400  0.6057613646879  0.7450351620465 1.0
C      1  0.3466472688895  0.7616700021079  0.5663991755102 1.0
C      1  0.6088603197520  0.5952431565743  0.7197535961497 1.0
C      1  0.6098611201671  0.7351757171009  0.5641464563669 1.0
C      1  0.6103498140164  0.7000516388512  0.3602883557071 1.0
C      1  0.6086378091300  0.5207009278668  0.2669642632787 1.0
C      1  0.5992927574668  0.3271962916056  0.3367963362264 1.0
C      1  0.6080225572804  0.2643279913508  0.5412610919727 1.0
C      1  0.6178821914486  0.3897368139291  0.7018691700971 1.0
C      1  0.2224622807716  0.3839911216098  0.4296638067096 1.0
C      1  0.1957225897622  0.3914186430398  0.5211187821963 1.0
C      1  0.1984487516929  0.4585807140194  0.5852951152922 1.0
C      1  0.2250401593776  0.5501610235086  0.5815550147902 1.0
C      1  0.1882654043232  0.5902028803592  0.5049083353932 1.0
C      1  0.1843754548771  0.5480662006052  0.4214517666173 1.0
C      1  0.2171300266042  0.4682588899682  0.3768373711653 1.0
END
