TITL C-65295-7641-40 -2.691 3375.00 -476.00154409 0 0 60 (Cs) n - 1
REM
REM Run started: at 2020.12.15 12:55:02 in /rds/project/t2_vol4/rds-t2-cs072/BORA/CARBON/AIRSS/Generating-Clusters/Str-Search/Higher-Symm/Only-C60
REM VASP from code version vasp.5.4.4.18Apr17-6-g9f103f2a35 (build Oct 11 2019 16:45:47) gamma-only
REM
REM
REM
REM
REM ./C.cell (5f7b7a0d59291d2373303da1f58b8d66)
REM AIRSS Version 0.9.1 bugfix July 2018 build 013d7b7c2542+ Fri, 06 Jul 2018 19:26:36 +0100
REM compiler GCC version 4.8.5 20150623 (Red Hat 4.8.5-39)
REM options -cpp -mtune=generic -march=x86-64 -g -O0
REM seed -80097492 -842624720 921547004 -1211448893 1745059569 1347832028 24247406 -2043822422 -342826714 -107083523 -1024144713 2036590703
REM
REM C.POTCAR (d86ddea03c3ceb6dc662c8ad6801f873)
REM 
CELL 1.54180   15.00000   15.00000   15.00000   90.00000   90.00000   90.00000
LATT -1
SFAC C  
C      1  0.4477046018058  0.5424818471459  0.4260620759604 1.0
C      1  0.4501877906219  0.4422313186722  0.4376946697553 1.0
C      1  0.4142507007850  0.4214228327590  0.5264699455934 1.0
C      1  0.4481779783954  0.5011525409145  0.5771839291753 1.0
C      1  0.4482886600861  0.5806962666202  0.5164082771433 1.0
C      1  0.5522953791699  0.5424817733084  0.4260619701871 1.0
C      1  0.5498121661761  0.4422312520479  0.4376945503928 1.0
C      1  0.5857494744526  0.4214227867032  0.5264697268089 1.0
C      1  0.5518220965668  0.5011524470894  0.5771837788563 1.0
C      1  0.5517114316302  0.5806961694210  0.5164081843027 1.0
C      1  0.6853537418307  0.3998813471748  0.5171073513927 1.0
C      1  0.7152460562518  0.4900987659770  0.6422914513910 1.0
C      1  0.7164464836833  0.6082700237963  0.5277210676462 1.0
C      1  0.7145074724274  0.5811910387947  0.4337338923470 1.0
C      1  0.7142431436375  0.4265194432575  0.4235582998182 1.0
C      1  0.3146463024687  0.3998817163998  0.5171076550488 1.0
C      1  0.2847539428839  0.4900990709431  0.6422916234909 1.0
C      1  0.2835534786386  0.6082702886326  0.5277214971581 1.0
C      1  0.2854923404011  0.5811911154653  0.4337341538240 1.0
C      1  0.2857567461797  0.4265197645336  0.4235587173496 1.0
C      1  0.4452053326200  0.5936995904789  0.3367279354963 1.0
C      1  0.4478701556937  0.3737322580463  0.3584586747697 1.0
C      1  0.4473635056686  0.3340567466073  0.5714388749249 1.0
C      1  0.4468871734595  0.5206520703174  0.6795593209032 1.0
C      1  0.4480729093737  0.6845947085810  0.5347494270758 1.0
C      1  0.5547945295602  0.5936995668905  0.3367278065964 1.0
C      1  0.5521296308600  0.3737322112321  0.3584585700964 1.0
C      1  0.5526365098252  0.3340566949182  0.5714387210038 1.0
C      1  0.5531131055667  0.5206519951852  0.6795592045959 1.0
C      1  0.5519272114914  0.6845946545041  0.5347493499369 1.0
C      1  0.6908262290227  0.4052662850338  0.6221205721676 1.0
C      1  0.6941205448954  0.5776397486915  0.6174903219267 1.0
C      1  0.6843401099748  0.6669861247514  0.4597390913129 1.0
C      1  0.6946895848322  0.5068499586841  0.3755181833403 1.0
C      1  0.6867186259867  0.3386019512436  0.4367848118710 1.0
C      1  0.3091739085745  0.4052665077252  0.6221208874411 1.0
C      1  0.3058796974997  0.5776402096546  0.6174906043282 1.0
C      1  0.3156599713644  0.6669865255043  0.4597394101864 1.0
C      1  0.3053102769447  0.5068502253462  0.3755185661203 1.0
C      1  0.3132812595264  0.3386021954570  0.4367851807103 1.0
C      1  0.6027852076809  0.7132260478007  0.4517286165541 1.0
C      1  0.6142371986861  0.5181237860819  0.3016836456624 1.0
C      1  0.6038658741967  0.3008791390042  0.4105991370328 1.0
C      1  0.6075766012935  0.3619807080539  0.6562054422747 1.0
C      1  0.6099387904203  0.6061830056474  0.6707327256393 1.0
C      1  0.3972147695256  0.7132260778452  0.4517287696478 1.0
C      1  0.3857625809522  0.5181238628156  0.3016839401180 1.0
C      1  0.3961339300571  0.3008792712645  0.4105993466788 1.0
C      1  0.3924233496903  0.3619809114738  0.6562056770384 1.0
C      1  0.3900615646018  0.6061832000563  0.6707329310361 1.0
C      1  0.5532457760932  0.4458181387371  0.2852659196246 1.0
C      1  0.5479728026896  0.2748437559908  0.4846846323532 1.0
C      1  0.5484795855965  0.4211732460783  0.7071853666366 1.0
C      1  0.5509347722782  0.6725270075107  0.6367558951253 1.0
C      1  0.5479978200258  0.6892187343947  0.3743387677071 1.0
C      1  0.4467539321499  0.4458181631284  0.2852660537311 1.0
C      1  0.4520270125117  0.2748438179650  0.4846847330230 1.0
C      1  0.4515206170599  0.4211732863312  0.7071854534726 1.0
C      1  0.4490655544817  0.6725270824427  0.6367560145353 1.0
C      1  0.4520019991765  0.6892187188684  0.3743387996630 1.0
END
