TITL C-65754-1030-24 -4.421 3375.00 -768.77620969 0 0 93 (C1) n - 1
REM
REM Run started: at 2020.12.12 16:10:02 in /rds/project/t2_vol4/rds-t2-cs072/BORA/CARBON/AIRSS/Generating-Clusters/Str-Search/Higher-Symm/C10-100
REM VASP from code version vasp.5.4.4.18Apr17-6-g9f103f2a35 (build Oct 11 2019 16:45:47) gamma-only
REM
REM
REM
REM
REM ./C.cell (f39ce9773e2efe3fa5bbdf770a4156b8)
REM AIRSS Version 0.9.1 bugfix July 2018 build 013d7b7c2542+ Fri, 06 Jul 2018 19:26:36 +0100
REM compiler GCC version 4.8.5 20150623 (Red Hat 4.8.5-39)
REM options -cpp -mtune=generic -march=x86-64 -g -O0
REM seed -1941379861 708814437 361422192 -71731257 -678014569 -727319428 982592423 -1579805402 -661766629 -662758612 29045482 1697591959
REM
REM C.POTCAR (d86ddea03c3ceb6dc662c8ad6801f873)
REM 
CELL 1.54180   15.00000   15.00000   15.00000   90.00000   90.00000   90.00000
LATT -1
SFAC C  
C      1  0.2302494550354  0.4803734297331  0.3449462926193 1.0
C      1  0.2403196539067  0.6305237927303  0.4422813415346 1.0
C      1  0.2356501976537  0.6157178773900  0.6198676073461 1.0
C      1  0.2329419624621  0.4374213146507  0.6254990997145 1.0
C      1  0.2245752079912  0.3446120444600  0.4732608239995 1.0
C      1  0.6934727605163  0.3663855549139  0.5603408335529 1.0
C      1  0.6746905914463  0.4072243084295  0.3994684507330 1.0
C      1  0.6858411792294  0.5709764029355  0.3762242951576 1.0
C      1  0.6858960313164  0.6433123445885  0.5247658588806 1.0
C      1  0.6921575906301  0.5265642467811  0.6437718245348 1.0
C      1  0.1966429324117  0.4065943508921  0.4048109113958 1.0
C      1  0.2068911659849  0.5441620900148  0.4172251552145 1.0
C      1  0.2407425967733  0.6588412228934  0.5311458981035 1.0
C      1  0.2388922212653  0.5311110818439  0.6554941429720 1.0
C      1  0.1999359339528  0.4118323507282  0.5431847670829 1.0
C      1  0.4762857392734  0.7622111817989  0.5409031880857 1.0
C      1  0.4767835541105  0.5433173580548  0.7553909179949 1.0
C      1  0.4843554210403  0.2564749449826  0.6251981536509 1.0
C      1  0.4864131261912  0.3486752739332  0.3432283758000 1.0
C      1  0.4833822325474  0.6293707206849  0.2552680185544 1.0
C      1  0.6211671608718  0.3544695107235  0.6965650364933 1.0
C      1  0.6196451018935  0.2668802505521  0.4251290202005 1.0
C      1  0.6211698033212  0.5115977821331  0.2481132952463 1.0
C      1  0.6164316592401  0.7375845904007  0.4270433684301 1.0
C      1  0.6165841949613  0.6445703535793  0.6996676553594 1.0
C      1  0.3857021122423  0.3277805258548  0.3529752746932 1.0
C      1  0.3867503862600  0.6057443842674  0.2580832249394 1.0
C      1  0.3818510955179  0.7476123973692  0.5154690674989 1.0
C      1  0.3823941825657  0.5637574711737  0.7390959407282 1.0
C      1  0.3885892154710  0.2787621554512  0.6336213770366 1.0
C      1  0.5287893604108  0.3147083746283  0.6877033082560 1.0
C      1  0.5266386805707  0.2685452253505  0.3909510601370 1.0
C      1  0.5292451236620  0.5497315453654  0.2288544036983 1.0
C      1  0.5234653768724  0.7616235887461  0.4563481697840 1.0
C      1  0.5241524802935  0.6248234763242  0.7327140278808 1.0
C      1  0.4643053390847  0.6875307561782  0.6944391420004 1.0
C      1  0.4655890196431  0.3756235369748  0.7258159358522 1.0
C      1  0.4647790925027  0.2422373260870  0.4563132855931 1.0
C      1  0.4660483834800  0.4766641186096  0.2344065927300 1.0
C      1  0.4641138451630  0.7376290217783  0.3855526984105 1.0
C      1  0.7614799252036  0.5372879400465  0.4327654280586 1.0
C      1  0.7651415585577  0.5841283419448  0.5158324362097 1.0
C      1  0.7806826182177  0.5331848348378  0.5940699971065 1.0
C      1  0.8220731050598  0.4500877227300  0.5934662579033 1.0
C      1  0.7586147592217  0.4433396806479  0.4396726902906 1.0
C      1  0.6544862012088  0.3325472858857  0.2623008911858 1.0
C      1  0.6592020290990  0.6761015446154  0.2656401742599 1.0
C      1  0.6548629478813  0.7806296844363  0.5892668965275 1.0
C      1  0.6540059248621  0.5035641536403  0.7925267967178 1.0
C      1  0.6549812702927  0.2213340765509  0.5969201805588 1.0
C      1  0.2980151752428  0.2829259472203  0.4873171455010 1.0
C      1  0.3059458149789  0.4607156476658  0.2887317864092 1.0
C      1  0.3049483846218  0.6764534142555  0.3841770196667 1.0
C      1  0.3039732879477  0.6784315652843  0.6516934654816 1.0
C      1  0.3066224812370  0.4154427863701  0.6884898237186 1.0
C      1  0.3763721498858  0.7274009701839  0.4219049555384 1.0
C      1  0.3756640443191  0.6541439061329  0.7040101020796 1.0
C      1  0.3780478964995  0.3562095097511  0.6915147619266 1.0
C      1  0.3762619038318  0.2742269973229  0.4312312550886 1.0
C      1  0.3769881774973  0.5107516662926  0.2491689926938 1.0
C      1  0.6427858990045  0.4355864433116  0.6215485707742 1.0
C      1  0.6289318915961  0.3574174878804  0.4797583835095 1.0
C      1  0.6258807307630  0.4902068300344  0.3557817484821 1.0
C      1  0.6311387794486  0.6306388094807  0.4399277806381 1.0
C      1  0.6330373507412  0.5993347198032  0.6019022675129 1.0
C      1  0.6730548029847  0.3167231132320  0.3482546073275 1.0
C      1  0.6843811664686  0.5912256040936  0.2729078244155 1.0
C      1  0.6783104520807  0.7459716433483  0.5106258198499 1.0
C      1  0.6777255696344  0.5688212650057  0.7364693463013 1.0
C      1  0.6832867593974  0.2967082498084  0.6360353387788 1.0
C      1  0.6054446369516  0.7413395326174  0.6551047069614 1.0
C      1  0.6065167292625  0.4285024001741  0.7717091704484 1.0
C      1  0.6078775105906  0.2096193129998  0.5177469449503 1.0
C      1  0.6083954788277  0.4071760747424  0.2345413740185 1.0
C      1  0.6074588506930  0.7276221163379  0.3216513761742 1.0
C      1  0.5132880126105  0.3979266154326  0.2577671132230 1.0
C      1  0.5135484499411  0.7044649082971  0.3097347230523 1.0
C      1  0.5097934447666  0.7429468637170  0.6303579465315 1.0
C      1  0.5108504207146  0.4522385409025  0.7607501422513 1.0
C      1  0.5141397932039  0.2210043079576  0.5384497055402 1.0
C      1  0.5578160996232  0.5525233483283  0.5555136442120 1.0
C      1  0.5615442708902  0.4606813541746  0.5707023401681 1.0
C      1  0.5415837791154  0.3995593554783  0.5018881778811 1.0
C      1  0.5378146772114  0.5050301402416  0.4012111912729 1.0
C      1  0.5533955524404  0.5733592623031  0.4635154776597 1.0
C      1  0.3114576166712  0.5075682393874  0.7171592655181 1.0
C      1  0.3240457765483  0.2651850747104  0.5731635934318 1.0
C      1  0.3215438110964  0.3721261262135  0.3106791968704 1.0
C      1  0.3165520093516  0.6492766998914  0.2969832926479 1.0
C      1  0.3085803471776  0.7208431938426  0.5656051472929 1.0
C      1  0.1718778074126  0.4727766447019  0.4709983857580 1.0
C      1  0.7784852933481  0.4042198630006  0.5239524091062 1.0
C      1  0.4968135060000  0.4214336987476  0.4195996886216 1.0
END
