TITL C-65240-6877-1 -7.328 3375.00 -1269.33739383 0 0 155 (C1) n - 1
REM
REM Run started: at 2020.11.22 20:16:05 in /rds/project/t2_vol4/rds-t2-cs072/BORA/CARBON/AIRSS/Generating-Clusters/Str-Search/Higher-Symm
REM VASP from code version vasp.5.4.4.18Apr17-6-g9f103f2a35 (build Oct 11 2019 16:45:47) gamma-only
REM
REM
REM
REM
REM ./C.cell (e5ae0387ce4d49c7c0135a1433873289)
REM AIRSS Version 0.9.1 bugfix July 2018 build 013d7b7c2542+ Fri, 06 Jul 2018 19:26:36 +0100
REM compiler GCC version 4.8.5 20150623 (Red Hat 4.8.5-39)
REM options -cpp -mtune=generic -march=x86-64 -g -O0
REM seed -1972051663 -550650331 -1226260854 -1060413485 -1520509609 -2085128354 586356475 1341966553 -1869267247 1905513572 1081799098 594390664
REM
REM C.POTCAR (d86ddea03c3ceb6dc662c8ad6801f873)
REM 
CELL 1.54180   15.00000   15.00000   15.00000   90.00000   90.00000   90.00000
LATT -1
SFAC C  
C      1  0.4855481574328  0.6973534270875  0.1596529559389 1.0
C      1  0.5220378431811  0.2694347268134  0.8117010326939 1.0
C      1  0.2834007751167  0.5644891115821  0.8498981095542 1.0
C      1  0.7481714229280  0.4237790550101  0.2067756883567 1.0
C      1  0.2438014871196  0.2932340773283  0.6790815644126 1.0
C      1  0.7509131362284  0.7253270435165  0.3081231447602 1.0
C      1  0.3461321566653  0.2047145212915  0.5925416035544 1.0
C      1  0.6186428130813  0.8068925591032  0.3696402778654 1.0
C      1  0.5381125195162  0.4908184966031  0.7206059116996 1.0
C      1  0.4682680816079  0.5297348073378  0.2920584040744 1.0
C      1  0.7087868563011  0.5003231268724  0.7203737301199 1.0
C      1  0.3157665185891  0.5093240571619  0.2187690323525 1.0
C      1  0.5114531773505  0.5483176733237  0.1203680516963 1.0
C      1  0.5035979175347  0.4012909390146  0.8974950844644 1.0
C      1  0.8214623756831  0.3450197300591  0.6722823240071 1.0
C      1  0.1789324849992  0.6441137146747  0.3415265847325 1.0
C      1  0.5875297786272  0.2477032663433  0.2330176315949 1.0
C      1  0.4377769397276  0.7432574070486  0.7853363441821 1.0
C      1  0.5973557403205  0.5942037980155  0.1218640883405 1.0
C      1  0.4164296596058  0.3639366785080  0.8801461601094 1.0
C      1  0.2721508038619  0.4014859977831  0.4393183502361 1.0
C      1  0.7458910402189  0.5752624811662  0.5003802153813 1.0
C      1  0.3565049782281  0.7783333175590  0.5357934757360 1.0
C      1  0.6090815659102  0.2029355654102  0.5019964343868 1.0
C      1  0.4137767559088  0.4119811862070  0.3233465897142 1.0
C      1  0.6221469135270  0.6246173666903  0.6581214687661 1.0
C      1  0.6498378516575  0.3828110824393  0.8233149036610 1.0
C      1  0.3523440808692  0.5854323920862  0.1601644153260 1.0
C      1  0.1360524946470  0.3863615415799  0.6086487005643 1.0
C      1  0.8567158317737  0.6461661688497  0.4026738775800 1.0
C      1  0.7335554708303  0.6705029976672  0.2275620355474 1.0
C      1  0.2739332782206  0.3308297202276  0.7631249619412 1.0
C      1  0.5137178156696  0.5742641949651  0.4402204061238 1.0
C      1  0.5077521788132  0.4645163687674  0.5611264221334 1.0
C      1  0.7538286222002  0.2837008618989  0.5247515706504 1.0
C      1  0.2221461636755  0.6874126366106  0.5009112919289 1.0
C      1  0.5701071877080  0.3480889026221  0.8506510249217 1.0
C      1  0.4415189507853  0.6124174575777  0.1414978253007 1.0
C      1  0.4260302784853  0.5453090229500  0.9308059999118 1.0
C      1  0.5950228748870  0.4185233506677  0.1703225112858 1.0
C      1  0.7449025768294  0.6634529824958  0.5492159318590 1.0
C      1  0.2257583525995  0.3922775003498  0.3572125981880 1.0
C      1  0.2453883782541  0.5013485038045  0.7883810242498 1.0
C      1  0.7786712373377  0.5030825935974  0.2514004217738 1.0
C      1  0.6273399931787  0.3622590319003  0.4791893953752 1.0
C      1  0.3564561334994  0.6246015552156  0.5319896185084 1.0
C      1  0.3602480038978  0.6437383613772  0.3903450766686 1.0
C      1  0.6254175169159  0.3767345631453  0.6302825690277 1.0
C      1  0.3004743690511  0.7013406275999  0.5488687123719 1.0
C      1  0.6705211465877  0.2751589782507  0.4824637547720 1.0
C      1  0.5728989830127  0.6416948682574  0.4936397028313 1.0
C      1  0.4169667297320  0.3499166426785  0.4915292560930 1.0
C      1  0.6939954375952  0.4674005842947  0.3794251821572 1.0
C      1  0.3058446764590  0.5264119880944  0.6375373550573 1.0
C      1  0.6731892732744  0.4645885035252  0.6300923825958 1.0
C      1  0.3269815910369  0.5497631319020  0.3839973929985 1.0
C      1  0.4408416951995  0.7735926037751  0.5803225666270 1.0
C      1  0.5311649075883  0.1997313831732  0.4448879145312 1.0
C      1  0.2192382967291  0.6984700277600  0.4097714198992 1.0
C      1  0.7617311902175  0.2934747328079  0.6151664121052 1.0
C      1  0.3434695055675  0.5116816847255  0.9084161968374 1.0
C      1  0.6785630352085  0.4540237456781  0.1448350959821 1.0
C      1  0.3395762835239  0.4191859691166  0.8799490182119 1.0
C      1  0.6789902166968  0.5482981214649  0.1373658481815 1.0
C      1  0.5174253025758  0.7846942105318  0.7731142023630 1.0
C      1  0.5004940768484  0.2400163221386  0.2068738904005 1.0
C      1  0.3201065103627  0.2365346142577  0.6749772033902 1.0
C      1  0.6654697944007  0.7686014056827  0.2971334703845 1.0
C      1  0.7788399774754  0.5668681234226  0.6904122705281 1.0
C      1  0.2519282587696  0.4332321321026  0.2344521929004 1.0
C      1  0.2967395087992  0.2362843266394  0.5076417924180 1.0
C      1  0.6567312777978  0.7966251086184  0.4614215591489 1.0
C      1  0.4838380706069  0.4421588470665  0.2497037427033 1.0
C      1  0.4990355007313  0.5259621147454  0.8003976909959 1.0
C      1  0.4259893037079  0.2876148131644  0.8195797139195 1.0
C      1  0.5826040724464  0.6822350341030  0.1558455012460 1.0
C      1  0.1843072242369  0.4635731752265  0.3027318465512 1.0
C      1  0.8595201405780  0.5261472965723  0.6709146265262 1.0
C      1  0.6594768239086  0.7142075666213  0.6883083315299 1.0
C      1  0.3695619689597  0.3219112502749  0.2946614483972 1.0
C      1  0.4632065498839  0.7707886820412  0.2090636651982 1.0
C      1  0.5616440153616  0.2052300155009  0.7606680310409 1.0
C      1  0.6037716410178  0.8120914332860  0.5392131975907 1.0
C      1  0.3678315860125  0.1923145662341  0.4281059809731 1.0
C      1  0.4096577004900  0.2431227452686  0.3487195251851 1.0
C      1  0.6228623095043  0.7870082915686  0.6312685238313 1.0
C      1  0.6825321628851  0.4399797621636  0.4704497079801 1.0
C      1  0.3110984719954  0.5405977854052  0.5396423583872 1.0
C      1  0.3514636980997  0.2705366902381  0.7652857754260 1.0
C      1  0.6508782794197  0.7191540406896  0.2106027484817 1.0
C      1  0.1989631364335  0.6228342056160  0.2531395368125 1.0
C      1  0.8061431624945  0.3854213570993  0.7548346259275 1.0
C      1  0.6728892190044  0.6429212198981  0.4806387917977 1.0
C      1  0.3268369479060  0.3314575614061  0.4828872879371 1.0
C      1  0.5072314963937  0.8059978276459  0.5189268439895 1.0
C      1  0.4437035076631  0.1643469677737  0.4769559915144 1.0
C      1  0.7731986938078  0.5045354303082  0.3504886995252 1.0
C      1  0.2306736840584  0.5123965177411  0.6905724840988 1.0
C      1  0.4364023654478  0.5811202986429  0.7482038629317 1.0
C      1  0.5739550502027  0.4024284062833  0.2724167725570 1.0
C      1  0.5118640930845  0.4583069134825  0.1533039426602 1.0
C      1  0.4971894417984  0.4987083509172  0.8904357776642 1.0
C      1  0.5413699764895  0.5447319642514  0.3474018674129 1.0
C      1  0.4736716738375  0.4881505120492  0.6436311055003 1.0
C      1  0.9857938996253  0.5500041394398  0.4728858678509 1.0
C      1  0.0444994752790  0.5083581973741  0.5126999395216 1.0
C      1  0.4879524406107  0.8238263810744  0.2690943883707 1.0
C      1  0.5976337533499  0.1630089205242  0.6964627215685 1.0
C      1  0.5233340782426  0.8267077250687  0.3533890916019 1.0
C      1  0.4331303989556  0.1772544387219  0.5705138306172 1.0
C      1  0.7306709477943  0.7275125140154  0.4681544720077 1.0
C      1  0.2003398538579  0.2610668572491  0.5203252474491 1.0
C      1  0.5681182506004  0.3067683574706  0.3102860063401 1.0
C      1  0.4492575880264  0.6718908111435  0.7187671636541 1.0
C      1  0.1851911443467  0.3047114661862  0.6042406311734 1.0
C      1  0.7939437915555  0.7166642992244  0.3884666356187 1.0
C      1  0.5010774685766  0.2407395404760  0.5986690123701 1.0
C      1  0.4653605987755  0.8103164411714  0.4295083223694 1.0
C      1  0.5915049088921  0.7858514315620  0.7201623555559 1.0
C      1  0.4186777288091  0.2475974207354  0.2455296430131 1.0
C      1  0.3956225378556  0.5292866652714  0.6743725210763 1.0
C      1  0.6084882997098  0.4753375966095  0.3313257268599 1.0
C      1  0.5986520885733  0.2152590788696  0.6088749592149 1.0
C      1  0.3667944075826  0.7942755413813  0.4405434702712 1.0
C      1  0.6219875040101  0.5320464621966  0.6940373128917 1.0
C      1  0.3713708924788  0.5052422994796  0.3099270238750 1.0
C      1  0.0967225332031  0.4650478793289  0.5733010136209 1.0
C      1  0.9099983052445  0.5851205833414  0.4361193409965 1.0
C      1  0.7197064734630  0.4230221295210  0.7858140850201 1.0
C      1  0.2761304641965  0.6006719455257  0.2036145895293 1.0
C      1  0.5599753956817  0.3805199997486  0.5574762529505 1.0
C      1  0.4349545697140  0.6406263225854  0.4520256216576 1.0
C      1  0.5022571633592  0.7125227274943  0.4638314257131 1.0
C      1  0.4823866151625  0.3214764044104  0.5577626017439 1.0
C      1  0.8129439387688  0.5563622603498  0.4245367968115 1.0
C      1  0.1563579474260  0.4705348815720  0.6446022078431 1.0
C      1  0.2719803705454  0.4111069970340  0.8132626448966 1.0
C      1  0.7449182789206  0.5814131281974  0.2006317585656 1.0
C      1  0.8556976667010  0.4357014084895  0.6910453778270 1.0
C      1  0.1636333490274  0.5526830906816  0.3101518998827 1.0
C      1  0.7342204583085  0.3308981739150  0.2221951745457 1.0
C      1  0.3084504293698  0.6562031549975  0.8403894755162 1.0
C      1  0.3155914417846  0.7262710562715  0.3866906323679 1.0
C      1  0.6631472908696  0.2926364776993  0.6382540904606 1.0
C      1  0.4735283815156  0.6930820471778  0.6288541536343 1.0
C      1  0.5080686987423  0.2601509924515  0.3755576137248 1.0
C      1  0.4484190502775  0.4156093446180  0.4237541812831 1.0
C      1  0.5494773499248  0.6457187899931  0.5927674509039 1.0
C      1  0.3581928948092  0.7233639314808  0.8363306827646 1.0
C      1  0.6782773828211  0.2690835370094  0.2104121704126 1.0
C      1  0.7275316637325  0.6485455368359  0.6481731076429 1.0
C      1  0.2742298927608  0.3512811492113  0.2821902390236 1.0
C      1  0.2963545392139  0.4966678983213  0.4576114677631 1.0
C      1  0.7058165212749  0.4929422626688  0.5412457750470 1.0
C      1  0.4848545906903  0.4854237017341  0.4714710842444 1.0
END
