TITL C-6535-55-35 -5.431 3375.00 -931.57498127 0 0 114 (C1) n - 1
REM
REM Run started: at 2020.12.18 17:49:30 in /gpfs/home/chem/mssmkc/CARBON/AIRSS/Generating-Clusters/Str-Search/Higher-Symm
REM VASP from code version vasp.5.4.4.18Apr17-6-g9f103f2a35 (build Oct 11 2019 16:45:47) gamma-only
REM
REM
REM
REM
REM ./C.cell (533062f00bc710175b3da973d35f2034)
REM AIRSS Version 0.9.1 bugfix July 2018 build 013d7b7c2542+ Fri, 06 Jul 2018 19:26:36 +0100
REM compiler GCC version 6.3.0
REM options -cpp -iprefix /gpfs/warwick/csc/orac/software/Core/GCCcore/6.3.0/bin/../lib/gcc/x86_64-pc-linux-gnu/6.3.0/ -mtune=generic -march=x86-64 -g -O0
REM seed 363287580 583414463 207973407 -1910451879 507622535 -64340622 648801230 1270096377 -490817131 -671121090 -668269406 -1021892321
REM
REM C.POTCAR (d86ddea03c3ceb6dc662c8ad6801f873)
REM 
CELL 1.54180   15.00000   15.00000   15.00000   90.00000   90.00000   90.00000
LATT -1
SFAC C  
C      1  0.3084675248975  0.6853902215635  0.4083183929633 1.0
C      1  0.6740826272280  0.4437423915142  0.2320712434579 1.0
C      1  0.4062638896570  0.2576203596705  0.6333124352910 1.0
C      1  0.7840942589085  0.6627200274715  0.5741489124400 1.0
C      1  0.6885884481601  0.3428681032410  0.3851567498842 1.0
C      1  0.2515191951001  0.3202535118244  0.6312793602445 1.0
C      1  0.2852028236406  0.3651459247595  0.7078307464499 1.0
C      1  0.3598843304401  0.5783908111107  0.2351014078729 1.0
C      1  0.6180259264979  0.5601277686465  0.6963904540337 1.0
C      1  0.6292786907087  0.2764108105253  0.3379510869001 1.0
C      1  0.5759361377041  0.7586362046285  0.6439473727769 1.0
C      1  0.3988336759906  0.7176508345167  0.4013961103112 1.0
C      1  0.3074642866127  0.3706545289051  0.4555181466673 1.0
C      1  0.6006450508380  0.6129307102593  0.2874770998156 1.0
C      1  0.3946282127908  0.7512725862176  0.6515315497866 1.0
C      1  0.6877548878117  0.4016198958241  0.5769270373380 1.0
C      1  0.7442100028072  0.6438350304096  0.3670948625413 1.0
C      1  0.2580211128809  0.6693636701056  0.6075089460527 1.0
C      1  0.3778636508829  0.5362033548372  0.6837523559324 1.0
C      1  0.3767128628568  0.4287059718749  0.3020800899740 1.0
C      1  0.6671078974047  0.3931300739355  0.7379308607620 1.0
C      1  0.6033225171890  0.7191601192653  0.4157013423616 1.0
C      1  0.5833748105111  0.2454927365142  0.6889952774639 1.0
C      1  0.4551243930093  0.2916098889138  0.3694956963559 1.0
C      1  0.4648105202337  0.2017691616801  0.4110006353560 1.0
C      1  0.2154212288603  0.4069977123500  0.4618926900249 1.0
C      1  0.3976611780937  0.4241633022183  0.1577454187597 1.0
C      1  0.5845410300223  0.1821976734174  0.6176124942525 1.0
C      1  0.5891595816552  0.8144356995116  0.4359013919432 1.0
C      1  0.4310305792145  0.8267989303155  0.6088958361835 1.0
C      1  0.7864498779801  0.4127921787380  0.5419716192968 1.0
C      1  0.8385057215761  0.6000131605080  0.3923333803064 1.0
C      1  0.2039653825622  0.6224518757374  0.5457261271656 1.0
C      1  0.5501725929198  0.4683084844425  0.8207640779194 1.0
C      1  0.5373633748505  0.5209397105747  0.1550535402523 1.0
C      1  0.3875235489167  0.5386931221065  0.8173425792402 1.0
C      1  0.4995283065090  0.8535522676066  0.4414910470567 1.0
C      1  0.1997768541290  0.5951648929529  0.4538073943720 1.0
C      1  0.3716237405393  0.5168180034163  0.1624212859310 1.0
C      1  0.5258761238392  0.8325241747253  0.6025999621210 1.0
C      1  0.5393729692922  0.1751809274082  0.4578289152382 1.0
C      1  0.4341061809866  0.1772596592505  0.5872101810259 1.0
C      1  0.8275319726221  0.5848373786788  0.5485245132935 1.0
C      1  0.7953565848883  0.4513849726032  0.4542396390343 1.0
C      1  0.1692104737329  0.4436859879743  0.5347001658741 1.0
C      1  0.5845554552878  0.5498050181786  0.7889162182139 1.0
C      1  0.6031732018310  0.4569885017903  0.1717560869044 1.0
C      1  0.3840246021124  0.4409106183559  0.8109446447973 1.0
C      1  0.8168824377667  0.4122161268227  0.6273902494358 1.0
C      1  0.3758456209206  0.6180339092917  0.7418443900154 1.0
C      1  0.6722621536980  0.7992419165051  0.3828816603628 1.0
C      1  0.2506175434994  0.4116075546617  0.3806669559344 1.0
C      1  0.2859154730970  0.6184237558701  0.6857562229901 1.0
C      1  0.8416793022493  0.6606657465644  0.3306964365148 1.0
C      1  0.5307147613883  0.5903584418593  0.2223478624140 1.0
C      1  0.5837575653839  0.3868756406298  0.7717648743674 1.0
C      1  0.4133448035427  0.3717829536471  0.2368151688336 1.0
C      1  0.3741687491444  0.8162546515657  0.5305762135638 1.0
C      1  0.3827440800077  0.2408869375383  0.4219155967136 1.0
C      1  0.6561942439406  0.2442629820883  0.6258100870200 1.0
C      1  0.7720911155485  0.5835882889507  0.6272208076044 1.0
C      1  0.3675908390446  0.3652413201536  0.7524406449021 1.0
C      1  0.6133544028188  0.2251859238925  0.4178536581118 1.0
C      1  0.2552743981506  0.6164867129477  0.3762214517377 1.0
C      1  0.1946080871168  0.4007327463979  0.6137489236339 1.0
C      1  0.7416997726603  0.4245705706880  0.3781290973354 1.0
C      1  0.6175036802747  0.3717624893712  0.2082421552203 1.0
C      1  0.5833239258355  0.6337247649685  0.7553897377215 1.0
C      1  0.4443686410861  0.6208091732920  0.2547242887556 1.0
C      1  0.3443895098954  0.1588501242348  0.5962482172317 1.0
C      1  0.4162201534947  0.8086870750919  0.4458508190467 1.0
C      1  0.6466644007280  0.7329071989247  0.5919845920788 1.0
C      1  0.4618786183631  0.6524833794726  0.3489109577842 1.0
C      1  0.6496134133167  0.3014892541644  0.4689053075340 1.0
C      1  0.2315425558783  0.4453817844110  0.6925496395589 1.0
C      1  0.5315568882739  0.7028618120029  0.7155029617550 1.0
C      1  0.5737290896154  0.3053009362450  0.2606313458750 1.0
C      1  0.4346276580151  0.3052531052787  0.7154001348530 1.0
C      1  0.3149708562602  0.2614455977627  0.5818010150397 1.0
C      1  0.3617039015815  0.6705434813445  0.4903285349048 1.0
C      1  0.7134578197676  0.7135272580257  0.5351990722602 1.0
C      1  0.7146579392811  0.4865150849683  0.3042230985381 1.0
C      1  0.7103070788517  0.5339578455513  0.6704913661981 1.0
C      1  0.2860226276782  0.5600275046453  0.3011483212445 1.0
C      1  0.4794254012287  0.3110509815905  0.2733750063481 1.0
C      1  0.7015428252030  0.7134865728868  0.4288066812448 1.0
C      1  0.2816555687429  0.5222390422237  0.6873955155157 1.0
C      1  0.5306645621826  0.3077360045674  0.7351087394381 1.0
C      1  0.5595995104304  0.6695371690781  0.3499312648025 1.0
C      1  0.4359289546859  0.6963700984303  0.7157206376337 1.0
C      1  0.3336382413503  0.7276574139648  0.5731499199914 1.0
C      1  0.3260280734219  0.2790721556687  0.4825930444305 1.0
C      1  0.6774011711340  0.3065269329091  0.5628856595880 1.0
C      1  0.6894198536566  0.5810827273916  0.3151623379683 1.0
C      1  0.7204336445878  0.4329448543235  0.6693141732610 1.0
C      1  0.2860455362812  0.4663004958711  0.3126734639935 1.0
C      1  0.4516762705345  0.5113357685594  0.6296004629383 1.0
C      1  0.4062975782122  0.5839863960115  0.4895848983300 1.0
C      1  0.6142811021608  0.4441057295547  0.5234131430499 1.0
C      1  0.4526375344467  0.5578412371770  0.4022396587238 1.0
C      1  0.5776292023086  0.3795014116768  0.4663669718501 1.0
C      1  0.4211235402015  0.4974863788065  0.5335895836617 1.0
C      1  0.4005292443546  0.4212639529998  0.4694912476840 1.0
C      1  0.5744118823667  0.5270982663372  0.5397596280884 1.0
C      1  0.4324449872741  0.4572226661055  0.3794316179285 1.0
C      1  0.5450601093021  0.5345768018573  0.6311537655034 1.0
C      1  0.4992926439595  0.5521515337277  0.4864368618360 1.0
C      1  0.4847060541721  0.3768229687964  0.4240993103654 1.0
C      1  0.5524868830396  0.8607229535428  0.5177277908070 1.0
C      1  0.4527746880443  0.4931911493019  0.1230747669004 1.0
C      1  0.5241071219498  0.1569050695623  0.5529025063663 1.0
C      1  0.4607874486555  0.4807936865053  0.8431986357893 1.0
C      1  0.8323150135683  0.5401894503688  0.4642724303154 1.0
C      1  0.1690926471852  0.5378793292973  0.5204390263154 1.0
END
