TITL C-65754-1030-25 -1.967 3375.00 -328.14994985 0 0 41 (C1) n - 1
REM
REM Run started: at 2020.12.12 16:16:51 in /rds/project/t2_vol4/rds-t2-cs072/BORA/CARBON/AIRSS/Generating-Clusters/Str-Search/Higher-Symm/C10-100
REM VASP from code version vasp.5.4.4.18Apr17-6-g9f103f2a35 (build Oct 11 2019 16:45:47) gamma-only
REM
REM
REM
REM
REM ./C.cell (f39ce9773e2efe3fa5bbdf770a4156b8)
REM AIRSS Version 0.9.1 bugfix July 2018 build 013d7b7c2542+ Fri, 06 Jul 2018 19:26:36 +0100
REM compiler GCC version 4.8.5 20150623 (Red Hat 4.8.5-39)
REM options -cpp -mtune=generic -march=x86-64 -g -O0
REM seed -944497546 543225990 -299025903 -839948913 224804057 1726398433 662928040 1335207887 -2063384319 -973200656 1749071395 -606520239
REM
REM C.POTCAR (d86ddea03c3ceb6dc662c8ad6801f873)
REM 
CELL 1.54180   15.00000   15.00000   15.00000   90.00000   90.00000   90.00000
LATT -1
SFAC C  
C      1  0.5494863481562  0.6819264572971  0.5417671091369 1.0
C      1  0.5479518795494  0.5451829392510  0.6807760742909 1.0
C      1  0.6866219893019  0.5430677668892  0.5435006778891 1.0
C      1  0.4494855666558  0.3074484389404  0.5446225372297 1.0
C      1  0.4557287755037  0.6802234649219  0.4400263789886 1.0
C      1  0.5485799892665  0.3084336757251  0.4465924364636 1.0
C      1  0.4526674549262  0.4452467561571  0.6783598110865 1.0
C      1  0.4523260839793  0.5444485595043  0.3035483535575 1.0
C      1  0.5500488006774  0.4449906552132  0.3083091364698 1.0
C      1  0.3081336942345  0.4476244142953  0.5430652839140 1.0
C      1  0.3094886261279  0.5462935382131  0.4424254320709 1.0
C      1  0.6855714496553  0.4448712944797  0.4465588489456 1.0
C      1  0.4525158789636  0.5420365316819  0.6503546634960 1.0
C      1  0.6663947820876  0.4464678121357  0.5432207261620 1.0
C      1  0.5518989889994  0.6649198813501  0.4438194990482 1.0
C      1  0.5491061527199  0.4471637544826  0.6647738986766 1.0
C      1  0.5472796016056  0.5405272189408  0.3275509645218 1.0
C      1  0.4543452362529  0.4500684397913  0.3300973413548 1.0
C      1  0.3245070056003  0.5449134333008  0.5400781374575 1.0
C      1  0.3332871082344  0.4513951450867  0.4483482155124 1.0
C      1  0.6672270970026  0.5416167358115  0.4466829448460 1.0
C      1  0.4531492425885  0.3318790599206  0.4497532810668 1.0
C      1  0.4536969875595  0.6534167405059  0.5371968713380 1.0
C      1  0.5449428073802  0.3292908284979  0.5417720228017 1.0
C      1  0.6120366758666  0.3085630855009  0.3808515285991 1.0
C      1  0.3871534977569  0.6084689428660  0.3042438945577 1.0
C      1  0.3188758724785  0.3831576470947  0.6063008390136 1.0
C      1  0.3923048378088  0.6718135532692  0.3765879589853 1.0
C      1  0.3835076543261  0.3097408445179  0.6076718553527 1.0
C      1  0.6122133120376  0.6788554440886  0.6082082425914 1.0
C      1  0.6126109723552  0.3786060477757  0.3102526820860 1.0
C      1  0.6115135689447  0.6107257989233  0.6775193708574 1.0
C      1  0.3884565329559  0.3825402973233  0.6705139944264 1.0
C      1  0.6746486745853  0.6065707790003  0.6060161474901 1.0
C      1  0.6732505999003  0.3810503188229  0.3833738961893 1.0
C      1  0.3220303064284  0.6084273704039  0.3772444672383 1.0
C      1  0.4070686956960  0.4046115205661  0.4029376010353 1.0
C      1  0.5983256457382  0.5907547689903  0.3989464399824 1.0
C      1  0.5962627474340  0.4004395564875  0.5919261553853 1.0
C      1  0.3880929658152  0.6011395491748  0.5963772279881 1.0
C      1  0.4633583928438  0.5478472328016  0.5450337518964 1.0
END
