TITL C-6535-55-17 -4.961 3375.00 -829.97652378 0 0 103 (C1) n - 1
REM
REM Run started: at 2020.12.18 02:56:13 in /gpfs/home/chem/mssmkc/CARBON/AIRSS/Generating-Clusters/Str-Search/Higher-Symm
REM VASP from code version vasp.5.4.4.18Apr17-6-g9f103f2a35 (build Oct 11 2019 16:45:47) gamma-only
REM
REM
REM
REM
REM ./C.cell (533062f00bc710175b3da973d35f2034)
REM AIRSS Version 0.9.1 bugfix July 2018 build 013d7b7c2542+ Fri, 06 Jul 2018 19:26:36 +0100
REM compiler GCC version 6.3.0
REM options -cpp -iprefix /gpfs/warwick/csc/orac/software/Core/GCCcore/6.3.0/bin/../lib/gcc/x86_64-pc-linux-gnu/6.3.0/ -mtune=generic -march=x86-64 -g -O0
REM seed -822169382 -545349093 953415460 1489354451 -1425478637 -994255116 -992613123 1306429173 -1097754807 723478041 1575438431 138301563
REM
REM C.POTCAR (d86ddea03c3ceb6dc662c8ad6801f873)
REM 
CELL 1.54180   15.00000   15.00000   15.00000   90.00000   90.00000   90.00000
LATT -1
SFAC C  
C      1  0.4300179542631  0.4804983290365  0.3060411498233 1.0
C      1  0.5078215504223  0.3831681456827  0.4957284551389 1.0
C      1  0.6986808028712  0.3264564643291  0.5657811336745 1.0
C      1  0.4070281171599  0.6116344476153  0.6501719323181 1.0
C      1  0.7106352396349  0.6753551944120  0.6429106197538 1.0
C      1  0.6103037238909  0.8003858914799  0.5598224912909 1.0
C      1  0.5357294590101  0.6122211202046  0.5377847565309 1.0
C      1  0.6616408705142  0.2658492628902  0.3840734233155 1.0
C      1  0.4668715929157  0.8180128447499  0.4889060569187 1.0
C      1  0.6435636203662  0.3777921220873  0.2570937999745 1.0
C      1  0.6336433079696  0.4572683233486  0.5029646197476 1.0
C      1  0.7701198714453  0.5580069749910  0.5504973214415 1.0
C      1  0.3973784796047  0.7224564811251  0.3611912141280 1.0
C      1  0.3127748445588  0.5831507975710  0.6329726079929 1.0
C      1  0.3886704494315  0.6045098917341  0.4805399710832 1.0
C      1  0.3893872462827  0.4975754137777  0.8618733118679 1.0
C      1  0.6194000348699  0.3690134258865  0.8043397948652 1.0
C      1  0.3168418130270  0.3905042098431  0.3318772236861 1.0
C      1  0.2626702625616  0.6268937920368  0.5643294273918 1.0
C      1  0.3068966043440  0.1746430064094  0.4549577527340 1.0
C      1  0.7558455228659  0.3219879904164  0.4929936583336 1.0
C      1  0.5148337408647  0.7957359569495  0.7112187359620 1.0
C      1  0.6914025671468  0.5324671180913  0.5136096562392 1.0
C      1  0.4517847323514  0.2156109984770  0.5362737030797 1.0
C      1  0.5512870458971  0.4493987860146  0.4506063163598 1.0
C      1  0.7471313334194  0.2943217547817  0.4138662526939 1.0
C      1  0.2169502024758  0.3354281120440  0.5438110059108 1.0
C      1  0.4829278579960  0.5048477735086  0.3954265687450 1.0
C      1  0.3165094420012  0.6649942519462  0.4939955330310 1.0
C      1  0.3647602275751  0.5410866846521  0.7759969902661 1.0
C      1  0.5778452918179  0.5297026697343  0.1848475243274 1.0
C      1  0.5146535812332  0.2068259148491  0.4557991197631 1.0
C      1  0.6188740920760  0.5946361925349  0.4929819084574 1.0
C      1  0.6318303824150  0.4020716875983  0.5885299780257 1.0
C      1  0.4581909842497  0.3053143034476  0.5954469534694 1.0
C      1  0.2310854621108  0.3980633384627  0.6072300193012 1.0
C      1  0.5302685327507  0.5081939806451  0.6804348784583 1.0
C      1  0.3935934332915  0.2301072352553  0.3316533183326 1.0
C      1  0.4864463991974  0.8487702435207  0.6530854426537 1.0
C      1  0.6271451728914  0.2681167372034  0.5440766268732 1.0
C      1  0.6923211404077  0.5150711132111  0.7176156179413 1.0
C      1  0.4323610077620  0.4581797752919  0.7971740890479 1.0
C      1  0.6573347912420  0.4411770073050  0.7604120762860 1.0
C      1  0.1902755231090  0.5920212699586  0.5127354136573 1.0
C      1  0.1960228111466  0.5068208855785  0.4769705584632 1.0
C      1  0.5402466954489  0.6873145027749  0.2549195054125 1.0
C      1  0.4261725038460  0.6103311834900  0.7404397511706 1.0
C      1  0.4373748944978  0.2991531174407  0.2787542550635 1.0
C      1  0.7050532622633  0.4162496562782  0.1492218418247 1.0
C      1  0.4822662041294  0.2081204120964  0.3676557948373 1.0
C      1  0.2700959327527  0.4227149509240  0.6916700630547 1.0
C      1  0.7475916882359  0.5303942723017  0.3294609089229 1.0
C      1  0.3138893824146  0.2354900153489  0.3798681508985 1.0
C      1  0.6177903112887  0.7355705516693  0.2992161782583 1.0
C      1  0.6215882504121  0.4639079723378  0.6682905947889 1.0
C      1  0.2707706709349  0.3219860185873  0.3783921839054 1.0
C      1  0.5902211741269  0.6170382731216  0.2040269933140 1.0
C      1  0.4015460488429  0.5765526562904  0.2723371520774 1.0
C      1  0.4693410504056  0.4352152303975  0.7145085725950 1.0
C      1  0.3053616002717  0.3483468163755  0.7406084982942 1.0
C      1  0.2556346608423  0.6252271361240  0.3540768861337 1.0
C      1  0.3885354444142  0.5097379376122  0.4445420098776 1.0
C      1  0.2010683452265  0.5811792101115  0.4164651320189 1.0
C      1  0.4581822257655  0.6543076235891  0.3060069131980 1.0
C      1  0.6128338209846  0.2988403755166  0.3049411429231 1.0
C      1  0.7322944271082  0.4137524050685  0.2410256564722 1.0
C      1  0.3563788030588  0.4377755401175  0.5057955410156 1.0
C      1  0.3000556189720  0.5145761408508  0.7038334648734 1.0
C      1  0.7247401399507  0.7508524207191  0.4411709311495 1.0
C      1  0.3786097138741  0.3106854567944  0.7676172323609 1.0
C      1  0.6834579178643  0.5937880409129  0.3393267275791 1.0
C      1  0.4201439173725  0.3753455075121  0.5290376481297 1.0
C      1  0.3691286812016  0.1862906389025  0.5112037551430 1.0
C      1  0.3997364089921  0.3839365034861  0.2839930338143 1.0
C      1  0.5491119914909  0.3229041525440  0.8151614616527 1.0
C      1  0.5257959355011  0.5900657515661  0.7436020198153 1.0
C      1  0.5154288514229  0.8333015385383  0.5642802734744 1.0
C      1  0.3140035792713  0.5679637071867  0.3029989408734 1.0
C      1  0.5547630040341  0.3337326686993  0.5675394502799 1.0
C      1  0.6450297939665  0.7939778449468  0.4735676736643 1.0
C      1  0.7889901520724  0.4648226443539  0.2951101735410 1.0
C      1  0.4701351376582  0.2891436464520  0.7754673716287 1.0
C      1  0.3368954606979  0.4854491807412  0.3516637050653 1.0
C      1  0.6830888028025  0.6132352362045  0.7108885218695 1.0
C      1  0.5123303441327  0.6045369913587  0.3848382765939 1.0
C      1  0.7826776460039  0.7039698141446  0.4905886580206 1.0
C      1  0.5268496803447  0.2650860254700  0.3013064763053 1.0
C      1  0.6119496926074  0.6040533240777  0.4021376635803 1.0
C      1  0.5993438086352  0.6478013274488  0.7469973193516 1.0
C      1  0.4527510894412  0.3398712438009  0.6903835490533 1.0
C      1  0.4750559619233  0.6494440546874  0.4684119402133 1.0
C      1  0.7665405944461  0.6514462918098  0.5663661525860 1.0
C      1  0.6086223123422  0.2308286077827  0.4589950726451 1.0
C      1  0.6209024161643  0.4498584513053  0.1917654294788 1.0
C      1  0.6453358526947  0.7502476269189  0.6382581332322 1.0
C      1  0.5879986338832  0.7394508843827  0.7150826742409 1.0
C      1  0.2195955813298  0.3449169907549  0.4556222693388 1.0
C      1  0.3132146908361  0.6931096726084  0.3965833348595 1.0
C      1  0.6573750406214  0.6546318837672  0.2677053290259 1.0
C      1  0.4522346379090  0.7462894724809  0.4402511547699 1.0
C      1  0.6534042677260  0.7763153290681  0.3802067590431 1.0
C      1  0.4921115143812  0.5773120372901  0.6109437031531 1.0
C      1  0.2565965067234  0.4352050121697  0.5142212841802 1.0
END
