TITL C-65754-1030-39 -0.862 3375.00 -132.69986785 0 0 17 (C2v) n - 1
REM
REM Run started: at 2020.12.12 19:52:07 in /rds/project/t2_vol4/rds-t2-cs072/BORA/CARBON/AIRSS/Generating-Clusters/Str-Search/Higher-Symm/C10-100
REM VASP from code version vasp.5.4.4.18Apr17-6-g9f103f2a35 (build Oct 11 2019 16:45:47) gamma-only
REM
REM
REM
REM
REM ./C.cell (f39ce9773e2efe3fa5bbdf770a4156b8)
REM AIRSS Version 0.9.1 bugfix July 2018 build 013d7b7c2542+ Fri, 06 Jul 2018 19:26:36 +0100
REM compiler GCC version 4.8.5 20150623 (Red Hat 4.8.5-39)
REM options -cpp -mtune=generic -march=x86-64 -g -O0
REM seed -26034548 -1500276529 -288878106 -1172581768 -1914913703 -91503282 -1522159407 -2002170417 -1726287312 356143577 -2103750145 1577322541
REM
REM C.POTCAR (d86ddea03c3ceb6dc662c8ad6801f873)
REM 
CELL 1.54180   15.00000   15.00000   15.00000   90.00000   90.00000   90.00000
LATT -1
SFAC C  
C      1  0.5957969951167  0.4091279573138  0.4493946326213 1.0
C      1  0.4097215387174  0.3785189057931  0.5335802882556 1.0
C      1  0.5744175138698  0.5976169175352  0.4521776016730 1.0
C      1  0.3877110639059  0.5653478445665  0.5414235209772 1.0
C      1  0.4091953371804  0.3822421623765  0.4497806009978 1.0
C      1  0.5961880334516  0.4056902460573  0.5328029173905 1.0
C      1  0.3868397879294  0.5690194145460  0.4579951002395 1.0
C      1  0.5752002555326  0.5935584148880  0.5465244568777 1.0
C      1  0.5463653482415  0.4393663239524  0.6033158733256 1.0
C      1  0.4471395257460  0.4349592415775  0.3839217956322 1.0
C      1  0.5340334715659  0.5364513964320  0.6108032822163 1.0
C      1  0.4352029996974  0.5326666408381  0.3877749648246 1.0
C      1  0.4487767971832  0.4254530453176  0.6031686891960 1.0
C      1  0.5446428210428  0.4491449148031  0.3832267976211 1.0
C      1  0.4368738223611  0.5232046654629  0.6078035284411 1.0
C      1  0.5322846375798  0.5464662801116  0.3837918090837 1.0
C      1  0.6244265508786  0.6608197284284  0.5016267406270 1.0
END
