TITL C-6535-55-46 -6.645 3375.00 -1016.89290703 0 0 127 (C1) n - 1
REM
REM Run started: at 2020.12.19 02:42:22 in /gpfs/home/chem/mssmkc/CARBON/AIRSS/Generating-Clusters/Str-Search/Higher-Symm
REM VASP from code version vasp.5.4.4.18Apr17-6-g9f103f2a35 (build Oct 11 2019 16:45:47) gamma-only
REM
REM
REM
REM
REM ./C.cell (533062f00bc710175b3da973d35f2034)
REM AIRSS Version 0.9.1 bugfix July 2018 build 013d7b7c2542+ Fri, 06 Jul 2018 19:26:36 +0100
REM compiler GCC version 6.3.0
REM options -cpp -iprefix /gpfs/warwick/csc/orac/software/Core/GCCcore/6.3.0/bin/../lib/gcc/x86_64-pc-linux-gnu/6.3.0/ -mtune=generic -march=x86-64 -g -O0
REM seed 1793659366 1214147353 -1037869052 1501960627 -1822914319 1701985224 207389760 1928848578 -1085802225 901501774 -911095917 612310648
REM
REM C.POTCAR (d86ddea03c3ceb6dc662c8ad6801f873)
REM 
CELL 1.54180   15.00000   15.00000   15.00000   90.00000   90.00000   90.00000
LATT -1
SFAC C  
C      1  0.3882789410238  0.5933946742636  0.6277551385878 1.0
C      1  0.3869381166612  0.5947993623786  0.3744404001743 1.0
C      1  0.3635034994994  0.4943383118276  0.7902679930207 1.0
C      1  0.3606982887990  0.4948261106682  0.2114836540233 1.0
C      1  0.4477188159778  0.8044785192592  0.4777922563663 1.0
C      1  0.3978178112416  0.8038185221691  0.5545942148998 1.0
C      1  0.1819192368637  0.4645888791691  0.6168093130779 1.0
C      1  0.1806842318713  0.4586566982659  0.3766008741197 1.0
C      1  0.1887324864662  0.5390679603897  0.3226749131827 1.0
C      1  0.1848610595291  0.5466479914873  0.6679200658888 1.0
C      1  0.6198186222177  0.3749731785753  0.6819091374384 1.0
C      1  0.6194418112907  0.3751508539527  0.3178468777398 1.0
C      1  0.7832105877243  0.3500904521684  0.4526410281291 1.0
C      1  0.7832564816627  0.3503446205056  0.5463223294873 1.0
C      1  0.6131684792285  0.3036783736438  0.3960958628159 1.0
C      1  0.6133107117520  0.3035409665729  0.6034566282895 1.0
C      1  0.6372622415701  0.3253066296028  0.7667815850309 1.0
C      1  0.6360976893348  0.3257329432191  0.2330076653728 1.0
C      1  0.3131464436941  0.2593484631064  0.4178736592115 1.0
C      1  0.3128623731681  0.2607254408064  0.5818144739732 1.0
C      1  0.4994606381502  0.5468010833661  0.8541650503558 1.0
C      1  0.4971500785395  0.5469249292391  0.1477106870634 1.0
C      1  0.3870463444551  0.5740133390410  0.2642703747973 1.0
C      1  0.3889976632438  0.5734453153987  0.7380132679748 1.0
C      1  0.6431657422145  0.2397123107331  0.2673624083992 1.0
C      1  0.6441442798873  0.2400002831875  0.7310826841991 1.0
C      1  0.3660416999210  0.3454178470778  0.5439229306973 1.0
C      1  0.3659577334078  0.3450320085404  0.4559865817852 1.0
C      1  0.5898883686806  0.7160008896082  0.6906095794641 1.0
C      1  0.5883478960725  0.7152475251796  0.3063693623295 1.0
C      1  0.1920258837197  0.6741894031319  0.4419023858020 1.0
C      1  0.1893020516675  0.6774930949872  0.5405260461125 1.0
C      1  0.2802228309356  0.7055210290980  0.5757991630122 1.0
C      1  0.2800799128242  0.7109135866191  0.4108634134218 1.0
C      1  0.6471329832147  0.2175021314530  0.3502578283755 1.0
C      1  0.6476899278360  0.2169810028353  0.6482750875059 1.0
C      1  0.5207003216730  0.2913453707414  0.5570749196874 1.0
C      1  0.5206865273274  0.2915573044925  0.4428149045173 1.0
C      1  0.3317233456934  0.2755911941831  0.6766403044916 1.0
C      1  0.3322943686878  0.2732010887741  0.3225420694310 1.0
C      1  0.4248928996550  0.2622897573723  0.6932213707008 1.0
C      1  0.4259888643068  0.2613188568910  0.3068259519536 1.0
C      1  0.3667740278647  0.4094641714749  0.7390480995847 1.0
C      1  0.3661126276512  0.4085973089028  0.2610527696351 1.0
C      1  0.6822518119507  0.3654736907088  0.5529552343633 1.0
C      1  0.6821838534643  0.3654650180509  0.4465155479203 1.0
C      1  0.4138365375748  0.4979474378599  0.8746995855252 1.0
C      1  0.4109450164993  0.4988936022194  0.1265699324934 1.0
C      1  0.6700726875380  0.4415455605273  0.6232860812641 1.0
C      1  0.6695953686516  0.4416149299508  0.3763415734419 1.0
C      1  0.7539917181318  0.5291560329925  0.1490931827475 1.0
C      1  0.7563276839897  0.5279160590465  0.8503305580514 1.0
C      1  0.8164183868006  0.6767344261269  0.5502671409835 1.0
C      1  0.8180804073365  0.6766685711328  0.4487247996497 1.0
C      1  0.3316942548612  0.6287420727552  0.4527930706936 1.0
C      1  0.3319194344840  0.6278787723579  0.5470802010385 1.0
C      1  0.4497443262432  0.3733839247262  0.4186830597680 1.0
C      1  0.4501726898719  0.3733029419103  0.5812973725031 1.0
C      1  0.4574268524705  0.5246192583660  0.9499962510449 1.0
C      1  0.4561077852708  0.5249896792796  0.0519040114970 1.0
C      1  0.4632114443420  0.6621309897845  0.6276771652642 1.0
C      1  0.4623427119657  0.6642545556120  0.3764749070503 1.0
C      1  0.8469445070492  0.5866876271872  0.4501657434644 1.0
C      1  0.8464542422136  0.5868474103022  0.5494723368094 1.0
C      1  0.4575411166146  0.3462380010900  0.7459698079778 1.0
C      1  0.4576142179735  0.3461282877073  0.2542161265096 1.0
C      1  0.4591190388489  0.2261557044408  0.6069660924094 1.0
C      1  0.4597776902288  0.2259441552874  0.3929477073667 1.0
C      1  0.7444720978569  0.5034654162851  0.6604642545303 1.0
C      1  0.7436185678094  0.5039972874374  0.3390640306576 1.0
C      1  0.5331173736001  0.7865589062936  0.6594116714298 1.0
C      1  0.5333668538664  0.7867340379389  0.3412815817015 1.0
C      1  0.6499543364452  0.5402845551454  0.6271341506672 1.0
C      1  0.6488506088881  0.5400256604247  0.3727128453754 1.0
C      1  0.7407065216130  0.5065235640911  0.2416049182812 1.0
C      1  0.7423494193716  0.5057173726487  0.7578961207344 1.0
C      1  0.6181049641647  0.6160832332027  0.5560339127459 1.0
C      1  0.6181573528850  0.6158801122282  0.4431609134584 1.0
C      1  0.4597015896726  0.5388150993722  0.5862502245149 1.0
C      1  0.4590493406670  0.5397204718556  0.4146698437646 1.0
C      1  0.3868655350066  0.2013251939204  0.4527975458092 1.0
C      1  0.3864807442768  0.2012602325704  0.5475518742714 1.0
C      1  0.5302746392152  0.6368735417686  0.7089866738102 1.0
C      1  0.5280995676022  0.6377190091575  0.2920079364509 1.0
C      1  0.5063551279257  0.4867750524901  0.3512570909934 1.0
C      1  0.5077885291128  0.4863818099653  0.6492044960191 1.0
C      1  0.3342694003141  0.7760595255944  0.6185944222822 1.0
C      1  0.3340270633227  0.7672243164125  0.3683430443764 1.0
C      1  0.2251705608991  0.3802106263251  0.6229008006632 1.0
C      1  0.2245948391002  0.3761525123007  0.3744886912423 1.0
C      1  0.5576499644227  0.3831580890442  0.7695151743270 1.0
C      1  0.5565681947096  0.3834002466635  0.2304951853204 1.0
C      1  0.2921297171471  0.3545424447133  0.3025762184793 1.0
C      1  0.2918511001045  0.3579578896281  0.6955192974109 1.0
C      1  0.8231508841283  0.5069882859248  0.5971460728866 1.0
C      1  0.8228244332093  0.5071475986210  0.4021436897004 1.0
C      1  0.4907276183146  0.4556454303677  0.5479967372698 1.0
C      1  0.4898478251368  0.4560590134177  0.4521236546955 1.0
C      1  0.1614353373840  0.5989765177608  0.5875258829058 1.0
C      1  0.1632122245745  0.5931422986584  0.3995290998399 1.0
C      1  0.1424900373320  0.5139856424536  0.5408590064779 1.0
C      1  0.1416663382364  0.5118777267718  0.4503422222512 1.0
C      1  0.7373975009153  0.7236940511155  0.4469727195490 1.0
C      1  0.7360286869761  0.7249889718431  0.5500208122326 1.0
C      1  0.4460609203881  0.4108053737237  0.3277129541368 1.0
C      1  0.4471226264394  0.4108328820094  0.6724576615302 1.0
C      1  0.2294886499345  0.3100786202610  0.5484794622902 1.0
C      1  0.2299617754474  0.3087403267683  0.4509246852121 1.0
C      1  0.5733024473258  0.5420095924384  0.6986849183392 1.0
C      1  0.5717264990437  0.5422509870318  0.3018985982146 1.0
C      1  0.4343354044159  0.7672543952514  0.3829614899930 1.0
C      1  0.4354067211262  0.7592471788281  0.6369503715764 1.0
C      1  0.8420541902252  0.4294325531434  0.5501492504406 1.0
C      1  0.8416334711561  0.4295390925794  0.4490697941060 1.0
C      1  0.6720816873206  0.4995085707601  0.8157759583785 1.0
C      1  0.6700939908268  0.5004560768482  0.1842010852459 1.0
C      1  0.6493960572527  0.7117512332519  0.4001957304840 1.0
C      1  0.6469613695837  0.7140891365420  0.5960091123531 1.0
C      1  0.5817292313624  0.7915559342282  0.5785953728872 1.0
C      1  0.5873052496087  0.7892223705239  0.4177416224479 1.0
C      1  0.5736156135945  0.4913893789506  0.2058952030487 1.0
C      1  0.5754839092875  0.4908028469782  0.7946923079411 1.0
C      1  0.5145481306006  0.6171696197835  0.4494611900488 1.0
C      1  0.5143629458437  0.6169514444147  0.5514729113618 1.0
C      1  0.4648794396643  0.6121031388067  0.7805222848427 1.0
C      1  0.4623065272176  0.6122166195750  0.2215767520193 1.0
C      1  0.5421561145475  0.8069935891085  0.4962298640124 1.0
END
