TITL C-65295-7641-25 -2.917 3375.00 -489.47136831 0 0 60 (C2v) n - 1
REM
REM Run started: at 2020.12.15 09:16:06 in /rds/project/t2_vol4/rds-t2-cs072/BORA/CARBON/AIRSS/Generating-Clusters/Str-Search/Higher-Symm/Only-C60
REM VASP from code version vasp.5.4.4.18Apr17-6-g9f103f2a35 (build Oct 11 2019 16:45:47) gamma-only
REM
REM
REM
REM
REM ./C.cell (5f7b7a0d59291d2373303da1f58b8d66)
REM AIRSS Version 0.9.1 bugfix July 2018 build 013d7b7c2542+ Fri, 06 Jul 2018 19:26:36 +0100
REM compiler GCC version 4.8.5 20150623 (Red Hat 4.8.5-39)
REM options -cpp -mtune=generic -march=x86-64 -g -O0
REM seed -457950642 581066899 -436216147 1122987743 2105886720 -1438556008 -1402870170 1656428280 -1461089188 240324164 -1346658475 237681823
REM
REM C.POTCAR (d86ddea03c3ceb6dc662c8ad6801f873)
REM 
CELL 1.54180   15.00000   15.00000   15.00000   90.00000   90.00000   90.00000
LATT -1
SFAC C  
C      1  0.6672126346135  0.3927495762560  0.6149927023126 1.0
C      1  0.3327873508518  0.3927495746487  0.3850072645952 1.0
C      1  0.6672126861074  0.3927495802175  0.3850072921625 1.0
C      1  0.3327873199601  0.3927495791226  0.6149927390406 1.0
C      1  0.6157387246529  0.3486318287562  0.4537512586976 1.0
C      1  0.3842612837962  0.3486318125970  0.5462486789901 1.0
C      1  0.6157387015787  0.3486318520938  0.5462486624957 1.0
C      1  0.3842612976604  0.3486318327833  0.4537513077909 1.0
C      1  0.2401365211537  0.5184369968910  0.3235258880592 1.0
C      1  0.7598633809808  0.5184369180631  0.6764742234980 1.0
C      1  0.2401366121340  0.5184368647625  0.6764742080753 1.0
C      1  0.7598634316817  0.5184369801913  0.3235259137233 1.0
C      1  0.5507454523561  0.5764087933375  0.8139281598842 1.0
C      1  0.4492545549042  0.5764088164248  0.1860717768865 1.0
C      1  0.5507454263487  0.5764088119775  0.1860717671012 1.0
C      1  0.4492545569017  0.5764088469659  0.8139281098393 1.0
C      1  0.4493021082391  0.4021761068752  0.2454909187776 1.0
C      1  0.5506979029086  0.4021760831796  0.7545090722254 1.0
C      1  0.4493020900356  0.4021760897429  0.7545090327025 1.0
C      1  0.5506979247220  0.4021761423351  0.2454908942780 1.0
C      1  0.4524801274140  0.4772499737288  0.8177385250764 1.0
C      1  0.5475198655780  0.4772499484981  0.1822614089784 1.0
C      1  0.4524801406409  0.4772499471109  0.1822614071780 1.0
C      1  0.5475198539988  0.4772499301302  0.8177385262525 1.0
C      1  0.6271464073515  0.6049121721059  0.5971233038941 1.0
C      1  0.3728535905780  0.6049121064347  0.4028767159920 1.0
C      1  0.6271464086500  0.6049121418079  0.4028767023349 1.0
C      1  0.3728535889497  0.6049121964786  0.5971232690740 1.0
C      1  0.5977332318337  0.3682843831163  0.6834380727862 1.0
C      1  0.4022667458260  0.3682844332555  0.3165618958312 1.0
C      1  0.5977332735102  0.3682844315618  0.3165618822009 1.0
C      1  0.4022667116994  0.3682844158703  0.6834380967308 1.0
C      1  0.3160280251535  0.5417766429354  0.4543466549809 1.0
C      1  0.6839719824120  0.5417766462081  0.5456533592376 1.0
C      1  0.3160280036560  0.5417766718573  0.5456533820929 1.0
C      1  0.6839719765008  0.5417766419908  0.4543466712373 1.0
C      1  0.6008154005249  0.6244108295526  0.7595221525472 1.0
C      1  0.3991845929731  0.6244107451127  0.2404777611310 1.0
C      1  0.6008154475329  0.6244107903231  0.2404777158762 1.0
C      1  0.3991846741557  0.6244107986676  0.7595223381686 1.0
C      1  0.5456256194270  0.3267161352342  0.6102895287819 1.0
C      1  0.4543744066473  0.3267161294340  0.3897104380247 1.0
C      1  0.5456256279056  0.3267161481431  0.3897103837571 1.0
C      1  0.4543743647047  0.3267161351744  0.6102895316785 1.0
C      1  0.7203089379343  0.4708689792882  0.3926330914231 1.0
C      1  0.2796911096284  0.4708689983386  0.6073670176659 1.0
C      1  0.7203088820694  0.4708689895055  0.6073670515928 1.0
C      1  0.2796911057395  0.4708689957793  0.3926330625871 1.0
C      1  0.2500573753605  0.5971787581842  0.2944003336931 1.0
C      1  0.7499425955786  0.5971788719549  0.7055997591870 1.0
C      1  0.2500574331682  0.5971788452980  0.7055997938629 1.0
C      1  0.7499425792529  0.5971787777173  0.2944002930958 1.0
C      1  0.5500673743520  0.6274015854524  0.5490655263676 1.0
C      1  0.4499326027891  0.6274015538701  0.4509344994985 1.0
C      1  0.5500673850221  0.6274015730273  0.4509344972318 1.0
C      1  0.4499326107113  0.6274016017428  0.5490654953581 1.0
C      1  0.6563778590423  0.6227973752186  0.6901147019509 1.0
C      1  0.3436221623315  0.6227973305658  0.3098853145006 1.0
C      1  0.6563778331277  0.6227973171796  0.3098852744978 1.0
C      1  0.3436221246814  0.6227973649236  0.6901146925079 1.0
END
