TITL C-65165-4116-11 -3.206 3375.00 -536.23465341 0 0 66 (C1) n - 1
REM
REM Run started: at 2020.12.12 11:32:55 in /rds/project/t2_vol4/rds-t2-cs072/BORA/CARBON/AIRSS/Generating-Clusters/Str-Search/Higher-Symm/C10-100
REM VASP from code version vasp.5.4.4.18Apr17-6-g9f103f2a35 (build Oct 11 2019 16:45:47) gamma-only
REM
REM
REM
REM
REM ./C.cell (f39ce9773e2efe3fa5bbdf770a4156b8)
REM AIRSS Version 0.9.1 bugfix July 2018 build 013d7b7c2542+ Fri, 06 Jul 2018 19:26:36 +0100
REM compiler GCC version 4.8.5 20150623 (Red Hat 4.8.5-39)
REM options -cpp -mtune=generic -march=x86-64 -g -O0
REM seed 936563560 356151950 319601873 -933815391 1466285521 -1286819104 1545613842 -1082974188 -1037014387 365516679 485402832 -1458411228
REM
REM C.POTCAR (d86ddea03c3ceb6dc662c8ad6801f873)
REM 
CELL 1.54180   15.00000   15.00000   15.00000   90.00000   90.00000   90.00000
LATT -1
SFAC C  
C      1  0.4465954560153  0.6410090818846  0.9315277308234 1.0
C      1  0.3915523093809  0.5892221216350  0.8926435132250 1.0
C      1  0.3691083683680  0.5136902343405  0.8571336979297 1.0
C      1  0.3863401691961  0.4355612667039  0.8258200267594 1.0
C      1  0.4352342628034  0.3775046955731  0.7864735819802 1.0
C      1  0.5136312480806  0.3583431474012  0.7443986015555 1.0
C      1  0.5838000820328  0.3982348276118  0.7928602705634 1.0
C      1  0.6161074174865  0.4635511525129  0.8335131578033 1.0
C      1  0.6212608410338  0.5415791834379  0.8751752059411 1.0
C      1  0.5963426745775  0.6072061020632  0.9202508140334 1.0
C      1  0.5275114242301  0.6395101451728  0.9753330787578 1.0
C      1  0.5341731541140  0.6884658420558  0.5897410483875 1.0
C      1  0.4427844931794  0.6747828537900  0.5934589332261 1.0
C      1  0.3627546716161  0.6094418305171  0.6006813438325 1.0
C      1  0.3322023305309  0.5221023940529  0.6063160333603 1.0
C      1  0.3556955177553  0.4204679733089  0.6059329085450 1.0
C      1  0.4250613988140  0.3586807357973  0.6028684076267 1.0
C      1  0.5206231758598  0.3489110373876  0.6443382951314 1.0
C      1  0.6191200101389  0.3946699327993  0.6189560603823 1.0
C      1  0.6724046695383  0.4686741453258  0.6074214817442 1.0
C      1  0.6761916802324  0.5688208068225  0.5960482556002 1.0
C      1  0.6269666114409  0.6459158035350  0.5900575716418 1.0
C      1  0.7237711732141  0.5845372538997  0.4355690508236 1.0
C      1  0.6755744808862  0.6632416132107  0.4298636231784 1.0
C      1  0.5182616186386  0.7463474186265  0.4307164513085 1.0
C      1  0.4264757336356  0.7373140103683  0.4365318478854 1.0
C      1  0.2861491770921  0.6278730362452  0.4501332371382 1.0
C      1  0.2578323120474  0.5398752729427  0.4558236318347 1.0
C      1  0.3018209257089  0.3685060886938  0.4569509645812 1.0
C      1  0.3630458277964  0.3003873828134  0.4530732111123 1.0
C      1  0.5038511919633  0.2728637791943  0.5024263857100 1.0
C      1  0.6702323979560  0.3321489485326  0.4735570159386 1.0
C      1  0.7214541685400  0.4078264195532  0.4580479725630 1.0
C      1  0.3781244913111  0.3801504077261  0.2187519447355 1.0
C      1  0.4298440871034  0.3262655536573  0.2754344025763 1.0
C      1  0.5099131303730  0.3089376233970  0.2348067242232 1.0
C      1  0.5757794509396  0.3439480512511  0.1930733973381 1.0
C      1  0.6200159450768  0.4110513920210  0.1622571946988 1.0
C      1  0.6259871673481  0.4928542319273  0.1354602239198 1.0
C      1  0.6002378224974  0.5680790450484  0.1053105192668 1.0
C      1  0.5292870641194  0.6140895287591  0.0691181310747 1.0
C      1  0.4486476630104  0.5894785464920  0.1107040562099 1.0
C      1  0.4011550719454  0.5286083281841  0.1422793097001 1.0
C      1  0.3732769053844  0.4517253735354  0.1759730636351 1.0
C      1  0.6071898947698  0.6240792689309  0.3679461985671 1.0
C      1  0.5264231172129  0.6691573201994  0.3660857998508 1.0
C      1  0.4247434709724  0.6618230184648  0.3705406065356 1.0
C      1  0.3521538303495  0.6063089046836  0.3768053078174 1.0
C      1  0.3219810325344  0.5101209790260  0.3844894469462 1.0
C      1  0.3466645033534  0.4214797940752  0.3884523598050 1.0
C      1  0.4223215021331  0.3399544219704  0.3754224745073 1.0
C      1  0.5165145021306  0.3240109558611  0.4179823136535 1.0
C      1  0.6025924068250  0.3567197290324  0.4058795437438 1.0
C      1  0.6586387531993  0.4425474480859  0.3873828574801 1.0
C      1  0.6593841360339  0.5345510194160  0.3757999954509 1.0
C      1  0.4163980948097  0.2915434999031  0.5299322144461 1.0
C      1  0.5597687473435  0.2772789416296  0.5777399214205 1.0
C      1  0.6407577317209  0.3176877898948  0.5630452050845 1.0
C      1  0.7403924963578  0.4612366788170  0.5338041959863 1.0
C      1  0.7434853533133  0.5530888510965  0.5223244803472 1.0
C      1  0.6489222178153  0.7041786403430  0.5113811789905 1.0
C      1  0.5661337827644  0.7452051491202  0.5125857406552 1.0
C      1  0.3901675004239  0.7233982884841  0.5232793216553 1.0
C      1  0.3175301536106  0.6665366493207  0.5303835092824 1.0
C      1  0.2596958073024  0.4982632477685  0.5407453797608 1.0
C      1  0.2819412920115  0.4083747840679  0.5411795697110 1.0
END
