TITL C-6535-55-9 -5.646 3375.00 -964.36077987 0 0 116 (C1) n - 1
REM
REM Run started: at 2020.12.17 22:48:36 in /gpfs/home/chem/mssmkc/CARBON/AIRSS/Generating-Clusters/Str-Search/Higher-Symm
REM VASP from code version vasp.5.4.4.18Apr17-6-g9f103f2a35 (build Oct 11 2019 16:45:47) gamma-only
REM
REM
REM
REM
REM ./C.cell (533062f00bc710175b3da973d35f2034)
REM AIRSS Version 0.9.1 bugfix July 2018 build 013d7b7c2542+ Fri, 06 Jul 2018 19:26:36 +0100
REM compiler GCC version 6.3.0
REM options -cpp -iprefix /gpfs/warwick/csc/orac/software/Core/GCCcore/6.3.0/bin/../lib/gcc/x86_64-pc-linux-gnu/6.3.0/ -mtune=generic -march=x86-64 -g -O0
REM seed 147978152 -500576293 1294652843 -1628234765 890828213 -1457541030 1780622502 -820560398 1820041516 2124632480 1074910197 489196533
REM
REM C.POTCAR (d86ddea03c3ceb6dc662c8ad6801f873)
REM 
CELL 1.54180   15.00000   15.00000   15.00000   90.00000   90.00000   90.00000
LATT -1
SFAC C  
C      1  0.2549050129775  0.3814951539562  0.6821930487726 1.0
C      1  0.6262538529182  0.2748347292067  0.3148190097700 1.0
C      1  0.7237396341470  0.6144455253770  0.6787842015315 1.0
C      1  0.3835207277342  0.7306587490402  0.3160551769048 1.0
C      1  0.2436540772110  0.4045099433438  0.3861838396045 1.0
C      1  0.5875643405778  0.2228554248549  0.5895288811950 1.0
C      1  0.7657720387569  0.6036856975128  0.3780483405161 1.0
C      1  0.4043469652308  0.7588904929905  0.6150008789214 1.0
C      1  0.5416232815588  0.4341405869688  0.1341964301755 1.0
C      1  0.5604047424271  0.5172093223840  0.8577976924554 1.0
C      1  0.4686829336219  0.5539738455353  0.1387363893178 1.0
C      1  0.4386638287756  0.4491812962874  0.8570781664991 1.0
C      1  0.4069010983814  0.2669836727223  0.4126909472830 1.0
C      1  0.7321623701363  0.3794721355264  0.5970640769814 1.0
C      1  0.6178288357165  0.7407069834659  0.3857941273632 1.0
C      1  0.2607332251695  0.6182938290209  0.6113277676480 1.0
C      1  0.3318830335581  0.5891504464413  0.7682566199650 1.0
C      1  0.4176603292681  0.3275466070579  0.2438160385859 1.0
C      1  0.6682336560737  0.3926983646064  0.7540314412034 1.0
C      1  0.5964346564415  0.6684449931290  0.2284882860876 1.0
C      1  0.4038161896631  0.4721408887175  0.5271872039706 1.0
C      1  0.4817768470562  0.4174826169077  0.5013450927858 1.0
C      1  0.5990351737518  0.5280048481093  0.5432750977649 1.0
C      1  0.4686987827634  0.6162385318037  0.4507316476169 1.0
C      1  0.6808238251289  0.3418485980420  0.6717539809054 1.0
C      1  0.6483400342354  0.6922344965445  0.3052020951845 1.0
C      1  0.3125665824875  0.6415912243983  0.6888913260547 1.0
C      1  0.3783788666738  0.3134596732030  0.3311170411970 1.0
C      1  0.7089118070983  0.7007035860423  0.5456519090533 1.0
C      1  0.3007809000934  0.7137016819794  0.4519660422844 1.0
C      1  0.2783476254171  0.3107848773233  0.5421510091553 1.0
C      1  0.7221517060878  0.2951722779631  0.4346260881965 1.0
C      1  0.4966664243746  0.2948959195242  0.2071155420528 1.0
C      1  0.6957291215972  0.4778559653133  0.7769048074519 1.0
C      1  0.5101683634842  0.6940561436289  0.2070304661000 1.0
C      1  0.2988053398431  0.5053742246967  0.7935527406753 1.0
C      1  0.7651756267090  0.5651008828117  0.6061607106367 1.0
C      1  0.4340377303601  0.7749859869276  0.3867222942237 1.0
C      1  0.2167639015879  0.4382206554744  0.6095996805159 1.0
C      1  0.5873964674540  0.2293564248542  0.3940300189091 1.0
C      1  0.7545771556476  0.4734125459843  0.5804115821533 1.0
C      1  0.5281393672688  0.7698990830446  0.4083671611004 1.0
C      1  0.2284666921043  0.5295802758822  0.5869963587241 1.0
C      1  0.5008633087525  0.2307987518848  0.4385624645547 1.0
C      1  0.7031632078422  0.5554829093289  0.2377280502980 1.0
C      1  0.4684159923268  0.6614539406573  0.7308081051517 1.0
C      1  0.3505837803047  0.4660881149613  0.2800869282216 1.0
C      1  0.5609897465887  0.2827075475789  0.7539270491862 1.0
C      1  0.5160725264298  0.6540974819595  0.5146549523894 1.0
C      1  0.3474682264216  0.5236607828758  0.4766375537171 1.0
C      1  0.4564890630981  0.3614539988077  0.5735474786488 1.0
C      1  0.6320643272443  0.4769231868606  0.4786092558638 1.0
C      1  0.4229231743389  0.7044717063860  0.2363327294222 1.0
C      1  0.2823501718597  0.4184579717428  0.7626602696399 1.0
C      1  0.5850283708351  0.2861998567967  0.2336978062962 1.0
C      1  0.7034237987593  0.5686980944381  0.7563579509568 1.0
C      1  0.5885657890695  0.3619591750194  0.8013936532168 1.0
C      1  0.6255011730882  0.5818875742586  0.1892561246855 1.0
C      1  0.4211680031655  0.6084123974951  0.8044311337503 1.0
C      1  0.3930009635161  0.4141063718834  0.2049536738767 1.0
C      1  0.5489608132864  0.5897273413450  0.5834324731172 1.0
C      1  0.4113476397435  0.5620613070637  0.4106183335577 1.0
C      1  0.4212527984796  0.4418020155618  0.6205293612646 1.0
C      1  0.5498558155638  0.4373143226134  0.4329532847261 1.0
C      1  0.2665261988865  0.6492101531687  0.5146727115896 1.0
C      1  0.3564054054973  0.2756839376820  0.4955917267434 1.0
C      1  0.7383041719623  0.3590325627246  0.5008407518766 1.0
C      1  0.6460203322616  0.7360228193888  0.4824148113118 1.0
C      1  0.7504280159426  0.4758628282630  0.2559485847128 1.0
C      1  0.5391655583847  0.7339865394907  0.7300877842890 1.0
C      1  0.2788137549655  0.5371438251310  0.2744222024362 1.0
C      1  0.4836729343281  0.2365090243602  0.7645614017779 1.0
C      1  0.2619167639742  0.6206658919452  0.3137729624405 1.0
C      1  0.3668944636975  0.2507366937331  0.6561575987719 1.0
C      1  0.7518053665503  0.3903316917575  0.3005661359234 1.0
C      1  0.6200220195150  0.7440930385534  0.6836565742265 1.0
C      1  0.6598507935954  0.1913812719179  0.5413632269418 1.0
C      1  0.8132210312271  0.6026838023638  0.4529548950116 1.0
C      1  0.4004608049809  0.8160836296038  0.5457565568539 1.0
C      1  0.1773606437386  0.4062373537062  0.4483132499708 1.0
C      1  0.2120316385096  0.3808269588228  0.5314562296665 1.0
C      1  0.6621414948742  0.2208323095494  0.4545593771578 1.0
C      1  0.7746488527510  0.6285117936382  0.5340099985039 1.0
C      1  0.3737709983461  0.7804324497265  0.4627021990860 1.0
C      1  0.3159113832161  0.3887720011785  0.3380413904344 1.0
C      1  0.6116543634427  0.2747604969691  0.6713926867858 1.0
C      1  0.7166124377995  0.6254602922768  0.3050711323917 1.0
C      1  0.3891409610998  0.6979912700241  0.6781644571051 1.0
C      1  0.2048545514383  0.5455448114204  0.3320662090863 1.0
C      1  0.4080567458924  0.2237120974490  0.7318654288996 1.0
C      1  0.8043631213261  0.4608832140060  0.3328514658486 1.0
C      1  0.5449561079211  0.8002131710231  0.6626817009252 1.0
C      1  0.4462967676230  0.4586731345805  0.1440458301565 1.0
C      1  0.5350974162795  0.4227514872007  0.8504835526554 1.0
C      1  0.5638720424641  0.5301886213908  0.1401750897577 1.0
C      1  0.4664137182774  0.5443005985442  0.8546193179958 1.0
C      1  0.5095313857788  0.4604444433076  0.3551081162593 1.0
C      1  0.5000467420849  0.5810368600696  0.6693410407540 1.0
C      1  0.4320412324511  0.5018925605492  0.3358657195455 1.0
C      1  0.4568217781634  0.5033068554307  0.6727724246922 1.0
C      1  0.4954211339229  0.8016920349603  0.5793078350229 1.0
C      1  0.1990292014791  0.4982321795746  0.4161061577445 1.0
C      1  0.5066161044071  0.2250791803057  0.5361909902535 1.0
C      1  0.7933016328191  0.5097625917793  0.4158065103409 1.0
C      1  0.7064482509154  0.3192833365973  0.3413258488961 1.0
C      1  0.6877038242266  0.6956265745189  0.6421577845997 1.0
C      1  0.3049007972433  0.6923610869872  0.3555559801663 1.0
C      1  0.2909416481172  0.3039334126339  0.6380866535444 1.0
C      1  0.3523923369315  0.4342934420683  0.8263536573588 1.0
C      1  0.5622520458984  0.3497476168955  0.1652945834874 1.0
C      1  0.6417766016362  0.5409805177320  0.8229853632617 1.0
C      1  0.4444223343159  0.6369986133641  0.1711181797213 1.0
C      1  0.4228967207391  0.2648838168814  0.5717844862680 1.0
C      1  0.7340366520724  0.4581920462112  0.4813312233744 1.0
C      1  0.5468854342819  0.7498487503557  0.5066310233952 1.0
C      1  0.2518314194635  0.5498402500652  0.4897492899450 1.0
END
