TITL C-65295-7641-7 -2.988 3375.00 -500.65970614 0 0 60 (C1) n - 1
REM
REM Run started: at 2020.12.15 04:27:33 in /rds/project/t2_vol4/rds-t2-cs072/BORA/CARBON/AIRSS/Generating-Clusters/Str-Search/Higher-Symm/Only-C60
REM VASP from code version vasp.5.4.4.18Apr17-6-g9f103f2a35 (build Oct 11 2019 16:45:47) gamma-only
REM
REM
REM
REM
REM ./C.cell (5f7b7a0d59291d2373303da1f58b8d66)
REM AIRSS Version 0.9.1 bugfix July 2018 build 013d7b7c2542+ Fri, 06 Jul 2018 19:26:36 +0100
REM compiler GCC version 4.8.5 20150623 (Red Hat 4.8.5-39)
REM options -cpp -mtune=generic -march=x86-64 -g -O0
REM seed 858178298 704231432 -1966386168 -1535006540 -1095594910 -131009208 -1471354306 -19278008 -2059962972 144434828 -843178300 -2125963556
REM
REM C.POTCAR (d86ddea03c3ceb6dc662c8ad6801f873)
REM 
CELL 1.54180   15.00000   15.00000   15.00000   90.00000   90.00000   90.00000
LATT -1
SFAC C  
C      1  0.7416538975317  0.4683643802214  0.5221696032500 1.0
C      1  0.6585944638166  0.6736945671490  0.5215086501896 1.0
C      1  0.5955282931354  0.7435796759876  0.5032324501903 1.0
C      1  0.5024989404318  0.7327154922568  0.5214335192746 1.0
C      1  0.3036458683795  0.6696395878976  0.5289586930599 1.0
C      1  0.2553261138580  0.5839004048507  0.5315091849362 1.0
C      1  0.3091536333115  0.3822131906713  0.5322676911039 1.0
C      1  0.3488853718924  0.2965792518720  0.5192561001407 1.0
C      1  0.4437481156206  0.2810911537894  0.5362787534574 1.0
C      1  0.6611958406299  0.3208867501335  0.5272411306702 1.0
C      1  0.7386823757080  0.3734505222226  0.5062366031615 1.0
C      1  0.5378196659724  0.3312842583068  0.3305284053713 1.0
C      1  0.6263423012894  0.3725306035404  0.3162906101746 1.0
C      1  0.6737704704155  0.4595982903278  0.3134632015885 1.0
C      1  0.6620336356197  0.5567608423935  0.3225192870726 1.0
C      1  0.6076701268658  0.6393100081161  0.3130664445734 1.0
C      1  0.5163969837073  0.6751822752558  0.3139805611822 1.0
C      1  0.4186314664942  0.6521820188650  0.3256001511065 1.0
C      1  0.3478451812129  0.5842966300457  0.3265755891529 1.0
C      1  0.3278711084983  0.4867006276858  0.3314716785623 1.0
C      1  0.3589328785324  0.3912968953010  0.3238149383157 1.0
C      1  0.4395444995510  0.3333348257147  0.3245177751297 1.0
C      1  0.5254204470868  0.7585141910900  0.3681984420803 1.0
C      1  0.3881576120074  0.7176466936052  0.3949486529946 1.0
C      1  0.2763854360365  0.6256873289946  0.3851368353568 1.0
C      1  0.2590184860819  0.4814554902583  0.4025404317344 1.0
C      1  0.2931597394092  0.3412259350259  0.3806780572498 1.0
C      1  0.4120570472746  0.2572469348517  0.3853917644931 1.0
C      1  0.5545129896338  0.2692264820883  0.4089513082752 1.0
C      1  0.6881728289852  0.3143759045252  0.3718638569688 1.0
C      1  0.7573912218965  0.4413701977399  0.3683501430486 1.0
C      1  0.7245097394095  0.5797602346649  0.3981749212323 1.0
C      1  0.6598099640753  0.7071444148205  0.3686567238508 1.0
C      1  0.6059998834648  0.4493904206711  0.6095280702477 1.0
C      1  0.6719757505076  0.5077989938519  0.5756059453238 1.0
C      1  0.6305589208919  0.5977466811634  0.5726242251713 1.0
C      1  0.5381397503292  0.5919424825374  0.6006979228857 1.0
C      1  0.4713022142095  0.6555481496684  0.5745635282675 1.0
C      1  0.3778745389053  0.6311032854133  0.5769689637170 1.0
C      1  0.3292924135370  0.5419965191886  0.5805038552230 1.0
C      1  0.3563384171470  0.4521696705083  0.5821646234926 1.0
C      1  0.4466583602476  0.4275071771034  0.6191657756777 1.0
C      1  0.4946014048137  0.3437550597539  0.5845064027651 1.0
C      1  0.5909810313430  0.3600414427658  0.5813979052823 1.0
C      1  0.2359473466836  0.5615940165392  0.4411333762642 1.0
C      1  0.2629137087247  0.4009237321940  0.4474107175042 1.0
C      1  0.3300177290039  0.2685069752338  0.4253026567636 1.0
C      1  0.4776587624421  0.2441601470677  0.4517937025991 1.0
C      1  0.6389280769825  0.2768156982105  0.4430844244294 1.0
C      1  0.7609631819579  0.3582424284872  0.4083687916890 1.0
C      1  0.7652320921837  0.5070118510318  0.4357353627472 1.0
C      1  0.7053541503714  0.6606740706668  0.4368759283275 1.0
C      1  0.6082183929522  0.7733020078449  0.4073209011069 1.0
C      1  0.4598005848272  0.7568432662768  0.4367417461046 1.0
C      1  0.3084798313955  0.6969526587433  0.4365621570019 1.0
C      1  0.4600863332171  0.4672087727256  0.7956483328082 1.0
C      1  0.4718337418423  0.4631154021794  0.7109075066164 1.0
C      1  0.4510690703451  0.4731241862202  0.8821433892233 1.0
C      1  0.5233221278796  0.4984147803736  0.6328876607567 1.0
C      1  0.4477242394236  0.4829965633109  0.9676639690557 1.0
END
