TITL C-6535-55-25 -8.6 3375.00 -1500.85948385 0 0 184 (C1) n - 1
REM
REM Run started: at 2020.12.18 10:49:12 in /gpfs/home/chem/mssmkc/CARBON/AIRSS/Generating-Clusters/Str-Search/Higher-Symm
REM VASP from code version vasp.5.4.4.18Apr17-6-g9f103f2a35 (build Oct 11 2019 16:45:47) gamma-only
REM
REM
REM
REM
REM ./C.cell (533062f00bc710175b3da973d35f2034)
REM AIRSS Version 0.9.1 bugfix July 2018 build 013d7b7c2542+ Fri, 06 Jul 2018 19:26:36 +0100
REM compiler GCC version 6.3.0
REM options -cpp -iprefix /gpfs/warwick/csc/orac/software/Core/GCCcore/6.3.0/bin/../lib/gcc/x86_64-pc-linux-gnu/6.3.0/ -mtune=generic -march=x86-64 -g -O0
REM seed 680946514 -1199533459 815471354 2065189813 565491726 -1792625610 -442569652 350206889 1127026146 -667395382 1385264656 -2021319730
REM
REM C.POTCAR (d86ddea03c3ceb6dc662c8ad6801f873)
REM 
CELL 1.54180   15.00000   15.00000   15.00000   90.00000   90.00000   90.00000
LATT -1
SFAC C  
C      1  0.7173127443802  0.4962210499369  0.6131608342548 1.0
C      1  0.7446983519189  0.5779184296152  0.5615891418049 1.0
C      1  0.7384789797128  0.5905186691559  0.4702132972138 1.0
C      1  0.7337155728886  0.5213160726295  0.4033718928953 1.0
C      1  0.7511736021782  0.4321989623196  0.4148910259508 1.0
C      1  0.7696068623229  0.3872693440251  0.4922080783734 1.0
C      1  0.7646182329852  0.4152272952549  0.5775788603202 1.0
C      1  0.1650762751336  0.5780034352389  0.5616951610139 1.0
C      1  0.1519554587450  0.6086669578750  0.4685056084224 1.0
C      1  0.1339246769924  0.5536610574442  0.3898991090873 1.0
C      1  0.1366695257959  0.4585563393176  0.3832625316906 1.0
C      1  0.1402684487178  0.3923650661306  0.4536687593008 1.0
C      1  0.1460140405093  0.4053237064629  0.5488530032413 1.0
C      1  0.1548740752831  0.4874612203694  0.5963169671893 1.0
C      1  0.3290606188959  0.7090357724070  0.3647605956630 1.0
C      1  0.3590615237444  0.5103876632534  0.2395900310397 1.0
C      1  0.3612489016094  0.3026125225025  0.3283085783081 1.0
C      1  0.3566928427287  0.2433509428714  0.5498501044308 1.0
C      1  0.3611884183110  0.3777586883034  0.7322550823404 1.0
C      1  0.3709749364213  0.6049609938248  0.7431070707856 1.0
C      1  0.3346950695505  0.7284645708661  0.5772888826692 1.0
C      1  0.5979857519803  0.4956509166232  0.7192517792883 1.0
C      1  0.5822011109527  0.6522154082810  0.6343573557108 1.0
C      1  0.5586773393946  0.7129577433184  0.4939438231747 1.0
C      1  0.5771798483252  0.6043997275881  0.3302362902815 1.0
C      1  0.5912923185233  0.4249835718259  0.3219896497693 1.0
C      1  0.5806679677783  0.3050214738143  0.4566401271763 1.0
C      1  0.5897071598975  0.3248175416958  0.6292037816691 1.0
C      1  0.1588820910335  0.3273453951188  0.6022317046313 1.0
C      1  0.1673380572617  0.4817596850190  0.6894368851410 1.0
C      1  0.2000598161512  0.6411575649770  0.6178686870846 1.0
C      1  0.1840584398123  0.6925460444383  0.4526611351840 1.0
C      1  0.1469767591460  0.6002805016567  0.3086189314921 1.0
C      1  0.1556017603815  0.4240933140970  0.2965125070318 1.0
C      1  0.1538195473030  0.3033441874347  0.4261579732216 1.0
C      1  0.6863717473306  0.6685711758515  0.2122458444574 1.0
C      1  0.6857436969637  0.3251722433731  0.2085495016502 1.0
C      1  0.6849342593557  0.1748038430572  0.4143343858373 1.0
C      1  0.7045287014912  0.2792238397396  0.7327417013642 1.0
C      1  0.6594348761068  0.4663475881292  0.8633082010175 1.0
C      1  0.6733958718695  0.7759123189510  0.7205333088173 1.0
C      1  0.6759417252576  0.8339669911206  0.4052340049153 1.0
C      1  0.4134110811993  0.6218734820905  0.6687383003634 1.0
C      1  0.3819360348749  0.6702590693978  0.5094012465575 1.0
C      1  0.3796409729639  0.6201682603547  0.3710161333725 1.0
C      1  0.4014383079153  0.4623865648489  0.2988861377348 1.0
C      1  0.3949703151701  0.3242876460169  0.4060378566531 1.0
C      1  0.4004624027097  0.3105335506952  0.5851530587817 1.0
C      1  0.4058963639876  0.4452999056568  0.6991491632853 1.0
C      1  0.5645409267687  0.4565382823258  0.1420816330089 1.0
C      1  0.5414176969890  0.1741085347734  0.3092542900915 1.0
C      1  0.5448870858879  0.1357466162964  0.6110579944683 1.0
C      1  0.5332232758694  0.3517608753966  0.8712818590543 1.0
C      1  0.5495681992356  0.6914865925986  0.8330878007191 1.0
C      1  0.5517765690188  0.8888436627237  0.5359053085387 1.0
C      1  0.5368568128061  0.7582705581938  0.2423248377153 1.0
C      1  0.5234657424489  0.3182121777296  0.6973620079286 1.0
C      1  0.5271924941555  0.5358283085441  0.7615169444151 1.0
C      1  0.5248706548642  0.7287868479227  0.5929392787493 1.0
C      1  0.5026537780754  0.7474427864751  0.4117549431510 1.0
C      1  0.5164553018211  0.5790148985430  0.2620018615230 1.0
C      1  0.5283241375940  0.3526033357163  0.2993729269389 1.0
C      1  0.5139265810550  0.2445509826719  0.4796808808207 1.0
C      1  0.4381717433652  0.5359799133346  0.7185861426360 1.0
C      1  0.4277764421076  0.6878975826787  0.5983429893658 1.0
C      1  0.4145431824451  0.7065060312824  0.4192069262930 1.0
C      1  0.4221668266077  0.5642561082099  0.2950151811432 1.0
C      1  0.4331577273802  0.3737928880323  0.3262961385353 1.0
C      1  0.4234949697274  0.2827707772159  0.4894181236582 1.0
C      1  0.4330149221613  0.3516929773187  0.6681811138102 1.0
C      1  0.6243827375643  0.7141245040553  0.7810425460000 1.0
C      1  0.6257829277183  0.8598258923647  0.4879231333868 1.0
C      1  0.6357528229095  0.7447498436710  0.2559766186534 1.0
C      1  0.6417802324530  0.4131573475848  0.1760392188140 1.0
C      1  0.6404437894113  0.1804351600280  0.3220652001509 1.0
C      1  0.6386512126251  0.1682613944337  0.5948122765335 1.0
C      1  0.6310563269949  0.3739959871084  0.8693953318539 1.0
C      1  0.5525460593057  0.3023917369620  0.7868703796719 1.0
C      1  0.5528495225275  0.5892309960226  0.8433708190300 1.0
C      1  0.5545763960915  0.8257585448489  0.6178416423814 1.0
C      1  0.5368812666885  0.7932721686209  0.3368708768665 1.0
C      1  0.5668627058478  0.5534359723738  0.1763809580073 1.0
C      1  0.5516080704677  0.2657393855584  0.2687232556430 1.0
C      1  0.5493587623150  0.1614519875774  0.5169933200482 1.0
C      1  0.2679761695003  0.5833570235000  0.1322424579899 1.0
C      1  0.2726690919052  0.2674283204477  0.2011992780711 1.0
C      1  0.2642012795798  0.1266760997540  0.4918490685254 1.0
C      1  0.2627149097898  0.2645663083710  0.7810493796535 1.0
C      1  0.2649687877803  0.5792511754279  0.8577973997652 1.0
C      1  0.2974748537777  0.8499252170933  0.6658831377926 1.0
C      1  0.2922536589266  0.8531046422106  0.3248750015863 1.0
C      1  0.3085222861005  0.6391889802892  0.8089917232534 1.0
C      1  0.3141696551101  0.8279033502824  0.5784017165459 1.0
C      1  0.3088445556881  0.7715998854656  0.2871607758038 1.0
C      1  0.3077314509112  0.5078465558171  0.1565580032500 1.0
C      1  0.3082780411809  0.2383952886595  0.2776823247682 1.0
C      1  0.3019543245155  0.1641245192295  0.5631347220162 1.0
C      1  0.2983561962215  0.3439590526223  0.7981796952194 1.0
C      1  0.5662192421019  0.5592281842088  0.4159235819486 1.0
C      1  0.5711998977340  0.4645402551833  0.4092673044170 1.0
C      1  0.5700253770565  0.4003195474156  0.4807589956525 1.0
C      1  0.5823776553589  0.4059338737762  0.5722214592386 1.0
C      1  0.6105025155121  0.4911058015838  0.6186061577792 1.0
C      1  0.5773216795920  0.5783234388456  0.5804443621817 1.0
C      1  0.5632492341730  0.6098058034401  0.4926091306555 1.0
C      1  0.8886054962605  0.4395024037012  0.6612024945993 1.0
C      1  0.8670149249162  0.5907134641460  0.6451422531642 1.0
C      1  0.8439580157955  0.6851733954577  0.5204290391205 1.0
C      1  0.8271796581965  0.6521022019924  0.3606668160942 1.0
C      1  0.8362286001966  0.4832778780911  0.3119754391221 1.0
C      1  0.8738703966228  0.3504972195695  0.3895496983650 1.0
C      1  0.8900038831461  0.3268600458764  0.5468892152977 1.0
C      1  0.2447978684982  0.1570066531023  0.4074165778555 1.0
C      1  0.2465980124924  0.2163324270242  0.7055858770878 1.0
C      1  0.2433637940717  0.4911562235631  0.8455545258746 1.0
C      1  0.2791273994040  0.7707761030671  0.7148164432167 1.0
C      1  0.2763355215379  0.8409204731666  0.4171693569480 1.0
C      1  0.2460700913628  0.6585541405209  0.1796344900082 1.0
C      1  0.2577753253479  0.3539998713241  0.1731217003211 1.0
C      1  0.3059608600045  0.1501633308874  0.6631855692989 1.0
C      1  0.2958922081024  0.4130257939960  0.8718049217060 1.0
C      1  0.3140167276554  0.7393002610787  0.7974048961378 1.0
C      1  0.3183708398892  0.8780699698513  0.4936142189499 1.0
C      1  0.3082011195081  0.7320977164589  0.1958298986609 1.0
C      1  0.3169755614635  0.4128979579601  0.1236827496548 1.0
C      1  0.3045446470656  0.1517851694567  0.3302569594855 1.0
C      1  0.8291011886298  0.3065964197146  0.4685720484598 1.0
C      1  0.8344648044265  0.3581132356551  0.6283932618323 1.0
C      1  0.8459700925036  0.5148416836872  0.7011817141872 1.0
C      1  0.7963859533014  0.6550292703187  0.6079130046318 1.0
C      1  0.7809489601575  0.6840126724868  0.4421291574045 1.0
C      1  0.7454086464371  0.5304820684279  0.3021537168277 1.0
C      1  0.8045138785246  0.3912065054790  0.3341244918908 1.0
C      1  0.8981109016512  0.5979544100407  0.3986049514710 1.0
C      1  0.9085433640094  0.5050197854423  0.3679393398954 1.0
C      1  0.9287255889088  0.4204719921922  0.4200194187658 1.0
C      1  0.9405224256271  0.4029907739212  0.5169899377357 1.0
C      1  0.9403616369908  0.4701273922891  0.5844268227426 1.0
C      1  0.9255648970717  0.5642059321722  0.5730180513426 1.0
C      1  0.9095291148514  0.6218458788369  0.4957290305368 1.0
C      1  0.4702010384311  0.1209641837143  0.3188276870570 1.0
C      1  0.4738225516623  0.1228503534432  0.6641447891207 1.0
C      1  0.4571780332983  0.3830406161751  0.9064152764821 1.0
C      1  0.4737829283591  0.7422821652335  0.8509769582657 1.0
C      1  0.4762297290495  0.9362772000245  0.5121285026920 1.0
C      1  0.4730026992228  0.7523495161861  0.1811194507538 1.0
C      1  0.4872970737753  0.4199951101009  0.1074947908768 1.0
C      1  0.6694241470180  0.2598499155692  0.6392666931468 1.0
C      1  0.6824166629738  0.4848301089021  0.7679349419668 1.0
C      1  0.6497921991372  0.6620193939887  0.7037174971910 1.0
C      1  0.6455681571888  0.7655332217895  0.4991191552550 1.0
C      1  0.6534420099218  0.6567148273982  0.3111773240443 1.0
C      1  0.6781591962488  0.4531115554377  0.2638690337570 1.0
C      1  0.6669316369127  0.2713754793348  0.4441190175900 1.0
C      1  0.3864551649946  0.1141173999602  0.3268625190504 1.0
C      1  0.3912237419401  0.1250275958571  0.6836639764367 1.0
C      1  0.3767198047295  0.4078894175452  0.9123091286060 1.0
C      1  0.3943961657072  0.7651404815552  0.8382684042664 1.0
C      1  0.3946813512005  0.9314888524020  0.4957463704539 1.0
C      1  0.3909054466032  0.7441860837116  0.1623930368442 1.0
C      1  0.4062105284820  0.3992425273581  0.1045020066048 1.0
C      1  0.6302321692899  0.8211335718159  0.3233042321701 1.0
C      1  0.6383154280383  0.6058556244361  0.1575149621630 1.0
C      1  0.6443594372100  0.2484420710342  0.2501649995717 1.0
C      1  0.6410807744250  0.1391251715882  0.4976700840905 1.0
C      1  0.6486308944989  0.3052232029109  0.8031334848659 1.0
C      1  0.6077569999431  0.5370479230860  0.8906130570530 1.0
C      1  0.6237000863546  0.8381493237312  0.6742969409676 1.0
C      1  0.2473132217546  0.7448858412447  0.4238578110937 1.0
C      1  0.1787796360791  0.6398967227886  0.2440503876644 1.0
C      1  0.1913683401841  0.3948198683504  0.2286821690119 1.0
C      1  0.1824437596094  0.2283303304141  0.4090226815123 1.0
C      1  0.1871638731835  0.2651922859201  0.6479696227466 1.0
C      1  0.1880170272278  0.4806768373949  0.7688745933824 1.0
C      1  0.2583720921044  0.7012083151499  0.6431028982920 1.0
C      1  0.7520619160147  0.2467261219670  0.4456332253533 1.0
C      1  0.7646052572308  0.2955381508860  0.6674026701115 1.0
C      1  0.7508841175988  0.5015423834612  0.7111665449829 1.0
C      1  0.7309907063446  0.7027053619114  0.6738750856361 1.0
C      1  0.7211005205769  0.7588916284212  0.4453196923186 1.0
C      1  0.7476391276665  0.6293016749778  0.2919798682464 1.0
C      1  0.7352137819567  0.3723892147284  0.2709780259620 1.0
C      1  0.3456587436178  0.4996867685162  0.4929082653810 1.0
C      1  0.3579905678227  0.5811863808306  0.4631070208903 1.0
END
