TITL C-65924-1422-9 -2.136 3375.00 -360.79224260 0 0 44 (C1) n - 1
REM
REM Run started: at 2020.12.12 11:48:54 in /rds/project/t2_vol4/rds-t2-cs072/BORA/CARBON/AIRSS/Generating-Clusters/Str-Search/Higher-Symm/C10-100
REM VASP from code version vasp.5.4.4.18Apr17-6-g9f103f2a35 (build Oct 11 2019 16:45:47) gamma-only
REM
REM
REM
REM
REM ./C.cell (f39ce9773e2efe3fa5bbdf770a4156b8)
REM AIRSS Version 0.9.1 bugfix July 2018 build 013d7b7c2542+ Fri, 06 Jul 2018 19:26:36 +0100
REM compiler GCC version 4.8.5 20150623 (Red Hat 4.8.5-39)
REM options -cpp -mtune=generic -march=x86-64 -g -O0
REM seed -680990134 -712692150 438634180 -4055693 1509030318 -2059208044 -908293083 1921532637 -1792815238 -314235285 1086332053 319444342
REM
REM C.POTCAR (d86ddea03c3ceb6dc662c8ad6801f873)
REM 
CELL 1.54180   15.00000   15.00000   15.00000   90.00000   90.00000   90.00000
LATT -1
SFAC C  
C      1  0.3460908332688  0.3764731219862  0.4790678451169 1.0
C      1  0.4225601176664  0.3455994152483  0.4317194825972 1.0
C      1  0.4475939337023  0.3831982299949  0.3488630208077 1.0
C      1  0.5395976533659  0.3856504657520  0.3257998989145 1.0
C      1  0.6276607101121  0.3842441529649  0.3773893187602 1.0
C      1  0.6645666848360  0.3859619546624  0.4628124474294 1.0
C      1  0.6500703660653  0.3877551379017  0.5666340200437 1.0
C      1  0.5920392969102  0.3888603136095  0.6397303672718 1.0
C      1  0.4953152973658  0.3885467561192  0.6756012193620 1.0
C      1  0.4060212061272  0.3885783899482  0.6525482817127 1.0
C      1  0.3428631014996  0.3877308861160  0.5736686776499 1.0
C      1  0.3889324747122  0.5450019846502  0.7170179750258 1.0
C      1  0.2857595037097  0.5452869525181  0.5588789007511 1.0
C      1  0.2604070264194  0.5247212742636  0.4722358111879 1.0
C      1  0.3029223916325  0.5632606998237  0.3947378339983 1.0
C      1  0.4361758577196  0.5353879275992  0.2792455230811 1.0
C      1  0.5288643135065  0.5355478220793  0.2623119600634 1.0
C      1  0.6872846660660  0.5385733760462  0.3480228887667 1.0
C      1  0.7264079490607  0.5389373150494  0.4327209888472 1.0
C      1  0.7052548651344  0.5414814085667  0.6085400222026 1.0
C      1  0.6480682054314  0.5427026287648  0.6818945576506 1.0
C      1  0.4803016843021  0.5434940260910  0.7429880205374 1.0
C      1  0.5428320513495  0.6115008931444  0.3265319503054 1.0
C      1  0.6224316552969  0.6111910180518  0.3731538247573 1.0
C      1  0.6651652382007  0.6105434403988  0.4671027139902 1.0
C      1  0.6541054677160  0.6117201816154  0.5597607495662 1.0
C      1  0.5901953977326  0.6135161527222  0.6429684689978 1.0
C      1  0.5033773381531  0.6153341073723  0.6765908445152 1.0
C      1  0.4043992393365  0.6146111166377  0.6508284159442 1.0
C      1  0.3555624642318  0.6172929009296  0.5694809996005 1.0
C      1  0.3964799635559  0.6551461438335  0.4934685502745 1.0
C      1  0.3768356915037  0.6242258886166  0.4058221934625 1.0
C      1  0.4421344381757  0.6128214555194  0.3372923677221 1.0
C      1  0.3510035005087  0.4648956048038  0.6879094816627 1.0
C      1  0.2974716235373  0.4652153899863  0.6103218620586 1.0
C      1  0.2864231240050  0.4375418617978  0.4342715075745 1.0
C      1  0.3116647622417  0.4761084267665  0.3495179410725 1.0
C      1  0.3911333590351  0.4554081277237  0.3069486379078 1.0
C      1  0.5758661271029  0.4551752265139  0.2680271641974 1.0
C      1  0.6587201233756  0.4561851354566  0.3144884748590 1.0
C      1  0.7334148499530  0.4562650945866  0.4769040210045 1.0
C      1  0.7212579152588  0.4573748862226  0.5690986673371 1.0
C      1  0.6111640433311  0.4601118649485  0.7075757561646 1.0
C      1  0.5236035877843  0.4608208425967  0.7395066452472 1.0
END
