TITL C-65924-1422-1 -4.222 3375.00 -709.79489646 0 0 88 (Cs) n - 1
REM
REM Run started: at 2020.12.12 08:52:53 in /rds/project/t2_vol4/rds-t2-cs072/BORA/CARBON/AIRSS/Generating-Clusters/Str-Search/Higher-Symm/C10-100
REM VASP from code version vasp.5.4.4.18Apr17-6-g9f103f2a35 (build Oct 11 2019 16:45:47) gamma-only
REM
REM
REM
REM
REM ./C.cell (f39ce9773e2efe3fa5bbdf770a4156b8)
REM AIRSS Version 0.9.1 bugfix July 2018 build 013d7b7c2542+ Fri, 06 Jul 2018 19:26:36 +0100
REM compiler GCC version 4.8.5 20150623 (Red Hat 4.8.5-39)
REM options -cpp -mtune=generic -march=x86-64 -g -O0
REM seed 1079294768 640640021 -1867483293 971424463 -845683287 -1366244094 1407182616 -453897510 -633765935 1679927704 -254157777 -672191142
REM
REM C.POTCAR (d86ddea03c3ceb6dc662c8ad6801f873)
REM 
CELL 1.54180   15.00000   15.00000   15.00000   90.00000   90.00000   90.00000
LATT -1
SFAC C  
C      1  0.2529537662809  0.5887543994831  0.5364847821255 1.0
C      1  0.2529553813824  0.4112628395852  0.5364890867637 1.0
C      1  0.4929286784064  0.7539342555332  0.6875989472209 1.0
C      1  0.4929193463762  0.2460624752579  0.6875943563817 1.0
C      1  0.9104406174122  0.5918597419977  0.4168207507924 1.0
C      1  0.9104494560318  0.4081313933093  0.4168080383529 1.0
C      1  0.6382036145709  0.2839309264469  0.4062196348358 1.0
C      1  0.6382040752907  0.7160649744802  0.4062172123648 1.0
C      1  0.6885633910495  0.4538917258557  0.3171647580388 1.0
C      1  0.6885620895406  0.5461020974116  0.3171582201983 1.0
C      1  0.4790046397845  0.7536619331724  0.5902782654993 1.0
C      1  0.4789950065021  0.2463334462822  0.5902730699293 1.0
C      1  0.3912611136282  0.4071805189142  0.2198656999651 1.0
C      1  0.3912609366314  0.5928218633632  0.2198695003629 1.0
C      1  0.3352355448430  0.3856113656219  0.4918686069254 1.0
C      1  0.3352419456853  0.6143975685780  0.4918684982622 1.0
C      1  0.4691538664170  0.4543942183730  0.5830040872210 1.0
C      1  0.4691530696720  0.5456026159032  0.5830074341208 1.0
C      1  0.3129989961064  0.4037010756196  0.6911506294991 1.0
C      1  0.3130000688872  0.5963096549759  0.6911487011675 1.0
C      1  0.5893946135795  0.5526758289920  0.3158412163832 1.0
C      1  0.5893952983006  0.4473201302799  0.3158384754771 1.0
C      1  0.6415191041639  0.3169067194570  0.6773627598011 1.0
C      1  0.6415258668114  0.6830819299954  0.6773703166456 1.0
C      1  0.3956154915193  0.7670949886760  0.5483738924535 1.0
C      1  0.3956004290107  0.2329173385380  0.5483749417799 1.0
C      1  0.3263219591596  0.4494145367155  0.2680058503697 1.0
C      1  0.3263216019941  0.5505876795293  0.2680064838960 1.0
C      1  0.3422123306334  0.6639664075649  0.4050017128733 1.0
C      1  0.3422078760751  0.3360446169989  0.4050020711271 1.0
C      1  0.6297168208942  0.7281334128609  0.5018140814501 1.0
C      1  0.6297142744092  0.2718622005930  0.5017979193787 1.0
C      1  0.5982522728512  0.4540510847213  0.4943418622138 1.0
C      1  0.5982528537962  0.5459420143605  0.4943411208850 1.0
C      1  0.4161864618925  0.5792926895550  0.5094540248516 1.0
C      1  0.4161779393648  0.4207018196477  0.5094538384814 1.0
C      1  0.1944411090674  0.5496493032482  0.4754295318039 1.0
C      1  0.1944389366407  0.4503665115771  0.4754303789511 1.0
C      1  0.5387525845984  0.6802419792297  0.3697944860425 1.0
C      1  0.5387516623761  0.3197547079538  0.3697880404393 1.0
C      1  0.3133531579439  0.6887144635365  0.6703178732812 1.0
C      1  0.3133565205221  0.3112994139055  0.6703105646849 1.0
C      1  0.4610779494730  0.5449792207371  0.4268302615938 1.0
C      1  0.4610754535611  0.4550191562017  0.4268283222059 1.0
C      1  0.8346180155845  0.5524866803894  0.3791948977956 1.0
C      1  0.8346211906578  0.4475072378430  0.3791860844146 1.0
C      1  0.9741571683932  0.4555178166682  0.4479670533180 1.0
C      1  0.9741545968435  0.5444761761101  0.4479768884734 1.0
C      1  0.3278008540206  0.7471168960606  0.6128794818673 1.0
C      1  0.3277858900955  0.2528829860465  0.6128743634177 1.0
C      1  0.7199415914671  0.3159736752360  0.3850691819545 1.0
C      1  0.7199460868393  0.6840146642576  0.3850862812287 1.0
C      1  0.6048362867363  0.4053808905529  0.6704936464859 1.0
C      1  0.6048404603993  0.5946084488112  0.6704979821805 1.0
C      1  0.4855120422901  0.3143626440747  0.7524385429960 1.0
C      1  0.4855266041238  0.6856337267966  0.7524472384677 1.0
C      1  0.3811700603387  0.5485816478547  0.7413911808840 1.0
C      1  0.3811689987507  0.4514250781345  0.7413906720389 1.0
C      1  0.5502495148261  0.5456139778398  0.7412277093249 1.0
C      1  0.5502448777249  0.4543783171929  0.7412218953245 1.0
C      1  0.4411920203093  0.7111200425183  0.3907759574960 1.0
C      1  0.4411853188377  0.2888839128183  0.3907762143525 1.0
C      1  0.4662571685057  0.4060964938404  0.7602026985611 1.0
C      1  0.4662633628729  0.5939032211013  0.7602024973935 1.0
C      1  0.2645405728155  0.4531676950981  0.6247933837242 1.0
C      1  0.2645363746932  0.5468432925081  0.6247938552029 1.0
C      1  0.5720484855072  0.2772766123253  0.7292095430774 1.0
C      1  0.5720589438343  0.7227177924719  0.7292171488472 1.0
C      1  0.2178006206116  0.5499177005742  0.3803857846288 1.0
C      1  0.2177979974188  0.4500901383272  0.3803874114210 1.0
C      1  0.6483437454899  0.7246491166678  0.5885950378353 1.0
C      1  0.6483431627789  0.2753472757747  0.5886009120148 1.0
C      1  0.5517369252641  0.5827038359277  0.4079226849154 1.0
C      1  0.5517389360803  0.4172942492116  0.4079198818641 1.0
C      1  0.3864184592675  0.2507469946947  0.4501528175922 1.0
C      1  0.3864297957921  0.7492633377052  0.4501513978569 1.0
C      1  0.5397587718260  0.6323648950897  0.2800451520938 1.0
C      1  0.5397534129041  0.3676360529677  0.2800425211367 1.0
C      1  0.2835180749983  0.6020115288168  0.3402125523905 1.0
C      1  0.2835149164196  0.3979976658803  0.3402082293760 1.0
C      1  0.4678057205562  0.3733323996061  0.2272545996031 1.0
C      1  0.4678095225969  0.6266646515689  0.2272582911520 1.0
C      1  0.7538766467370  0.3993560298800  0.3546122258446 1.0
C      1  0.7538751505971  0.6006397964089  0.3546094019977 1.0
C      1  0.5523500839757  0.6984058122005  0.5540024630462 1.0
C      1  0.5523405031722  0.3015859391092  0.5539991895224 1.0
C      1  0.5584909619544  0.4060460714506  0.5781597701762 1.0
C      1  0.5584923319550  0.5939493365484  0.5781647696083 1.0
END
