TITL C-65754-1030-30 -1.408 3375.00 -226.05996813 0 0 29 (C1) n - 1
REM
REM Run started: at 2020.12.12 18:04:53 in /rds/project/t2_vol4/rds-t2-cs072/BORA/CARBON/AIRSS/Generating-Clusters/Str-Search/Higher-Symm/C10-100
REM VASP from code version vasp.5.4.4.18Apr17-6-g9f103f2a35 (build Oct 11 2019 16:45:47) gamma-only
REM
REM
REM
REM
REM ./C.cell (f39ce9773e2efe3fa5bbdf770a4156b8)
REM AIRSS Version 0.9.1 bugfix July 2018 build 013d7b7c2542+ Fri, 06 Jul 2018 19:26:36 +0100
REM compiler GCC version 4.8.5 20150623 (Red Hat 4.8.5-39)
REM options -cpp -mtune=generic -march=x86-64 -g -O0
REM seed -787391869 74970245 690314462 1924585030 1433629900 -1302612523 -862331880 -1861186407 -1625804736 777514994 939288466 975927934
REM
REM C.POTCAR (d86ddea03c3ceb6dc662c8ad6801f873)
REM 
CELL 1.54180   15.00000   15.00000   15.00000   90.00000   90.00000   90.00000
LATT -1
SFAC C  
C      1  0.5125982212017  0.4167895491331  0.3332281092468 1.0
C      1  0.5972728099340  0.4673995607934  0.3283385560316 1.0
C      1  0.6132465718944  0.5561230291702  0.3588769151848 1.0
C      1  0.5461343269842  0.6187887775708  0.3820329141831 1.0
C      1  0.4490884975202  0.6147920975984  0.3837708053557 1.0
C      1  0.3934249232538  0.5394274291889  0.3688148696382 1.0
C      1  0.4267253009302  0.4492711785121  0.3528848439218 1.0
C      1  0.4197483204535  0.6566175571539  0.5594733321350 1.0
C      1  0.3099345879610  0.5462871334721  0.5489884339925 1.0
C      1  0.3301592464965  0.4057505843764  0.6154015478500 1.0
C      1  0.4822454833471  0.3541394259954  0.5811646001245 1.0
C      1  0.6423111116283  0.3975804997737  0.6048949525710 1.0
C      1  0.6855200816126  0.5402088586505  0.5433318524517 1.0
C      1  0.5797937137595  0.6550940326437  0.5549696442111 1.0
C      1  0.5504995549378  0.5928971636400  0.4788112230213 1.0
C      1  0.4448533468099  0.5935289610464  0.4825967230702 1.0
C      1  0.3724265053373  0.5173330506349  0.4687132170594 1.0
C      1  0.4049978085272  0.4248229215896  0.4452688560655 1.0
C      1  0.5424043180952  0.3710594189196  0.4184377008112 1.0
C      1  0.6178834263298  0.4294279550237  0.4160368995833 1.0
C      1  0.6314992072659  0.5208549898281  0.4588274774592 1.0
C      1  0.5003226529809  0.6943537959045  0.5823835486689 1.0
C      1  0.3339275406869  0.6312285383793  0.5810744731028 1.0
C      1  0.2835217545838  0.4791728291007  0.6066720109579 1.0
C      1  0.4007847796475  0.3583621394408  0.6261918640352 1.0
C      1  0.5690730611850  0.3544751713110  0.6146579600966 1.0
C      1  0.6963879300919  0.4653203088167  0.5955689701313 1.0
C      1  0.6645750231408  0.6272857191378  0.5750983173344 1.0
C      1  0.4745656934032  0.3737663231943  0.4847746817052 1.0
END
