TITL C-65754-1030-37 -2.236 3375.00 -399.38211966 0 0 50 (C1) n - 1
REM
REM Run started: at 2020.12.12 19:34:47 in /rds/project/t2_vol4/rds-t2-cs072/BORA/CARBON/AIRSS/Generating-Clusters/Str-Search/Higher-Symm/C10-100
REM VASP from code version vasp.5.4.4.18Apr17-6-g9f103f2a35 (build Oct 11 2019 16:45:47) gamma-only
REM
REM
REM
REM
REM ./C.cell (f39ce9773e2efe3fa5bbdf770a4156b8)
REM AIRSS Version 0.9.1 bugfix July 2018 build 013d7b7c2542+ Fri, 06 Jul 2018 19:26:36 +0100
REM compiler GCC version 4.8.5 20150623 (Red Hat 4.8.5-39)
REM options -cpp -mtune=generic -march=x86-64 -g -O0
REM seed 145316061 431238688 1139891846 -1409886098 2136660396 -1647417778 -1550256027 -147803299 961613333 -951413859 536957078 163630726
REM
REM C.POTCAR (d86ddea03c3ceb6dc662c8ad6801f873)
REM 
CELL 1.54180   15.00000   15.00000   15.00000   90.00000   90.00000   90.00000
LATT -1
SFAC C  
C      1  0.5462261311931  0.5687637504720  0.5798106234643 1.0
C      1  0.6103472436444  0.5302782797035  0.5245102111432 1.0
C      1  0.5890973870939  0.5281998509503  0.4313538584550 1.0
C      1  0.5024729256951  0.5588649630737  0.4118094348096 1.0
C      1  0.4190263535834  0.5183787749328  0.4317030396381 1.0
C      1  0.3946297655760  0.5194758786959  0.5243977775377 1.0
C      1  0.4544575145849  0.5643108420257  0.5801156936049 1.0
C      1  0.5955707302846  0.6799938317823  0.4289021395987 1.0
C      1  0.4995828634878  0.6621281416575  0.3965926441643 1.0
C      1  0.4025156773038  0.6722281261596  0.4273653275743 1.0
C      1  0.3787758927457  0.6721946549380  0.5171749169839 1.0
C      1  0.4443108493498  0.6701762957301  0.5911457419547 1.0
C      1  0.5509226064536  0.6731052407666  0.5919647562033 1.0
C      1  0.6179367087148  0.6808616284853  0.5190823145356 1.0
C      1  0.6676152058727  0.4438887670956  0.5430862499431 1.0
C      1  0.6374859050466  0.4442461434614  0.3911571035796 1.0
C      1  0.5087283326782  0.4251701905912  0.3021496664904 1.0
C      1  0.3729739207542  0.4340135348628  0.3879377519434 1.0
C      1  0.3358236451240  0.4337453243607  0.5433186250845 1.0
C      1  0.4199540291819  0.4282700654032  0.6793816771825 1.0
C      1  0.5816019087385  0.4306568131867  0.6736781228606 1.0
C      1  0.4196604439466  0.3478436867790  0.4116044742020 1.0
C      1  0.3895510377446  0.3482125737605  0.5449406152029 1.0
C      1  0.4507058708149  0.3607921262554  0.6189234697502 1.0
C      1  0.5470484262150  0.3670265229799  0.6078722338464 1.0
C      1  0.5996812447848  0.3709314336985  0.5264674823305 1.0
C      1  0.5841704074172  0.3692691708753  0.4319486334503 1.0
C      1  0.5084172714871  0.3597258074033  0.3741790597817 1.0
C      1  0.5027190317593  0.6042557016366  0.3127803097786 1.0
C      1  0.3591778810093  0.5898016112228  0.3843903971291 1.0
C      1  0.3180238165791  0.5908615214873  0.5378085352694 1.0
C      1  0.4168792398069  0.6051374493836  0.6651399448236 1.0
C      1  0.5812558966137  0.6087393196182  0.6662480255504 1.0
C      1  0.6832970534318  0.6027257039094  0.5407687695263 1.0
C      1  0.6455092109407  0.6013185957509  0.3850264480981 1.0
C      1  0.7202314142742  0.4696595998824  0.4526460959713 1.0
C      1  0.5942621028275  0.4718285492698  0.3002480430824 1.0
C      1  0.4185768622670  0.4656724266717  0.2960883527214 1.0
C      1  0.2867536131858  0.4556618010915  0.4490558480735 1.0
C      1  0.3359084115535  0.4677559529083  0.6451203182048 1.0
C      1  0.5012376984861  0.4734305235273  0.7152598130422 1.0
C      1  0.6637193950968  0.4737695531010  0.6423975305459 1.0
C      1  0.4130191135585  0.5603797303906  0.2966983900443 1.0
C      1  0.2809228514768  0.5499630190090  0.4477199962928 1.0
C      1  0.3259814705991  0.5620384123001  0.6427138965929 1.0
C      1  0.4997314082822  0.5679148521851  0.7157645743682 1.0
C      1  0.6750834642603  0.5696570066599  0.6461842117973 1.0
C      1  0.7238327201260  0.5642299732561  0.4511889370884 1.0
C      1  0.5962632583951  0.5682767068789  0.2955893703660 1.0
C      1  0.4055877859534  0.2828247697728  0.4783625463172 1.0
END
