TITL C-65754-1030-32 -2.669 3375.00 -434.94711212 0 0 55 (S4) n - 1
REM
REM Run started: at 2020.12.12 18:26:57 in /rds/project/t2_vol4/rds-t2-cs072/BORA/CARBON/AIRSS/Generating-Clusters/Str-Search/Higher-Symm/C10-100
REM VASP from code version vasp.5.4.4.18Apr17-6-g9f103f2a35 (build Oct 11 2019 16:45:47) gamma-only
REM
REM
REM
REM
REM ./C.cell (f39ce9773e2efe3fa5bbdf770a4156b8)
REM AIRSS Version 0.9.1 bugfix July 2018 build 013d7b7c2542+ Fri, 06 Jul 2018 19:26:36 +0100
REM compiler GCC version 4.8.5 20150623 (Red Hat 4.8.5-39)
REM options -cpp -mtune=generic -march=x86-64 -g -O0
REM seed 768213064 1434225271 -246943693 -986461982 -656411345 -1916351084 112522093 -24916519 1988356784 1294896689 -233089315 -1833368300
REM
REM C.POTCAR (d86ddea03c3ceb6dc662c8ad6801f873)
REM 
CELL 1.54180   15.00000   15.00000   15.00000   90.00000   90.00000   90.00000
LATT -1
SFAC C  
C      1  0.5146928546232  0.3149421732106  0.5562113095534 1.0
C      1  0.4899552943784  0.5547795567797  0.6832757895299 1.0
C      1  0.5143976382824  0.6825213933203  0.4428165461835 1.0
C      1  0.4899369752928  0.4415280375628  0.3155464866284 1.0
C      1  0.5782594468526  0.4716174308860  0.3038010498421 1.0
C      1  0.4264096182221  0.3023535243505  0.5265693759397 1.0
C      1  0.5783564873200  0.5252341103988  0.6952234399701 1.0
C      1  0.4260274356541  0.6936912314587  0.4727666274515 1.0
C      1  0.3868276395147  0.3346593346286  0.6106963924581 1.0
C      1  0.6177534265928  0.6094353373906  0.6628284045302 1.0
C      1  0.3865690190385  0.6611143344601  0.3887163052530 1.0
C      1  0.6179836654685  0.3876361353280  0.3361378135520 1.0
C      1  0.6169646769236  0.4381884656091  0.6863044082944 1.0
C      1  0.3877262520800  0.6846465941943  0.5599414062564 1.0
C      1  0.6167115815328  0.5587612244996  0.3128533006782 1.0
C      1  0.3880046984295  0.3113402400252  0.4394507162412 1.0
C      1  0.7334546700172  0.4834756960294  0.4117414759689 1.0
C      1  0.2711405653578  0.4101168707858  0.5150321417525 1.0
C      1  0.7334504048120  0.5140262316345  0.5873477455928 1.0
C      1  0.2710708447148  0.5856894035886  0.4843832645617 1.0
C      1  0.4841602877400  0.6549906150348  0.3522647623990 1.0
C      1  0.5202702685809  0.3510445488756  0.3428893925383 1.0
C      1  0.4845030101224  0.3420012425177  0.6468480429818 1.0
C      1  0.5200493665452  0.6454355139164  0.6560906680633 1.0
C      1  0.3116950014258  0.3917824320662  0.6059130555041 1.0
C      1  0.6928099795783  0.6048142727542  0.6056059465199 1.0
C      1  0.3115216240719  0.6038470830221  0.3935171868516 1.0
C      1  0.6929547328836  0.3926021558610  0.3934015124987 1.0
C      1  0.3184027448850  0.4754847710997  0.6579652797902 1.0
C      1  0.6861445904934  0.6568147005051  0.5218612914859 1.0
C      1  0.3181811968534  0.5200118572278  0.3416882764970 1.0
C      1  0.6861798038994  0.3407099934442  0.4771385699789 1.0
C      1  0.4574102433224  0.2978299983617  0.3778525666042 1.0
C      1  0.5475716836023  0.3766200475716  0.7001184534676 1.0
C      1  0.4570349092881  0.6987254879781  0.6214614000690 1.0
C      1  0.5472106013987  0.6201710178977  0.2991570748388 1.0
C      1  0.4055404428011  0.4736426138863  0.3585219805639 1.0
C      1  0.5988471667249  0.3579831864932  0.5235248901930 1.0
C      1  0.4057102886094  0.5218389166599  0.6405913997810 1.0
C      1  0.5987756779069  0.6398938586682  0.4754007569317 1.0
C      1  0.4221738737363  0.4900569448516  0.4539278500280 1.0
C      1  0.5822307692804  0.4533878668282  0.5071408826551 1.0
C      1  0.4221543792718  0.5054384669242  0.5452208119605 1.0
C      1  0.5819437544379  0.5445519082412  0.4917880567527 1.0
C      1  0.3057419220491  0.3667215046148  0.4347394596401 1.0
C      1  0.6992190291720  0.4336559196745  0.6307327347738 1.0
C      1  0.3055901532239  0.6289997816051  0.5646495087149 1.0
C      1  0.6989937213820  0.5637295623219  0.3683414777478 1.0
C      1  0.6912624247690  0.3605021417532  0.5661548936673 1.0
C      1  0.3132542841847  0.5644823115093  0.6379190464743 1.0
C      1  0.6910906044854  0.6370621768680  0.4327621543966 1.0
C      1  0.3132832219790  0.4308726813330  0.3611951647152 1.0
C      1  0.2393863450239  0.4979064786512  0.5000176298773 1.0
C      1  0.7651636566698  0.4987325093204  0.4995361324713 1.0
C      1  0.5020837444934  0.4988060055208  0.4993932883294 1.0
END
