TITL C-66248-7283-22 -0.809 3375.00 -122.29839914 0 0 16 (C1) n - 1
REM
REM Run started: at 2020.12.12 14:59:13 in /rds/project/t2_vol4/rds-t2-cs072/BORA/CARBON/AIRSS/Generating-Clusters/Str-Search/Higher-Symm/C10-100
REM VASP from code version vasp.5.4.4.18Apr17-6-g9f103f2a35 (build Oct 11 2019 16:45:47) gamma-only
REM
REM
REM
REM
REM ./C.cell (f39ce9773e2efe3fa5bbdf770a4156b8)
REM AIRSS Version 0.9.1 bugfix July 2018 build 013d7b7c2542+ Fri, 06 Jul 2018 19:26:36 +0100
REM compiler GCC version 4.8.5 20150623 (Red Hat 4.8.5-39)
REM options -cpp -mtune=generic -march=x86-64 -g -O0
REM seed -1113991407 -17128562 1967036278 2077031569 -1816810097 1220649053 1763420191 -846104719 1075706091 -313362246 683413314 273952200
REM
REM C.POTCAR (d86ddea03c3ceb6dc662c8ad6801f873)
REM 
CELL 1.54180   15.00000   15.00000   15.00000   90.00000   90.00000   90.00000
LATT -1
SFAC C  
C      1  0.6272177094494  0.4486389160670  0.3354590720438 1.0
C      1  0.2888644277934  0.5561937942349  0.5795507408957 1.0
C      1  0.5009759465567  0.4471658898460  0.5849604837985 1.0
C      1  0.6162064296973  0.3740167316290  0.2818786420436 1.0
C      1  0.6341316823332  0.5150674469962  0.3919812562898 1.0
C      1  0.5396754738378  0.5254584569626  0.6189035407661 1.0
C      1  0.4453229105924  0.5119761859179  0.6272321258356 1.0
C      1  0.5318143360647  0.3556396035184  0.4392810120870 1.0
C      1  0.5729753412908  0.3603946781614  0.3618763034284 1.0
C      1  0.5146365742011  0.6399040782295  0.5421189514314 1.0
C      1  0.5376016811252  0.4262124574675  0.4968373862602 1.0
C      1  0.5943459158891  0.5095002062484  0.4742681155355 1.0
C      1  0.4319478596740  0.6470717846924  0.5604037267938 1.0
C      1  0.2076124128563  0.5326061638630  0.5661296259667 1.0
C      1  0.5805679323975  0.5745926430420  0.5474548311280 1.0
C      1  0.3761035662411  0.5755610631238  0.5916643856957 1.0
END
