TITL C-6660-8037-50 -7.048 3375.00 -1179.11398724 0 0 145 (C1) n - 1
REM
REM Run started: at 2020.12.19 11:33:17 in /gpfs/home/chem/mssmkc/CARBON/AIRSS/Generating-Clusters/Str-Search/Higher-Symm
REM VASP from code version vasp.5.4.4.18Apr17-6-g9f103f2a35 (build Oct 11 2019 16:45:47) gamma-only
REM
REM
REM
REM
REM ./C.cell (533062f00bc710175b3da973d35f2034)
REM AIRSS Version 0.9.1 bugfix July 2018 build 013d7b7c2542+ Fri, 06 Jul 2018 19:26:36 +0100
REM compiler GCC version 6.3.0
REM options -cpp -iprefix /gpfs/warwick/csc/orac/software/Core/GCCcore/6.3.0/bin/../lib/gcc/x86_64-pc-linux-gnu/6.3.0/ -mtune=generic -march=x86-64 -g -O0
REM seed -492412512 -1484881964 -1255894327 -134156222 -1978289827 -1195990742 -365010237 1433313473 336523573 355131837 108540927 1451718824
REM
REM C.POTCAR (d86ddea03c3ceb6dc662c8ad6801f873)
REM 
CELL 1.54180   15.00000   15.00000   15.00000   90.00000   90.00000   90.00000
LATT -1
SFAC C  
C      1  0.3224273583232  0.5164730185080  0.5603003790226 1.0
C      1  0.8160968432944  0.7824123277286  0.7093781805302 1.0
C      1  0.6478787413796  0.2788882642708  0.6904189689841 1.0
C      1  0.7703163564051  0.4078317983264  0.6435473607680 1.0
C      1  0.3452265219114  0.3068790066685  0.4811994540041 1.0
C      1  0.5360743684086  0.1429484737612  0.5385633330943 1.0
C      1  0.2081957740573  0.6471746215254  0.8116411274285 1.0
C      1  0.6613439768091  0.6806679983074  0.2222822072525 1.0
C      1  0.7847474171912  0.6027144176315  0.5478849735979 1.0
C      1  0.5244773798773  0.8345995739451  0.6138871907928 1.0
C      1  0.5224108489989  0.6551782968829  0.7786046386270 1.0
C      1  0.6269642950005  0.5707582146869  0.4896424369085 1.0
C      1  0.6071765628448  0.6202192556723  0.5825541959827 1.0
C      1  0.5279649600093  0.6386759717379  0.3611400010683 1.0
C      1  0.3044724999081  0.6538728399320  0.2261631696698 1.0
C      1  0.6300846768816  0.1371532445213  0.5352524184648 1.0
C      1  0.3219593264892  0.5276024808030  0.1505238701639 1.0
C      1  0.5585073804512  0.5525760699072  0.6431027537666 1.0
C      1  0.6257586271028  0.4700310075710  0.8639621086871 1.0
C      1  0.2862486281925  0.7507614926799  0.4830703692641 1.0
C      1  0.7078098630168  0.6768303737217  0.3046512444435 1.0
C      1  0.4257592702536  0.1858698239542  0.4003654424546 1.0
C      1  0.4973146329357  0.7162900818898  0.5047441620152 1.0
C      1  0.5597960262392  0.4247009061621  0.8849913925612 1.0
C      1  0.3068278026578  0.5018207564395  0.8260376744160 1.0
C      1  0.4581429833585  0.5812218002429  0.7981465167408 1.0
C      1  0.4535154658483  0.6771820030152  0.4213124712476 1.0
C      1  0.6181502774821  0.4201431312854  0.4249734980332 1.0
C      1  0.6559538621766  0.4346777241139  0.2504483852222 1.0
C      1  0.5076932387617  0.6707769786249  0.2678593392639 1.0
C      1  0.2154451853357  0.7801530644393  0.5316275568250 1.0
C      1  0.4015793990184  0.4414382635015  0.2714234449583 1.0
C      1  0.7271464334364  0.5551588318585  0.4857455394562 1.0
C      1  0.1457529430431  0.4020289604289  0.3591847962133 1.0
C      1  0.2945317230532  0.2650314370844  0.5634502293255 1.0
C      1  0.4761435179229  0.5843776099482  0.6152437178439 1.0
C      1  0.4349955406913  0.2736931699742  0.4511080627518 1.0
C      1  0.4686092587432  0.6013608001564  0.2031910258266 1.0
C      1  0.6032124009036  0.3992388547732  0.6796864037425 1.0
C      1  0.3601395576432  0.8065626280522  0.4568866293009 1.0
C      1  0.0895758159837  0.3326422531367  0.3779487440342 1.0
C      1  0.3951337133166  0.5363456138720  0.6304172180754 1.0
C      1  0.8156696604415  0.3560459009360  0.5792065265042 1.0
C      1  0.3615223612289  0.1598255517693  0.3308142833908 1.0
C      1  0.6899708682029  0.6323470285858  0.7128792762624 1.0
C      1  0.5703215543696  0.4846965084754  0.4776375848128 1.0
C      1  0.6553448396231  0.7986913192832  0.4249311803919 1.0
C      1  0.4644089760516  0.1882531435963  0.1993797695227 1.0
C      1  0.6772808404262  0.5263731069161  0.2498648803986 1.0
C      1  0.3960641086978  0.5229253284187  0.4823568263393 1.0
C      1  0.5652676886494  0.3577192157929  0.3816138559641 1.0
C      1  0.5644635243524  0.8312018567275  0.4273521431716 1.0
C      1  0.3712400068051  0.6104383613001  0.1792719992254 1.0
C      1  0.3579978974760  0.3903799283184  0.6615507731412 1.0
C      1  0.2763890374921  0.5886351850225  0.8338407432272 1.0
C      1  0.6906231687461  0.3650837043484  0.6770465121687 1.0
C      1  0.3208086157604  0.4647072413990  0.2271236593842 1.0
C      1  0.4724610936435  0.3650700874841  0.4115901440414 1.0
C      1  0.8755312441814  0.1485897591835  0.4699769193320 1.0
C      1  0.8747598533692  0.6390362687131  0.6697317234540 1.0
C      1  0.4261108235565  0.8222865164849  0.6257176053465 1.0
C      1  0.2167341717649  0.5047562093097  0.0115238446795 1.0
C      1  0.5975082839900  0.3992400703655  0.1778484636846 1.0
C      1  0.5811919271903  0.3206904792981  0.6307144413614 1.0
C      1  0.9540607641666  0.1599129693927  0.4443760979604 1.0
C      1  0.1635836162086  0.6957183294415  0.6555270341831 1.0
C      1  0.8182177317407  0.2709716976771  0.5367311529253 1.0
C      1  0.4836280119568  0.1876159228871  0.4668378800605 1.0
C      1  0.8734705998075  0.3402594543245  0.5085901872865 1.0
C      1  0.2891679429703  0.4274750688982  0.5939846606918 1.0
C      1  0.3841683324554  0.6131679846850  0.4554464677614 1.0
C      1  0.3188887731052  0.3588174204567  0.3947865484683 1.0
C      1  0.3986278878189  0.3886424639741  0.3491576921059 1.0
C      1  0.6807929111713  0.6841282087031  0.6254116625990 1.0
C      1  0.9085840272958  0.4570748527671  0.4076655678935 1.0
C      1  0.6410339384665  0.5241636182496  0.7834004674422 1.0
C      1  0.1710195142218  0.6851045192265  0.7484710244801 1.0
C      1  0.3939289865561  0.3811402607607  0.8498924660227 1.0
C      1  0.5158378520860  0.6564358002267  0.5701913703727 1.0
C      1  0.7822744597047  0.4984357038927  0.6681166922364 1.0
C      1  0.2689304704533  0.5175670941177  0.0777374419672 1.0
C      1  0.5712642844654  0.3144152403044  0.1651007924957 1.0
C      1  0.5153864422380  0.8185175960407  0.5143986349973 1.0
C      1  0.1651820303206  0.5769066888892  0.2928031966828 1.0
C      1  0.2591482539922  0.5967959529724  0.5505553241954 1.0
C      1  0.8771692988976  0.7184346799787  0.6962586366294 1.0
C      1  0.2127928197822  0.3879675918595  0.6536128902925 1.0
C      1  0.2163617748333  0.2899005918904  0.6252788414026 1.0
C      1  0.4770035885020  0.4620403594087  0.4709376954615 1.0
C      1  0.6135839394119  0.6235792596441  0.7722943920200 1.0
C      1  0.2457137313483  0.4426971528838  0.2750587212200 1.0
C      1  0.6597603590269  0.7757139829261  0.6701322462268 1.0
C      1  0.4193187004946  0.7698826950070  0.3899046877517 1.0
C      1  0.5218710582389  0.2459286864896  0.1682169817183 1.0
C      1  0.7237747366420  0.5448979567813  0.7276302810250 1.0
C      1  0.4747667764835  0.4171531500659  0.8429772408418 1.0
C      1  0.5014224313944  0.8141125106341  0.3569803101750 1.0
C      1  0.2651861356347  0.2573893375321  0.6989329524903 1.0
C      1  0.6442770870408  0.5917335132629  0.1862179526326 1.0
C      1  0.7113952307364  0.1468684266404  0.5265010205490 1.0
C      1  0.5808100013869  0.7306344437797  0.2254479136509 1.0
C      1  0.4093874956558  0.4672577692121  0.6892432946189 1.0
C      1  0.2824483567007  0.3543835043517  0.7293074729344 1.0
C      1  0.1443942041658  0.5333324485391  0.6431068708890 1.0
C      1  0.8343505953230  0.5702022856847  0.6204197596284 1.0
C      1  0.2421137309304  0.3860865977056  0.3514901727626 1.0
C      1  0.1711379629061  0.7688308359831  0.6015792921631 1.0
C      1  0.2682185497670  0.1715248030720  0.3472262452985 1.0
C      1  0.3699888119273  0.5755068766261  0.8269476419862 1.0
C      1  0.1901242241761  0.1897529733742  0.3684449159549 1.0
C      1  0.3443446248739  0.3526858997366  0.5698240242780 1.0
C      1  0.5200358406067  0.7713463290684  0.2744216012660 1.0
C      1  0.3034886580864  0.6548616981354  0.4904173502424 1.0
C      1  0.1835309822245  0.6104472038792  0.6093983022171 1.0
C      1  0.5361667087244  0.4742168510486  0.1644930649500 1.0
C      1  0.8454777303988  0.5072488411186  0.3901014194169 1.0
C      1  0.2246382436645  0.6250936330858  0.2526407395590 1.0
C      1  0.4027535046462  0.1588769674772  0.2493907205798 1.0
C      1  0.5679076120414  0.7922332841001  0.6817451456294 1.0
C      1  0.0007863561402  0.3169678516761  0.4105282886117 1.0
C      1  0.4773089375450  0.1324974588483  0.6068217081012 1.0
C      1  0.9334322125037  0.3720084761558  0.4405986351481 1.0
C      1  0.4039047239432  0.1586923113005  0.6399567476976 1.0
C      1  0.5589506412643  0.5669835436259  0.1531813854297 1.0
C      1  0.4967053516164  0.7391375101116  0.7352171068721 1.0
C      1  0.7987232131580  0.1811774740926  0.5135859864278 1.0
C      1  0.6353867510648  0.3970541233579  0.3349364234018 1.0
C      1  0.3294382884932  0.2073731075355  0.6413825351973 1.0
C      1  0.7462849187893  0.6932739167652  0.5472401489991 1.0
C      1  0.7097957550405  0.7404921690596  0.3760948668539 1.0
C      1  0.3142605808975  0.4047763115062  0.8136184636921 1.0
C      1  0.6059261005268  0.6009215585032  0.3911775614532 1.0
C      1  0.4148011958578  0.8340391837201  0.5290139773095 1.0
C      1  0.6949724916590  0.5790872115208  0.3339744317282 1.0
C      1  0.4700408232180  0.4927538799668  0.2245614004401 1.0
C      1  0.4121160969780  0.7664765472690  0.7003120040667 1.0
C      1  0.5706026948906  0.4846433219050  0.7158682277819 1.0
C      1  0.1096494518123  0.2344289872591  0.3881346368135 1.0
C      1  0.7184990017927  0.7406515234389  0.4715930326089 1.0
C      1  0.7379183728628  0.8131787316716  0.7036889701217 1.0
C      1  0.7608247101257  0.5443782258580  0.4005715589829 1.0
C      1  0.0200094796655  0.2190085526769  0.4184725333357 1.0
C      1  0.1428475084027  0.4526127973693  0.6581645518309 1.0
C      1  0.4789283141763  0.4850657744031  0.7618563536290 1.0
C      1  0.1617413883236  0.4842735480615  0.2991496135409 1.0
END
