TITL C-6620-4778-53 -5.361 3375.00 -900.66732706 0 0 111 (C1) n - 1
REM
REM Run started: at 2020.12.19 16:51:35 in /gpfs/home/chem/mssmkc/CARBON/AIRSS/Generating-Clusters/Str-Search/Higher-Symm
REM VASP from code version vasp.5.4.4.18Apr17-6-g9f103f2a35 (build Oct 11 2019 16:45:47) gamma-only
REM
REM
REM
REM
REM ./C.cell (533062f00bc710175b3da973d35f2034)
REM AIRSS Version 0.9.1 bugfix July 2018 build 013d7b7c2542+ Fri, 06 Jul 2018 19:26:36 +0100
REM compiler GCC version 6.3.0
REM options -cpp -iprefix /gpfs/warwick/csc/orac/software/Core/GCCcore/6.3.0/bin/../lib/gcc/x86_64-pc-linux-gnu/6.3.0/ -mtune=generic -march=x86-64 -g -O0
REM seed 39632624 -310359287 1794546748 -1426115899 1941461851 187668615 -2026858474 1058081986 1906078023 -847897619 -2059644424 2103294958
REM
REM C.POTCAR (d86ddea03c3ceb6dc662c8ad6801f873)
REM 
CELL 1.54180   15.00000   15.00000   15.00000   90.00000   90.00000   90.00000
LATT -1
SFAC C  
C      1  0.4533221762488  0.8193576497739  0.4980914110463 1.0
C      1  0.5475462680749  0.8257254878847  0.5168848570569 1.0
C      1  0.5505372818389  0.1448428322579  0.4967928202928 1.0
C      1  0.4509343109789  0.1452435933695  0.5059060266748 1.0
C      1  0.4606237538431  0.3501118189894  0.2464277474698 1.0
C      1  0.5416035845759  0.3517981095946  0.7523831260943 1.0
C      1  0.5489751290217  0.6553050024273  0.2510366965247 1.0
C      1  0.4564237301460  0.6581601585818  0.7502024706072 1.0
C      1  0.2641450078065  0.6299352294409  0.6955519956445 1.0
C      1  0.7390392995425  0.6278671812431  0.3153645774649 1.0
C      1  0.7211185249608  0.3749360630867  0.7004069084372 1.0
C      1  0.2785221942332  0.3698557603103  0.2957476095129 1.0
C      1  0.6031233451834  0.1968418986381  0.2747669676562 1.0
C      1  0.3968946995899  0.2018774802316  0.7273941694618 1.0
C      1  0.4099387728644  0.7968843840181  0.2795097487510 1.0
C      1  0.5987476359572  0.7969433061986  0.7345714683873 1.0
C      1  0.5698410373203  0.7340099138034  0.3030709376645 1.0
C      1  0.4360886369715  0.7394853949016  0.7020680882876 1.0
C      1  0.4428270855031  0.2593749310489  0.2798001772789 1.0
C      1  0.5584429275995  0.2611896382721  0.7202911851270 1.0
C      1  0.7323453208102  0.5517826322182  0.2827227661118 1.0
C      1  0.2674833126165  0.5513993670646  0.7219196556259 1.0
C      1  0.2673550020163  0.4518053581774  0.2961440188981 1.0
C      1  0.7322192553287  0.4568649420822  0.6958147562965 1.0
C      1  0.6868676307237  0.4717451781835  0.2713589953389 1.0
C      1  0.3159086426565  0.4731395184927  0.7271249406237 1.0
C      1  0.3280991742325  0.5242573756520  0.3224971687521 1.0
C      1  0.6700354315201  0.5287676682577  0.6709202127520 1.0
C      1  0.6106742938035  0.3479982404471  0.3667758354600 1.0
C      1  0.3903640601930  0.3514173496897  0.6306967663721 1.0
C      1  0.3728566863724  0.6666302125247  0.3721578777070 1.0
C      1  0.6191306976945  0.6692118040402  0.6121779345470 1.0
C      1  0.3769758958284  0.1884318550048  0.4407399547502 1.0
C      1  0.6247651965687  0.1884784664957  0.5606993535530 1.0
C      1  0.6261379335396  0.8008829588036  0.4552289768177 1.0
C      1  0.3746785942642  0.8000374403486  0.5532570254796 1.0
C      1  0.3200826759083  0.4640558124088  0.4852247075663 1.0
C      1  0.6778889190490  0.4633827661859  0.5108874171427 1.0
C      1  0.6422553726776  0.4846189905652  0.4270452036732 1.0
C      1  0.3562157234814  0.4896042083730  0.5679408770909 1.0
C      1  0.5136617038420  0.7930539220767  0.6889478425759 1.0
C      1  0.4908504668270  0.7842227172880  0.3225146701669 1.0
C      1  0.4813545128452  0.2119678253049  0.7322421399224 1.0
C      1  0.5191212140350  0.2089930100237  0.2683314138243 1.0
C      1  0.5396652026855  0.6205465885234  0.4468882884026 1.0
C      1  0.4627894747882  0.6267852000355  0.5354102044483 1.0
C      1  0.5207988521772  0.2771569506017  0.4577712686915 1.0
C      1  0.4812495400967  0.2783221509141  0.5424928258776 1.0
C      1  0.5567387370381  0.6540752066575  0.5411766053061 1.0
C      1  0.4495375677753  0.6676140580432  0.4365602927597 1.0
C      1  0.4517839609618  0.3619638560045  0.5615970486476 1.0
C      1  0.5482258601323  0.3604281015102  0.4353253931885 1.0
C      1  0.6394538547777  0.7510545540289  0.3672792096755 1.0
C      1  0.3626739310707  0.7547361547958  0.6413950875003 1.0
C      1  0.3738223884874  0.2355650855387  0.3485166424614 1.0
C      1  0.6276104108988  0.2369930821326  0.6518819937601 1.0
C      1  0.6328760885665  0.2450207218281  0.3589524859217 1.0
C      1  0.3685618328836  0.2481946631429  0.6416925028654 1.0
C      1  0.3599195192049  0.7660333201411  0.3600652023827 1.0
C      1  0.6373943507500  0.7686146756081  0.6448568332657 1.0
C      1  0.7308442463841  0.3077855864927  0.5598928065287 1.0
C      1  0.2701789674372  0.3073625743911  0.4393920197366 1.0
C      1  0.2428531087408  0.7055197649952  0.5505129212159 1.0
C      1  0.7642239465432  0.7139312615577  0.4562331688896 1.0
C      1  0.6964973231140  0.6184180205717  0.6376501988498 1.0
C      1  0.2976702429615  0.6129159366027  0.3563269330220 1.0
C      1  0.3215043033900  0.4215217434833  0.6400200473447 1.0
C      1  0.6801782858316  0.4175877118356  0.3569213668729 1.0
C      1  0.3004840134129  0.2979633895203  0.3507294185521 1.0
C      1  0.7000984731186  0.3003001893567  0.6485318010490 1.0
C      1  0.7233745882671  0.7010703567289  0.3700601929426 1.0
C      1  0.2813240118639  0.7007025995409  0.6391305453307 1.0
C      1  0.5284772392933  0.4153539852757  0.2234356710886 1.0
C      1  0.4742731761491  0.4175231886895  0.7750451897589 1.0
C      1  0.4748643275295  0.5917325400899  0.2385405326968 1.0
C      1  0.5283117936812  0.5930748160099  0.7599626465686 1.0
C      1  0.6992144286500  0.2340905538978  0.5091196484115 1.0
C      1  0.3027731926903  0.2348345030668  0.4915908075968 1.0
C      1  0.2948370979662  0.7728102963941  0.5042194994139 1.0
C      1  0.7077709068876  0.7801383463001  0.5015946373406 1.0
C      1  0.2816973929011  0.7605611407633  0.4140170936621 1.0
C      1  0.7173898417430  0.7643135003300  0.5922832360240 1.0
C      1  0.7103993529817  0.2623121697966  0.4178280729148 1.0
C      1  0.2910901771908  0.2640868844132  0.5825275457870 1.0
C      1  0.5639051186951  0.5671703572333  0.2217095474123 1.0
C      1  0.4387916031542  0.5693461170332  0.7766367185724 1.0
C      1  0.4402862909311  0.4421458488166  0.2349740918359 1.0
C      1  0.5621925584393  0.4438527470645  0.7625206689509 1.0
C      1  0.5959910847269  0.5303865934922  0.7427791847346 1.0
C      1  0.4056096009389  0.5285279202506  0.2533484046834 1.0
C      1  0.4010171076786  0.4813755996279  0.7718308242255 1.0
C      1  0.6019581703331  0.4792650193555  0.2265324684594 1.0
C      1  0.4423307773892  0.5412054311229  0.5762397336536 1.0
C      1  0.5555215676298  0.5333420979533  0.4116618325143 1.0
C      1  0.6212997397576  0.4919558118684  0.5865302343925 1.0
C      1  0.3758133451558  0.4887401248779  0.4078881643015 1.0
C      1  0.7641871893552  0.6722775086397  0.5970212925215 1.0
C      1  0.2352397992188  0.6647157977621  0.4085297572696 1.0
C      1  0.2606988195351  0.3589210320840  0.5842337674681 1.0
C      1  0.7407519527107  0.3570386942888  0.4143606794131 1.0
C      1  0.4368027032693  0.2069810745655  0.5815085580924 1.0
C      1  0.5649326958162  0.2049022748128  0.4201629412804 1.0
C      1  0.5610069048595  0.8183366783019  0.6105050971429 1.0
C      1  0.4483771543963  0.7737435411094  0.4126834349448 1.0
C      1  0.8086167821301  0.6531862655316  0.5150630968621 1.0
C      1  0.1977290850495  0.6439026362278  0.4926628064582 1.0
C      1  0.2603616666873  0.3871664062881  0.4932493185423 1.0
C      1  0.7391989634133  0.3870383478437  0.5048089236070 1.0
C      1  0.4672199676499  0.4832356621821  0.4213690739376 1.0
C      1  0.5300252228151  0.4861885324515  0.5719176097500 1.0
C      1  0.4992332981463  0.4246603958236  0.4974356817316 1.0
END
