TITL C-6660-8037-10 -5.806 3375.00 -1040.53512732 0 0 125 (C1) n - 1
REM
REM Run started: at 2020.12.18 02:18:12 in /gpfs/home/chem/mssmkc/CARBON/AIRSS/Generating-Clusters/Str-Search/Higher-Symm
REM VASP from code version vasp.5.4.4.18Apr17-6-g9f103f2a35 (build Oct 11 2019 16:45:47) gamma-only
REM
REM
REM
REM
REM ./C.cell (533062f00bc710175b3da973d35f2034)
REM AIRSS Version 0.9.1 bugfix July 2018 build 013d7b7c2542+ Fri, 06 Jul 2018 19:26:36 +0100
REM compiler GCC version 6.3.0
REM options -cpp -iprefix /gpfs/warwick/csc/orac/software/Core/GCCcore/6.3.0/bin/../lib/gcc/x86_64-pc-linux-gnu/6.3.0/ -mtune=generic -march=x86-64 -g -O0
REM seed 255313924 988328294 -1675453110 7577661 -1923271446 -268891384 1710750265 -1754450898 -1176490147 -312606677 -1204966657 348606109
REM
REM C.POTCAR (d86ddea03c3ceb6dc662c8ad6801f873)
REM 
CELL 1.54180   15.00000   15.00000   15.00000   90.00000   90.00000   90.00000
LATT -1
SFAC C  
C      1  0.8003343187923  0.3852171953808  0.5502651556286 1.0
C      1  0.8000902811517  0.4505161166653  0.3838941310520 1.0
C      1  0.7995597130374  0.6170744212237  0.4491940488370 1.0
C      1  0.7998188986416  0.5516378002484  0.6154938559766 1.0
C      1  0.8003090017702  0.3851238406220  0.4492660811353 1.0
C      1  0.8001244403577  0.4506563000620  0.6155562987627 1.0
C      1  0.7996088331138  0.6170819122660  0.5501549675630 1.0
C      1  0.7997696430844  0.5515548944707  0.3838941517674 1.0
C      1  0.2547383837731  0.3078968526674  0.4517788160575 1.0
C      1  0.2533837173418  0.5501931148028  0.3001049664848 1.0
C      1  0.2544342524994  0.6991601065745  0.5471800868849 1.0
C      1  0.2501310236885  0.4544466262686  0.7007450889033 1.0
C      1  0.2547293434477  0.3078478439874  0.5487792230284 1.0
C      1  0.2531991187811  0.5502459230450  0.7008678867104 1.0
C      1  0.2543138316681  0.6990795040990  0.4530707863663 1.0
C      1  0.2504069096764  0.4544385630564  0.3001268058309 1.0
C      1  0.5535629519357  0.6189505692114  0.7553788347288 1.0
C      1  0.5545845840284  0.2453161262653  0.6182211042584 1.0
C      1  0.5540802171870  0.3832106023119  0.2443842627658 1.0
C      1  0.5532152877796  0.7569339032883  0.3819396403918 1.0
C      1  0.5534303080800  0.6187068897118  0.2444160621161 1.0
C      1  0.5545833987742  0.2452265923403  0.3818748893608 1.0
C      1  0.5541633352329  0.3834661753018  0.7555917899806 1.0
C      1  0.5532434811507  0.7570737637140  0.6176790511051 1.0
C      1  0.5358595619560  0.3222375860870  0.4477968831305 1.0
C      1  0.5332178487607  0.5528914592249  0.3215583333686 1.0
C      1  0.5318426876670  0.6795220997259  0.5520316818933 1.0
C      1  0.5343233828082  0.4489214098029  0.6783131354777 1.0
C      1  0.5358336508107  0.3222663211328  0.5522481015842 1.0
C      1  0.5332371976966  0.5530710854963  0.6782752723939 1.0
C      1  0.5318666061028  0.6794430799311  0.4476642153468 1.0
C      1  0.5343214955871  0.4487492646302  0.3216173666352 1.0
C      1  0.4223061830317  0.4997643415064  0.9568209502385 1.0
C      1  0.4020707947691  0.1277093087664  0.5002431543578 1.0
C      1  0.4025922655790  0.5001932715382  0.1256549268982 1.0
C      1  0.4215541012284  0.9587872575216  0.4997501572450 1.0
C      1  0.4223047249672  0.4998602587244  0.0437437538060 1.0
C      1  0.4210289070574  0.0458175162990  0.4999879683505 1.0
C      1  0.4025297608826  0.4999695637663  0.8749378339876 1.0
C      1  0.4027029708460  0.8767505386071  0.4997769277996 1.0
C      1  0.4552446555305  0.5475482178732  0.6127195187555 1.0
C      1  0.4586449751367  0.3877428641110  0.5472910556692 1.0
C      1  0.4566345589141  0.4527181952711  0.3870850677053 1.0
C      1  0.4543844701826  0.6131695202849  0.4525012238907 1.0
C      1  0.4552814902286  0.5474295508114  0.3871697845678 1.0
C      1  0.4586733894848  0.3877069561269  0.4527197547371 1.0
C      1  0.4565841957051  0.4528121241515  0.6128909127215 1.0
C      1  0.4543868492879  0.6132153072948  0.5472965752424 1.0
C      1  0.6960158396192  0.4077898903969  0.7590360058829 1.0
C      1  0.6964749985543  0.2416088301575  0.4064840277652 1.0
C      1  0.6954578209523  0.5942367021001  0.2409467473715 1.0
C      1  0.6951339475627  0.7600285582288  0.5929242872856 1.0
C      1  0.6959202615102  0.4075400341517  0.2406242014997 1.0
C      1  0.6964612295296  0.2418361398887  0.5934705625699 1.0
C      1  0.6955652203068  0.5944138430529  0.7585496689638 1.0
C      1  0.6950964794987  0.7600740093952  0.4066053369861 1.0
C      1  0.6089122696355  0.4553522118879  0.6105455914957 1.0
C      1  0.6096736226196  0.3907145687039  0.4536824992541 1.0
C      1  0.6076141368193  0.5475833916632  0.3894817350665 1.0
C      1  0.6068123806031  0.6122583761072  0.5460381885170 1.0
C      1  0.6089450306613  0.4552463683547  0.3893558291653 1.0
C      1  0.6096637274404  0.3907399368359  0.5463027366337 1.0
C      1  0.6075988033510  0.5476836627829  0.6103377106964 1.0
C      1  0.6068413788560  0.6122130152010  0.4537304903833 1.0
C      1  0.3767216832012  0.7337776337356  0.3391178005569 1.0
C      1  0.3773283645967  0.6624615416822  0.7319475424445 1.0
C      1  0.3770071623942  0.2689183730850  0.6612392988357 1.0
C      1  0.3762532098871  0.3407705560523  0.2680416536364 1.0
C      1  0.3768526831502  0.7338798319976  0.6608411366430 1.0
C      1  0.3771892128072  0.6623949358717  0.2681243180943 1.0
C      1  0.3770135717713  0.2690001096975  0.3392667802484 1.0
C      1  0.3762240016323  0.3407281759512  0.7324218309769 1.0
C      1  0.3293415585259  0.2550449277238  0.5832735020109 1.0
C      1  0.3273096814247  0.4185608085159  0.2532810497432 1.0
C      1  0.3292836116330  0.7480568337598  0.4178618013726 1.0
C      1  0.3287866367961  0.5831662336126  0.7468855522025 1.0
C      1  0.3293465381848  0.2550545847751  0.4172203917280 1.0
C      1  0.3272017904624  0.4184828424367  0.7473193810217 1.0
C      1  0.3294512634735  0.7481628180873  0.5821341874537 1.0
C      1  0.3286468017068  0.5831068774632  0.2535595496939 1.0
C      1  0.6229557448131  0.1969447130257  0.4524793475516 1.0
C      1  0.6219088245247  0.5482756807652  0.1964112362010 1.0
C      1  0.6213002482358  0.8046612851152  0.5472933941808 1.0
C      1  0.6222776083847  0.4536420069527  0.8035341581104 1.0
C      1  0.6229777032344  0.1969937527131  0.5475826715772 1.0
C      1  0.6220913698808  0.5485401149533  0.8033110985896 1.0
C      1  0.6212667870480  0.8046504341905  0.4522602966769 1.0
C      1  0.6220984440609  0.4533616332762  0.1962452272176 1.0
C      1  0.4728840663783  0.6814329778402  0.7480930766921 1.0
C      1  0.4732829540950  0.2531984205029  0.6806414907830 1.0
C      1  0.4727946713810  0.3213683093447  0.2518586283222 1.0
C      1  0.4731251125422  0.7503304575199  0.3194225912497 1.0
C      1  0.4727569858476  0.6812706617980  0.2517180074769 1.0
C      1  0.4732218422469  0.2530779237534  0.3196412798092 1.0
C      1  0.4728690618127  0.3215750695063  0.7483304477235 1.0
C      1  0.4732063676687  0.7505431967154  0.6803795914057 1.0
C      1  0.7630169603684  0.4535817747923  0.7097111225106 1.0
C      1  0.7634135298510  0.2909416473029  0.4523788500810 1.0
C      1  0.7628163702790  0.5484810870993  0.2898219198507 1.0
C      1  0.7624298780025  0.7111041855616  0.5472861841604 1.0
C      1  0.7629738357907  0.4534139062406  0.2897693820732 1.0
C      1  0.7634009254355  0.2910648279186  0.5474539445680 1.0
C      1  0.7628537555146  0.5486376482320  0.7095805918371 1.0
C      1  0.7623981655950  0.7111423562563  0.4522149920528 1.0
C      1  0.1988664492473  0.3893121830550  0.4491515084687 1.0
C      1  0.2009765001338  0.5532153792051  0.3839470112874 1.0
C      1  0.2038606933723  0.6152453035747  0.5505878771847 1.0
C      1  0.1974300893439  0.4549107894149  0.6204493919999 1.0
C      1  0.1992408646449  0.3895578780887  0.5514218828859 1.0
C      1  0.2009078373521  0.5533964349558  0.6169526538266 1.0
C      1  0.2037756343668  0.6151223463950  0.4501986839249 1.0
C      1  0.1975956921382  0.4547889368387  0.3803178803969 1.0
C      1  0.6391520153037  0.7307394471614  0.3334703727524 1.0
C      1  0.6393676805867  0.6675158585151  0.7294116117756 1.0
C      1  0.6403855190216  0.2710329966958  0.6667854019796 1.0
C      1  0.6399628815954  0.3343008262957  0.2699536944799 1.0
C      1  0.6392049484879  0.7308429265281  0.6660953648119 1.0
C      1  0.6392851046462  0.6673239363131  0.2702244934527 1.0
C      1  0.6403640612748  0.2708197045215  0.3331733645384 1.0
C      1  0.6399896468627  0.3345416641575  0.7299485089129 1.0
C      1  0.3607991238091  0.2075579652612  0.5002235259063 1.0
C      1  0.3627553877215  0.7964317957268  0.4999182246627 1.0
C      1  0.3615289718473  0.5004286807146  0.7953697525700 1.0
C      1  0.3614521431914  0.5004736259290  0.2051071642374 1.0
C      1  0.2924345236799  0.4002617896496  0.5000851615451 1.0
END
