TITL C-66222-8113-13 -1.338 3375.00 -206.93854589 0 0 27 (C1) n - 1
REM
REM Run started: at 2020.12.12 12:17:35 in /rds/project/t2_vol4/rds-t2-cs072/BORA/CARBON/AIRSS/Generating-Clusters/Str-Search/Higher-Symm/C10-100
REM VASP from code version vasp.5.4.4.18Apr17-6-g9f103f2a35 (build Oct 11 2019 16:45:47) gamma-only
REM
REM
REM
REM
REM ./C.cell (f39ce9773e2efe3fa5bbdf770a4156b8)
REM AIRSS Version 0.9.1 bugfix July 2018 build 013d7b7c2542+ Fri, 06 Jul 2018 19:26:36 +0100
REM compiler GCC version 4.8.5 20150623 (Red Hat 4.8.5-39)
REM options -cpp -mtune=generic -march=x86-64 -g -O0
REM seed -868237844 -203815118 365058086 940899242 -753215839 -1358281114 733804431 339693849 1383153517 -1780817565 -896712689 2001310899
REM
REM C.POTCAR (d86ddea03c3ceb6dc662c8ad6801f873)
REM 
CELL 1.54180   15.00000   15.00000   15.00000   90.00000   90.00000   90.00000
LATT -1
SFAC C  
C      1  0.6928307879760  0.3880604677662  0.3940025304409 1.0
C      1  0.4813590452076  0.4249960746707  0.4396706251094 1.0
C      1  0.6717934785550  0.5819871211895  0.4803828972397 1.0
C      1  0.4436026377412  0.6042302447601  0.5996980005803 1.0
C      1  0.3963539257902  0.3865363814571  0.4541255775812 1.0
C      1  0.4508968613989  0.6715402708138  0.4785566995373 1.0
C      1  0.5477833776280  0.4437749869385  0.5030437965352 1.0
C      1  0.3656926200727  0.4717556004023  0.6740307876684 1.0
C      1  0.6967713053305  0.3665337642477  0.4764258975017 1.0
C      1  0.5165065225313  0.6417274073295  0.5434971414424 1.0
C      1  0.5663176141054  0.4127110013009  0.5984394703002 1.0
C      1  0.4440225087444  0.5283546479426  0.6542958904950 1.0
C      1  0.5274827078921  0.4716453013711  0.6671070553615 1.0
C      1  0.3304846181378  0.5266307914006  0.4106976429336 1.0
C      1  0.6402700917074  0.4242316812520  0.3322715395209 1.0
C      1  0.5990632812865  0.6110919915982  0.5207493268451 1.0
C      1  0.4107835440473  0.6438474228434  0.3964969129021 1.0
C      1  0.4153287449623  0.5525728156702  0.3615139917586 1.0
C      1  0.3759537068582  0.6428672077043  0.5362542825744 1.0
C      1  0.3347135201063  0.6104127374105  0.4561109238428 1.0
C      1  0.4870339205816  0.4879696609509  0.3617539093085 1.0
C      1  0.5080556433873  0.3762992868955  0.6744325969665 1.0
C      1  0.3321939594756  0.4407080641673  0.4424534308375 1.0
C      1  0.5697059849703  0.4707346387750  0.3234665878141 1.0
C      1  0.6246530853415  0.5027076971009  0.5052988016390 1.0
C      1  0.6514952940359  0.4142443716112  0.5452508587204 1.0
C      1  0.4188513121287  0.4018281624299  0.6699729245432 1.0
END
