TITL C-66178-373-25 -2.888 3375.00 -486.75796831 0 0 60 (C1) n - 1
REM
REM Run started: at 2020.12.15 12:10:10 in /rds/project/t2_vol4/rds-t2-cs072/BORA/CARBON/AIRSS/Generating-Clusters/Str-Search/Higher-Symm/Only-C60
REM VASP from code version vasp.5.4.4.18Apr17-6-g9f103f2a35 (build Oct 11 2019 16:45:47) gamma-only
REM
REM
REM
REM
REM ./C.cell (5f7b7a0d59291d2373303da1f58b8d66)
REM AIRSS Version 0.9.1 bugfix July 2018 build 013d7b7c2542+ Fri, 06 Jul 2018 19:26:36 +0100
REM compiler GCC version 4.8.5 20150623 (Red Hat 4.8.5-39)
REM options -cpp -mtune=generic -march=x86-64 -g -O0
REM seed 32528327 -1814904077 2917354 1678862982 1046142775 283295803 507878590 -1828705256 -490052871 -1612705345 -922194077 162597422
REM
REM C.POTCAR (d86ddea03c3ceb6dc662c8ad6801f873)
REM 
CELL 1.54180   15.00000   15.00000   15.00000   90.00000   90.00000   90.00000
LATT -1
SFAC C  
C      1  0.4896001357758  0.7328252605232  0.5905026227398 1.0
C      1  0.5721283705824  0.7325900647538  0.5393872212621 1.0
C      1  0.5567039648271  0.7450733195851  0.4474045718567 1.0
C      1  0.4531520975996  0.7289442652272  0.4348241080898 1.0
C      1  0.4163994964851  0.7409103963366  0.5311936198732 1.0
C      1  0.6144836645860  0.4121815093413  0.3092698109842 1.0
C      1  0.3618220924859  0.4382260513107  0.3471468299717 1.0
C      1  0.3051408211830  0.4298693091658  0.5949287328729 1.0
C      1  0.5263515783267  0.4375288156801  0.7079204548575 1.0
C      1  0.7110417725942  0.4286617710229  0.5258179616127 1.0
C      1  0.3342957811844  0.5299149196443  0.3313390159591 1.0
C      1  0.2892405339261  0.5216391819287  0.6164633176711 1.0
C      1  0.5351638935806  0.5317865524440  0.7287082410667 1.0
C      1  0.7318596522314  0.5225348559724  0.5111627248925 1.0
C      1  0.6284661519736  0.5037853074684  0.3000514328186 1.0
C      1  0.6184814435278  0.5656715027621  0.7111790315055 1.0
C      1  0.7388669250498  0.5569995518217  0.4240751514413 1.0
C      1  0.5461793643630  0.5545888190823  0.3128955663666 1.0
C      1  0.2694284302324  0.5613127713130  0.3910621178712 1.0
C      1  0.3073532707277  0.5486301890213  0.7011783461979 1.0
C      1  0.7024561077496  0.3628327806442  0.4546389324580 1.0
C      1  0.5296972829928  0.3680186945984  0.3017024347791 1.0
C      1  0.3236620357758  0.3832001301037  0.4187282886569 1.0
C      1  0.3631932009452  0.3755338830734  0.6495554315002 1.0
C      1  0.5975382138106  0.3847671210133  0.6678496356993 1.0
C      1  0.4746232657745  0.2932458480694  0.6512060312317 1.0
C      1  0.6344069100717  0.2916826607628  0.5710215085013 1.0
C      1  0.6120700146600  0.2742899415838  0.3944340593981 1.0
C      1  0.4355852391143  0.2917146036837  0.3654159491040 1.0
C      1  0.3490135263983  0.2923106151259  0.5222071801342 1.0
C      1  0.3015670851141  0.3808732104972  0.5132414484019 1.0
C      1  0.4491724855725  0.3808784252027  0.6936134890181 1.0
C      1  0.6672879879916  0.3830050934446  0.5997467967369 1.0
C      1  0.6651771089127  0.3543816169823  0.3673946912770 1.0
C      1  0.4355222631893  0.3796361006677  0.3166980330981 1.0
C      1  0.5306195587471  0.2806333791059  0.3519746683866 1.0
C      1  0.3688931617989  0.2951381264075  0.4276913744399 1.0
C      1  0.3884949020505  0.2905081430640  0.6050947038236 1.0
C      1  0.5646665062821  0.2952853150041  0.6377120034628 1.0
C      1  0.6541590997839  0.2796059378277  0.4832415230919 1.0
C      1  0.4460394932181  0.6249260671482  0.4306735441741 1.0
C      1  0.4041035513336  0.5824791583097  0.5114234684492 1.0
C      1  0.4822633348878  0.5753903329786  0.5663222090680 1.0
C      1  0.5578419662767  0.5744634924641  0.5133275857116 1.0
C      1  0.5394829818318  0.5899706689009  0.4133816110376 1.0
C      1  0.7022009582198  0.5489102397476  0.3366685999963 1.0
C      1  0.4756877019816  0.5757182964199  0.2631186610828 1.0
C      1  0.2496295999671  0.5926261114743  0.4650930159698 1.0
C      1  0.3736623903202  0.5730190755017  0.7477066537763 1.0
C      1  0.6837045138660  0.5825565135081  0.6611697332281 1.0
C      1  0.6996083800492  0.5926231857835  0.5715473304842 1.0
C      1  0.6995014078396  0.6321566512857  0.3797889777709 1.0
C      1  0.3960198650007  0.6023571036611  0.3009108693591 1.0
C      1  0.3074664330756  0.5909222048029  0.5451928235984 1.0
C      1  0.4583440402078  0.5945145577934  0.7227033858014 1.0
C      1  0.3686787299134  0.6647820191590  0.5744855417501 1.0
C      1  0.4552145487868  0.6474106049404  0.6355224287117 1.0
C      1  0.6279220563117  0.6487105791919  0.5255103818629 1.0
C      1  0.6156979415538  0.6658365772669  0.4228616829228 1.0
C      1  0.4029643073806  0.6794100183949  0.3629124321339 1.0
END
