TITL C-66338-4690-4 -6.031 3375.00 -1069.77958164 0 0 126 (C1) n - 1
REM
REM Run started: at 2020.12.07 02:48:36 in /rds/project/t2_vol4/rds-t2-cs072/BORA/CARBON/AIRSS/Generating-Clusters/Str-Search/Higher-Symm/C100-200
REM VASP from code version vasp.5.4.4.18Apr17-6-g9f103f2a35 (build Oct 11 2019 16:45:47) gamma-only
REM
REM
REM
REM
REM ./C.cell (533062f00bc710175b3da973d35f2034)
REM AIRSS Version 0.9.1 bugfix July 2018 build 013d7b7c2542+ Fri, 06 Jul 2018 19:26:36 +0100
REM compiler GCC version 4.8.5 20150623 (Red Hat 4.8.5-39)
REM options -cpp -mtune=generic -march=x86-64 -g -O0
REM seed 1767601533 -1724414931 -1749290821 -1201133160 624775308 -390968560 646234977 -1266849411 1930386773 -47144536 1937170868 -2096950383
REM
REM C.POTCAR (d86ddea03c3ceb6dc662c8ad6801f873)
REM 
CELL 1.54180   15.00000   15.00000   15.00000   90.00000   90.00000   90.00000
LATT -1
SFAC C  
C      1  0.4074298609775  0.4704204434592  0.6848441518155 1.0
C      1  0.6189781625350  0.5574744494214  0.6519184975640 1.0
C      1  0.6910886675894  0.4792592002472  0.4979192609512 1.0
C      1  0.5772270827335  0.5048442719601  0.3333829781183 1.0
C      1  0.4910515099107  0.5481481652679  0.3145168857737 1.0
C      1  0.3005139402732  0.4979623860670  0.3981371350577 1.0
C      1  0.3313071766978  0.4802455451635  0.6273715631959 1.0
C      1  0.7731474235387  0.3328846463610  0.4725913719435 1.0
C      1  0.6849694965286  0.4141630787218  0.2076679518255 1.0
C      1  0.3853649536425  0.3877988340315  0.1821216215218 1.0
C      1  0.2191581602050  0.3481085997153  0.4440003702687 1.0
C      1  0.2122141557552  0.4219605853823  0.7169640669949 1.0
C      1  0.4697052198662  0.3477387928421  0.7735906084159 1.0
C      1  0.7153782670412  0.3934246419213  0.6840143753109 1.0
C      1  0.2671291300824  0.3858053320024  0.2848601164039 1.0
C      1  0.2086959154649  0.3731375142891  0.5344097946258 1.0
C      1  0.3260234244673  0.4037282208354  0.8110679200160 1.0
C      1  0.5618758802197  0.3497853656299  0.7785549171678 1.0
C      1  0.7943724165039  0.4018621484583  0.6257404120286 1.0
C      1  0.7886594689948  0.3399384933997  0.3791126296692 1.0
C      1  0.5963943975589  0.3724396512776  0.1853987645084 1.0
C      1  0.3226321745120  0.5275210091454  0.2031265948919 1.0
C      1  0.1901323981941  0.5393654773417  0.4990048524910 1.0
C      1  0.2664986579373  0.5622882310545  0.7703694699858 1.0
C      1  0.5539977787262  0.5149458894549  0.8209720480307 1.0
C      1  0.7901773195277  0.5555227559589  0.6549536203592 1.0
C      1  0.7871447922611  0.5067647603014  0.3570540713070 1.0
C      1  0.5901624558466  0.5274076506428  0.1522854979745 1.0
C      1  0.2442895613626  0.6466010519952  0.6239646721054 1.0
C      1  0.4213151777686  0.5944990277877  0.8308116370645 1.0
C      1  0.6394097598099  0.6228531094290  0.7267825948310 1.0
C      1  0.7829059679893  0.6047426403141  0.4978581164873 1.0
C      1  0.7169918859717  0.5900853895354  0.2256922651839 1.0
C      1  0.4705979314225  0.6073043484316  0.2301373299732 1.0
C      1  0.2498822741947  0.5734997561459  0.3484735718824 1.0
C      1  0.2456880551186  0.3353123730791  0.6950767138309 1.0
C      1  0.4028217859668  0.2885887186201  0.7337209455677 1.0
C      1  0.6995185067122  0.2975760074865  0.6841960043915 1.0
C      1  0.7797909304874  0.2652426055900  0.5469778377442 1.0
C      1  0.7567994643410  0.3675918219861  0.2482590492761 1.0
C      1  0.4007349957030  0.3117090615056  0.2380264919474 1.0
C      1  0.2476606957069  0.2618970602923  0.4287915038167 1.0
C      1  0.4507769801989  0.7263123872048  0.7505168422611 1.0
C      1  0.6601974497565  0.7071791944158  0.6777986575518 1.0
C      1  0.7366348905907  0.6765920105188  0.4507289370614 1.0
C      1  0.6473742786667  0.7008535224757  0.3078159337714 1.0
C      1  0.4254479463430  0.6890102218107  0.2763096886019 1.0
C      1  0.2790922058803  0.6625013385761  0.3770225557958 1.0
C      1  0.3034316210340  0.7173574972537  0.6564181127550 1.0
C      1  0.5980410105118  0.4970591178039  0.5052059424710 1.0
C      1  0.5500262964706  0.4999953440645  0.4271291131673 1.0
C      1  0.4589210331830  0.5250399921936  0.4030243141169 1.0
C      1  0.3794337809776  0.5094446472183  0.4551712511246 1.0
C      1  0.3877686144154  0.4962693462651  0.5477894131935 1.0
C      1  0.4665558840007  0.4969943974770  0.6098284289951 1.0
C      1  0.5576044275163  0.5155975277289  0.5944333630874 1.0
C      1  0.3966897688624  0.8103576706730  0.4725859644907 1.0
C      1  0.4096331370810  0.8282314143318  0.5682078705332 1.0
C      1  0.4858728494330  0.8318095235835  0.6166193105929 1.0
C      1  0.5786960309279  0.8190648181665  0.5887618223448 1.0
C      1  0.6163479552981  0.7920159828092  0.5064797972521 1.0
C      1  0.5623723198853  0.7929247844464  0.4269987598349 1.0
C      1  0.4644927837346  0.7963377462107  0.4118371797401 1.0
C      1  0.7621915357160  0.5902883123125  0.3102025917353 1.0
C      1  0.5631762379739  0.6116535335411  0.1860951706308 1.0
C      1  0.2891803580640  0.5912432048350  0.2605265570226 1.0
C      1  0.2247312289234  0.6282838929639  0.5291172288848 1.0
C      1  0.3382411671573  0.6216150496182  0.7904461076629 1.0
C      1  0.5724262529029  0.6083045964350  0.7968287986510 1.0
C      1  0.7782039569079  0.6242133884102  0.5901335758389 1.0
C      1  0.7175398819858  0.6987220422115  0.6022975354469 1.0
C      1  0.7226363372424  0.6653048418803  0.3587153003307 1.0
C      1  0.6413096959705  0.6506099834465  0.2271208265867 1.0
C      1  0.3323959835801  0.6696316072234  0.2965660608805 1.0
C      1  0.2662089092289  0.6898452856029  0.4648852885337 1.0
C      1  0.3554339162296  0.6997176840547  0.7358926941827 1.0
C      1  0.4906492531935  0.6560696805700  0.8040261636738 1.0
C      1  0.2261985869354  0.4858855993269  0.6443632171368 1.0
C      1  0.4181546388629  0.4336692767545  0.7876248847086 1.0
C      1  0.6818423941391  0.4552476685545  0.7411225752002 1.0
C      1  0.7647965318720  0.4265836021485  0.5195674307763 1.0
C      1  0.6469556908948  0.4781689967685  0.2833214154606 1.0
C      1  0.4490834267814  0.4533386543162  0.1561468289204 1.0
C      1  0.2363790752445  0.4209927716812  0.3755059844538 1.0
C      1  0.4127546610182  0.5404406259237  0.1774873322920 1.0
C      1  0.1982154231822  0.5131341668553  0.4041987355367 1.0
C      1  0.2301141117057  0.5758360266927  0.6833926195220 1.0
C      1  0.4595496352605  0.5088556061930  0.8352608576524 1.0
C      1  0.7005526895255  0.5446336449326  0.7040993124929 1.0
C      1  0.7779274375367  0.5134223955258  0.4576181963117 1.0
C      1  0.6789222494470  0.5093835637673  0.1868274728255 1.0
C      1  0.6152387070490  0.2513735290244  0.6488425639223 1.0
C      1  0.7057338107511  0.2598865247742  0.4956525138899 1.0
C      1  0.6352710663472  0.2767139555760  0.3168211194383 1.0
C      1  0.4829417717035  0.2801457554857  0.2738348259456 1.0
C      1  0.3240074162918  0.2597857871331  0.3746856764369 1.0
C      1  0.3345688361391  0.2614001153799  0.5817775959170 1.0
C      1  0.4059361799352  0.2491307288918  0.6485425737291 1.0
C      1  0.2575832760373  0.4657660606556  0.7895168783049 1.0
C      1  0.6027058588398  0.4388875625850  0.7926139870901 1.0
C      1  0.8440179985825  0.4827221869989  0.6449561956854 1.0
C      1  0.8012826541217  0.4170846373518  0.3258865200251 1.0
C      1  0.5418259032557  0.4438917982415  0.1499074233806 1.0
C      1  0.3047151553057  0.4331548546624  0.2115569858123 1.0
C      1  0.1916458905103  0.4648533602017  0.5568315937921 1.0
C      1  0.5969100191716  0.7752458583934  0.6726909104131 1.0
C      1  0.6934328795126  0.7336796384068  0.5153737750670 1.0
C      1  0.5754473375981  0.7490741058378  0.3436217903077 1.0
C      1  0.4781722993195  0.7463615910450  0.3262543632030 1.0
C      1  0.3116788398825  0.7653232236320  0.4978928463604 1.0
C      1  0.3276777256096  0.7800413827781  0.5896170436848 1.0
C      1  0.5030611977927  0.7838530518493  0.7002709472716 1.0
C      1  0.7946752484278  0.2963150997096  0.6342781225116 1.0
C      1  0.7272027084643  0.3019800660231  0.3107596063355 1.0
C      1  0.5729475502664  0.3027622725432  0.2452827214516 1.0
C      1  0.3221815672905  0.3064584367755  0.2939044822481 1.0
C      1  0.2557800308243  0.3143088860839  0.6011733695689 1.0
C      1  0.3171227747470  0.3232891186395  0.7586074457081 1.0
C      1  0.6154256544476  0.2808148065745  0.7347879112118 1.0
C      1  0.4079427629010  0.2398386757436  0.4177570600903 1.0
C      1  0.4027243689698  0.2382722792744  0.5110507350878 1.0
C      1  0.4714969319624  0.2318545455619  0.5776813806624 1.0
C      1  0.5654557495568  0.2353195851837  0.5693727704632 1.0
C      1  0.6139799109977  0.2432009054864  0.4841511191059 1.0
C      1  0.5799727006840  0.2505748520479  0.3940475483252 1.0
C      1  0.4882167043070  0.2481407611220  0.3652031931383 1.0
END
