TITL C-6603-1109-155 -2.425 3375.00 -388.73687967 0 0 48 (C6) n - 1
REM
REM Run started: at 2020.12.18 22:31:54 in /gpfs/home/chem/mssmkc/CARBON/AIRSS/Generating-Clusters/Str-Search/Higher-Symm/C4-100
REM VASP from code version vasp.5.4.4.18Apr17-6-g9f103f2a35 (build Oct 11 2019 16:45:47) gamma-only
REM
REM
REM
REM
REM ./C.cell (6bd13a13d554368a30d355f37ece5b26)
REM AIRSS Version 0.9.1 bugfix July 2018 build 013d7b7c2542+ Fri, 06 Jul 2018 19:26:36 +0100
REM compiler GCC version 6.3.0
REM options -cpp -iprefix /gpfs/warwick/csc/orac/software/Core/GCCcore/6.3.0/bin/../lib/gcc/x86_64-pc-linux-gnu/6.3.0/ -mtune=generic -march=x86-64 -g -O0
REM seed 964273587 -43511464 1344815650 391615187 387082448 1241942469 314664019 1902343931 -1152289026 1387803440 166442407 -622089976
REM
REM C.POTCAR (d86ddea03c3ceb6dc662c8ad6801f873)
REM 
CELL 1.54180   15.00000   15.00000   15.00000   90.00000   90.00000   90.00000
LATT -1
SFAC C  
C      1  0.4708946481890  0.6443517108160  0.6552842213754 1.0
C      1  0.6200910112415  0.6444041745939  0.6030911966748 1.0
C      1  0.6490074794246  0.6443463979971  0.4477588182724 1.0
C      1  0.5291026485937  0.6443329305869  0.3447224560243 1.0
C      1  0.3799053578529  0.6444293734006  0.3969072478809 1.0
C      1  0.3509959528629  0.6443216730688  0.5522414775523 1.0
C      1  0.4725391651256  0.4824747589056  0.4146903298635 1.0
C      1  0.4122617972699  0.4824379378545  0.4810927217440 1.0
C      1  0.4397541268526  0.4824634616853  0.5664037266632 1.0
C      1  0.5274601509834  0.4824753946272  0.5853093521550 1.0
C      1  0.5877373486441  0.4824374457692  0.5189056112418 1.0
C      1  0.5602445887506  0.4824660900392  0.4335963346187 1.0
C      1  0.4375724400548  0.3403691337717  0.3302835079223 1.0
C      1  0.3220615748683  0.3406350008803  0.4691346434878 1.0
C      1  0.3845214341978  0.3406828292415  0.6392454928056 1.0
C      1  0.5622748894889  0.3403692059733  0.6697694200847 1.0
C      1  0.6779643897228  0.3406363184794  0.5306909881565 1.0
C      1  0.6156186776462  0.3406858204170  0.3608661712092 1.0
C      1  0.5170833637651  0.7195761848051  0.4074573873318 1.0
C      1  0.4282843087014  0.7196740615170  0.4387922684875 1.0
C      1  0.4112916132552  0.7196259517005  0.5314037854119 1.0
C      1  0.4829153539161  0.7195793720153  0.5925459165426 1.0
C      1  0.5717144506212  0.7196676237538  0.5612094533426 1.0
C      1  0.5887081039246  0.7196321473724  0.4685989235071 1.0
C      1  0.4668961492022  0.2922853583520  0.4092929500541 1.0
C      1  0.4049023694694  0.2923876146026  0.4834505794540 1.0
C      1  0.4379439626428  0.2923676361567  0.5742465567149 1.0
C      1  0.5331043281832  0.2922850581376  0.5907058840082 1.0
C      1  0.5950987841561  0.2923885250638  0.5165470606120 1.0
C      1  0.5620566500636  0.2923679860077  0.4257544001242 1.0
C      1  0.6423173493186  0.4162447962400  0.3330867263469 1.0
C      1  0.4266025577019  0.4160934421407  0.2936764867254 1.0
C      1  0.2842124035549  0.4159937049143  0.4595925671229 1.0
C      1  0.3576763315843  0.4162378921684  0.6669099647024 1.0
C      1  0.5734059119949  0.4160952521664  0.7063265091727 1.0
C      1  0.7157874679083  0.4159907164718  0.5404140572350 1.0
C      1  0.6201606148275  0.6018462823231  0.3670369621932 1.0
C      1  0.4447276625527  0.6018114024040  0.3293229224048 1.0
C      1  0.3248135287482  0.6017056197967  0.4624148506635 1.0
C      1  0.3798508181989  0.6018455837416  0.6329779449235 1.0
C      1  0.5552527388369  0.6018047098826  0.6706836578686 1.0
C      1  0.6751928440384  0.6017086427118  0.5375669104564 1.0
C      1  0.3757555123603  0.5028427323700  0.6390054759883 1.0
C      1  0.5584750831165  0.5027706025944  0.6769899163966 1.0
C      1  0.6826405782376  0.5026180587863  0.5381328063849 1.0
C      1  0.6243513007410  0.5028451827767  0.3610913527462 1.0
C      1  0.4413802308722  0.5027712864501  0.3230583088449 1.0
C      1  0.3173899457364  0.5026169144690  0.4617136965005 1.0
END
