TITL C-6662-7152-44 -5.304 3375.00 -911.96641947 0 0 111 (C1) n - 1
REM
REM Run started: at 2020.12.19 03:26:08 in /gpfs/home/chem/mssmkc/CARBON/AIRSS/Generating-Clusters/Str-Search/Higher-Symm
REM VASP from code version vasp.5.4.4.18Apr17-6-g9f103f2a35 (build Oct 11 2019 16:45:47) gamma-only
REM
REM
REM
REM
REM ./C.cell (533062f00bc710175b3da973d35f2034)
REM AIRSS Version 0.9.1 bugfix July 2018 build 013d7b7c2542+ Fri, 06 Jul 2018 19:26:36 +0100
REM compiler GCC version 6.3.0
REM options -cpp -iprefix /gpfs/warwick/csc/orac/software/Core/GCCcore/6.3.0/bin/../lib/gcc/x86_64-pc-linux-gnu/6.3.0/ -mtune=generic -march=x86-64 -g -O0
REM seed 609383877 1722773320 463173839 1503482957 -1041871574 -1897623330 -708276130 52623377 -2100066839 1729995595 -686335829 547987826
REM
REM C.POTCAR (d86ddea03c3ceb6dc662c8ad6801f873)
REM 
CELL 1.54180   15.00000   15.00000   15.00000   90.00000   90.00000   90.00000
LATT -1
SFAC C  
C      1  0.5589287699636  0.4070576494477  0.5263661991232 1.0
C      1  0.5573233383299  0.5236396465818  0.4098180343961 1.0
C      1  0.5548605597754  0.5665404407097  0.5683082337013 1.0
C      1  0.4107695980441  0.4533573892222  0.4571545955607 1.0
C      1  0.4053121774755  0.5500841073136  0.4853764852539 1.0
C      1  0.4037768286240  0.4772930073989  0.5569748019726 1.0
C      1  0.7719964684805  0.5181969206184  0.6493566158721 1.0
C      1  0.7718502016149  0.3614161105022  0.4415333475827 1.0
C      1  0.7703507852936  0.6212474747917  0.4101236749495 1.0
C      1  0.3825658675455  0.3457737478459  0.2471584384527 1.0
C      1  0.3858096938627  0.7959516970382  0.4885563442831 1.0
C      1  0.3858493493035  0.3611664228746  0.7667017635132 1.0
C      1  0.2989735259489  0.7086075545726  0.3876557188624 1.0
C      1  0.2981597745790  0.4919664850703  0.7424361345375 1.0
C      1  0.3015948719227  0.3273714081939  0.3820569310044 1.0
C      1  0.4227581600815  0.5202450476999  0.1774686257593 1.0
C      1  0.4254224858656  0.7655118814029  0.6770448107787 1.0
C      1  0.4269802297814  0.2205946569893  0.6404645615269 1.0
C      1  0.4615300955737  0.2725602615594  0.3660653126827 1.0
C      1  0.4577398199787  0.7316130717477  0.3639964749764 1.0
C      1  0.4588077998051  0.5013468350472  0.7716649555493 1.0
C      1  0.6439055514804  0.3865676390253  0.2366971324684 1.0
C      1  0.6433595286087  0.7865656578181  0.5339293092972 1.0
C      1  0.6438119466359  0.3284384829681  0.7313221735528 1.0
C      1  0.6868731671621  0.4748173920014  0.2506759201489 1.0
C      1  0.6854968666739  0.7303174713058  0.6035607267945 1.0
C      1  0.6865689093408  0.2956518517486  0.6480279874257 1.0
C      1  0.2773180759550  0.2931568555822  0.4763293301745 1.0
C      1  0.2895140995310  0.6330116455449  0.3227129913265 1.0
C      1  0.2893885019742  0.5820579134033  0.7026524154363 1.0
C      1  0.5066723278594  0.4306521152025  0.4336276165307 1.0
C      1  0.4999526136371  0.5912188579950  0.4754229100326 1.0
C      1  0.5004444094543  0.4723665392827  0.5959819473677 1.0
C      1  0.4940186283037  0.6600268691066  0.7915042757391 1.0
C      1  0.4942785511751  0.1722420772715  0.4902695625639 1.0
C      1  0.4934531007943  0.6702075530723  0.2164910383525 1.0
C      1  0.3341289815983  0.6639788938200  0.7103187534474 1.0
C      1  0.3367624372699  0.2478494334937  0.5372164784318 1.0
C      1  0.3297932512527  0.6007310055492  0.2433232988352 1.0
C      1  0.3771930595071  0.2966957545537  0.3267671564979 1.0
C      1  0.3732561830518  0.7644027049680  0.3980131793803 1.0
C      1  0.3741098553707  0.4560864594653  0.7829560703274 1.0
C      1  0.6528139476498  0.5406949279124  0.5429510081738 1.0
C      1  0.6547216563272  0.4446771836785  0.5159544399791 1.0
C      1  0.6540050477139  0.5160797745757  0.4465133888994 1.0
C      1  0.5105298957718  0.4818590836104  0.6967073863699 1.0
C      1  0.5176165540848  0.3425603667280  0.3875712792055 1.0
C      1  0.5087801010814  0.6755309223950  0.4183464452753 1.0
C      1  0.5697181042293  0.6818131684170  0.7360786279403 1.0
C      1  0.5719435125207  0.2025674048056  0.5384006724856 1.0
C      1  0.5688339917992  0.6114104679681  0.2257296267204 1.0
C      1  0.5572828648598  0.2965182900249  0.7490095727765 1.0
C      1  0.5565273421706  0.3891000430757  0.2001225031882 1.0
C      1  0.5563014234395  0.8175074196123  0.5538067288119 1.0
C      1  0.6319112631744  0.6919678094042  0.6747570061028 1.0
C      1  0.6334483985103  0.2512378879979  0.5790753475324 1.0
C      1  0.6325911152564  0.5550297266851  0.2478360352016 1.0
C      1  0.2175352677773  0.3411888427367  0.5303825445053 1.0
C      1  0.2695279679406  0.5609211715583  0.3818129098078 1.0
C      1  0.2647239050336  0.5621331551724  0.6109886565246 1.0
C      1  0.5873606952621  0.5354237013137  0.8467666134328 1.0
C      1  0.5859904681264  0.1837842124822  0.3532147618796 1.0
C      1  0.5866292799631  0.7804401825804  0.2974546185839 1.0
C      1  0.3084474803926  0.4713588828619  0.5952755460151 1.0
C      1  0.3287759179336  0.4182961107074  0.4181579847873 1.0
C      1  0.3133139201116  0.5870249975689  0.4665286141362 1.0
C      1  0.5871720506840  0.5838845123721  0.3305597818122 1.0
C      1  0.5868614253058  0.6052400250986  0.6599019420649 1.0
C      1  0.5917923720574  0.3092857246634  0.5117046423188 1.0
C      1  0.7396385076934  0.3855919819920  0.5206971155010 1.0
C      1  0.7381001955610  0.5405516221210  0.3919060286275 1.0
C      1  0.7378846924022  0.5756554757936  0.5908827904959 1.0
C      1  0.6433383955781  0.2521989469992  0.3480657519656 1.0
C      1  0.6404943972056  0.7531576283677  0.3632059107631 1.0
C      1  0.6418096650179  0.4933005860889  0.7900338553618 1.0
C      1  0.2518382539824  0.3958005833216  0.3164568507369 1.0
C      1  0.2764522270630  0.6858431131118  0.4876767806326 1.0
C      1  0.2711772889666  0.4167379684145  0.6769016714218 1.0
C      1  0.7459186506000  0.6706780383637  0.5643273694464 1.0
C      1  0.7468627539130  0.3596988593287  0.6160624629449 1.0
C      1  0.7467946366519  0.4703793139155  0.3222753116709 1.0
C      1  0.6868919525764  0.4149490991716  0.7523801111342 1.0
C      1  0.6884528045794  0.3243373286826  0.2985960123089 1.0
C      1  0.6870550452534  0.7630106808510  0.4491099362914 1.0
C      1  0.5026593861290  0.1838123711069  0.3936189805525 1.0
C      1  0.5029842150158  0.7484904029990  0.2746794758301 1.0
C      1  0.5033115493868  0.5708359672741  0.8312005977284 1.0
C      1  0.2461689700192  0.6048744075313  0.5336058096227 1.0
C      1  0.2300815157627  0.4066346287519  0.5877323350919 1.0
C      1  0.2625107118280  0.4703189908596  0.3781795407915 1.0
C      1  0.7488188844401  0.3784017051473  0.3538551493739 1.0
C      1  0.7474596721356  0.6886222270630  0.4687492468129 1.0
C      1  0.7482139318878  0.4343872032723  0.6785545609394 1.0
C      1  0.3439294291445  0.7337651814377  0.6371640712639 1.0
C      1  0.3438919940999  0.2679474736112  0.6368429340600 1.0
C      1  0.3361615175186  0.5005262843807  0.2135656235160 1.0
C      1  0.3240016251469  0.3357068401534  0.6977456643980 1.0
C      1  0.3106857246865  0.4133147704889  0.2416135247494 1.0
C      1  0.3271667206126  0.7461869660322  0.5459828994265 1.0
C      1  0.5952253521155  0.6671220504085  0.3746187382940 1.0
C      1  0.5968211924472  0.5249020533521  0.7093391695399 1.0
C      1  0.6016040882669  0.3058629335669  0.4183737988482 1.0
C      1  0.4653020618478  0.3111784460202  0.7709953226406 1.0
C      1  0.4647781905935  0.3657444631134  0.2025180728059 1.0
C      1  0.4646958796323  0.8268822957368  0.5299430396708 1.0
C      1  0.4857093884541  0.8093655814270  0.6195473815811 1.0
C      1  0.4865289024765  0.2445416034314  0.7083127573967 1.0
C      1  0.4856835943764  0.4499683297764  0.1703712695120 1.0
C      1  0.4187795513253  0.6983009948503  0.7491179227825 1.0
C      1  0.4200306014091  0.1989248961967  0.5436388162225 1.0
C      1  0.4172694645338  0.6153690196738  0.2018642182447 1.0
END
