TITL C-66222-8113-8 -3.99 3375.00 -684.12588335 0 0 85 (C1) n - 1
REM
REM Run started: at 2020.12.12 11:09:37 in /rds/project/t2_vol4/rds-t2-cs072/BORA/CARBON/AIRSS/Generating-Clusters/Str-Search/Higher-Symm/C10-100
REM VASP from code version vasp.5.4.4.18Apr17-6-g9f103f2a35 (build Oct 11 2019 16:45:47) gamma-only
REM
REM
REM
REM
REM ./C.cell (f39ce9773e2efe3fa5bbdf770a4156b8)
REM AIRSS Version 0.9.1 bugfix July 2018 build 013d7b7c2542+ Fri, 06 Jul 2018 19:26:36 +0100
REM compiler GCC version 4.8.5 20150623 (Red Hat 4.8.5-39)
REM options -cpp -mtune=generic -march=x86-64 -g -O0
REM seed -652007384 2021714116 2014926246 -1322662771 -1783994311 963255893 -1325129402 929751631 1265061695 508735558 -2107543139 288525065
REM
REM C.POTCAR (d86ddea03c3ceb6dc662c8ad6801f873)
REM 
CELL 1.54180   15.00000   15.00000   15.00000   90.00000   90.00000   90.00000
LATT -1
SFAC C  
C      1  0.4234825064093  0.2435502301884  0.5205819365006 1.0
C      1  0.6445340464441  0.6577078374347  0.6419947206876 1.0
C      1  0.4244988463840  0.6875698521371  0.7148885143068 1.0
C      1  0.0936132782904  0.5422908144692  0.3931329145110 1.0
C      1  0.4031140577996  0.2896398795175  0.3735492015803 1.0
C      1  0.5512794102252  0.4370262760326  0.5984119608224 1.0
C      1  0.4394368599683  0.8157649236936  0.4971853181551 1.0
C      1  0.2701753750422  0.5762342699605  0.6341500636178 1.0
C      1  0.3131947598461  0.3560135037766  0.5347324981677 1.0
C      1  0.5920107739367  0.5436980472817  0.7638936782111 1.0
C      1  0.7332016009810  0.6641908288515  0.5631701344242 1.0
C      1  0.5989893961569  0.7187569953330  0.3207621373268 1.0
C      1  0.4351734609634  0.6613115271150  0.4184970973698 1.0
C      1  0.4536956585706  0.7312402597625  0.3588605151002 1.0
C      1  0.5893540830329  0.5413545721392  0.3413532446425 1.0
C      1  0.3794159193407  0.7098848131291  0.6357470472219 1.0
C      1  0.5144960396951  0.3762854970365  0.2721668203388 1.0
C      1  0.4850497018846  0.8055049585008  0.4160644303619 1.0
C      1  0.5371569407322  0.4033855333174  0.7887736495829 1.0
C      1  0.3272786419142  0.2571856257983  0.5040684726885 1.0
C      1  0.6900994266922  0.3843976306532  0.4233015708768 1.0
C      1  0.7221666621707  0.4940683445839  0.3052847780458 1.0
C      1  0.6844120456413  0.4065028212602  0.3299780967135 1.0
C      1  0.4866264581192  0.6071748032491  0.2535336727502 1.0
C      1  0.7239767159961  0.3744744641549  0.5766435588335 1.0
C      1  0.5091553699239  0.6924981776595  0.2856066193789 1.0
C      1  0.4228095535043  0.3743987454183  0.3056373238049 1.0
C      1  0.5468523112464  0.4304880684868  0.4958011159103 1.0
C      1  0.7141473858240  0.6142381616410  0.4029879619319 1.0
C      1  0.5150017584476  0.5319552935544  0.6220956074362 1.0
C      1  0.5213705806620  0.3337451019274  0.7254702824895 1.0
C      1  0.5570164546285  0.4445976800114  0.2269323115223 1.0
C      1  0.4079493249439  0.3727796222595  0.5510888358619 1.0
C      1  0.2491764408748  0.4291974763046  0.5592545990474 1.0
C      1  0.5815587971167  0.5285649307002  0.4985529857761 1.0
C      1  0.5740661266595  0.7640090134955  0.4073116533795 1.0
C      1  0.5993887412941  0.5744253413277  0.6684058210242 1.0
C      1  0.2298340101702  0.5333232177458  0.2753192013897 1.0
C      1  0.6945591179537  0.4181093213972  0.7345287978529 1.0
C      1  0.2647486181639  0.4828012176457  0.6394410266309 1.0
C      1  0.6710251968981  0.6592409414670  0.3176634215067 1.0
C      1  0.6093135676095  0.3501733255148  0.4700555515340 1.0
C      1  0.3794008328811  0.4405346251885  0.7781704064254 1.0
C      1  0.4871751991552  0.5732166848506  0.5339179832889 1.0
C      1  0.1600706152089  0.4945987257665  0.4258247242328 1.0
C      1  0.5563616184147  0.3393127997616  0.6273414283375 1.0
C      1  0.5637513547883  0.2585342448581  0.4530148979894 1.0
C      1  0.4076219619614  0.5533773657658  0.2964093223204 1.0
C      1  0.3186022227870  0.5197086608333  0.2579455681423 1.0
C      1  0.6228029893909  0.2257151246304  0.5163163920333 1.0
C      1  0.7463594669663  0.4218444494863  0.4930726550137 1.0
C      1  0.5013267342840  0.5575388663170  0.7974555350532 1.0
C      1  0.3063349464496  0.6509825068073  0.6288357319599 1.0
C      1  0.4473210998308  0.4274839624314  0.4764334617522 1.0
C      1  0.4715116810494  0.2458934356479  0.4362018624043 1.0
C      1  0.5774226251504  0.7100298138914  0.4896371389308 1.0
C      1  0.4348287358860  0.3072566559551  0.6967250367730 1.0
C      1  0.4131242639357  0.5736736234558  0.3958502116166 1.0
C      1  0.6419082826759  0.6957091887895  0.5514282345137 1.0
C      1  0.7820666022493  0.5119295903749  0.4683322167924 1.0
C      1  0.3958578670728  0.3879966766926  0.4022643522943 1.0
C      1  0.1662234919676  0.5398138766750  0.3297087527389 1.0
C      1  0.3115314089929  0.2763762916630  0.4126247088065 1.0
C      1  0.7365378337452  0.3995728906550  0.6652735510269 1.0
C      1  0.7624841211418  0.6059660259174  0.4936385110725 1.0
C      1  0.4811628066847  0.6710549300891  0.5086134854599 1.0
C      1  0.4265644272473  0.5240128323447  0.4741723140292 1.0
C      1  0.6168729712186  0.5100923225769  0.5937130404420 1.0
C      1  0.6420775050707  0.3156143395693  0.5633534606484 1.0
C      1  0.5630337886168  0.5422722079896  0.2464280616030 1.0
C      1  0.4267755751233  0.7465056702039  0.5544595733389 1.0
C      1  0.2232904575205  0.4408538275015  0.4692996145682 1.0
C      1  0.7660618110326  0.5340856239775  0.3748869531867 1.0
C      1  0.7381751142000  0.6676231098144  0.6622942052718 1.0
C      1  0.3822696558210  0.4580305832558  0.2655364768717 1.0
C      1  0.6210205832618  0.5659895897523  0.4211080379367 1.0
C      1  0.6087104402500  0.3836055148980  0.2789301385144 1.0
C      1  0.6193126054015  0.4530802142192  0.7763685122621 1.0
C      1  0.3652760766558  0.3620218918217  0.7278172560998 1.0
C      1  0.4553442436411  0.6328536813402  0.7699254613982 1.0
C      1  0.3122480983048  0.4385270205578  0.7097589156031 1.0
C      1  0.4584209055426  0.3014889046185  0.5987577532405 1.0
C      1  0.4643423601249  0.4681302093068  0.8072561380765 1.0
C      1  0.2959989094499  0.3775211186640  0.4345607399118 1.0
C      1  0.6580098866892  0.5698104751509  0.2694586287027 1.0
END
