TITL C-6620-4778-30 -8.62 3375.00 -1236.00922344 0 0 154 (C1) n - 1
REM
REM Run started: at 2020.12.18 22:47:03 in /gpfs/home/chem/mssmkc/CARBON/AIRSS/Generating-Clusters/Str-Search/Higher-Symm
REM VASP from code version vasp.5.4.4.18Apr17-6-g9f103f2a35 (build Oct 11 2019 16:45:47) gamma-only
REM
REM
REM
REM
REM ./C.cell (533062f00bc710175b3da973d35f2034)
REM AIRSS Version 0.9.1 bugfix July 2018 build 013d7b7c2542+ Fri, 06 Jul 2018 19:26:36 +0100
REM compiler GCC version 6.3.0
REM options -cpp -iprefix /gpfs/warwick/csc/orac/software/Core/GCCcore/6.3.0/bin/../lib/gcc/x86_64-pc-linux-gnu/6.3.0/ -mtune=generic -march=x86-64 -g -O0
REM seed -389035701 -2052986856 -134522663 -1372707227 2060927764 -1715337867 -775053495 -51825812 950102837 419599040 1628535728 1095541644
REM
REM C.POTCAR (d86ddea03c3ceb6dc662c8ad6801f873)
REM 
CELL 1.54180   15.00000   15.00000   15.00000   90.00000   90.00000   90.00000
LATT -1
SFAC C  
C      1  0.7179822669446  0.3387744409867  0.9340978275106 1.0
C      1  0.0793851961900  0.2388580560438  0.5856760543262 1.0
C      1  0.5950108971372  0.1871351628448  0.0669649819876 1.0
C      1  0.7220310592968  0.6862521757078  0.9079674912101 1.0
C      1  0.0973183555432  0.7528423296630  0.5667944342428 1.0
C      1  0.5549146298642  0.8046509806431  0.0334263138703 1.0
C      1  0.6493763793464  0.4688130271101  0.5796590536547 1.0
C      1  0.4090336713709  0.4698289307750  0.5881826574490 1.0
C      1  0.4822206291467  0.4770429688380  0.3112562793113 1.0
C      1  0.6488886709717  0.5603450243005  0.5710221465152 1.0
C      1  0.4110515836611  0.5666098196439  0.5923933831219 1.0
C      1  0.5038921830252  0.5659008867350  0.3511421918543 1.0
C      1  0.5816223931498  0.2386747366380  0.5202483937741 1.0
C      1  0.4813880474422  0.2385028861647  0.5597059780037 1.0
C      1  0.5489317109573  0.2402967440285  0.4202419262673 1.0
C      1  0.5885875418168  0.7944112414962  0.5345427288196 1.0
C      1  0.4943967218307  0.7980274287070  0.5589743554802 1.0
C      1  0.5112161688450  0.8182765537661  0.3337628760414 1.0
C      1  0.7416559742615  0.5139848770660  0.1936184482719 1.0
C      1  0.5363011408255  0.5779541950666  0.7990245682570 1.0
C      1  0.0986176402267  0.5664062855453  0.3028413492215 1.0
C      1  0.6828866483412  0.3877744456757  0.2975744253638 1.0
C      1  0.5413241562229  0.3943501190359  0.8096382341081 1.0
C      1  0.0896908756843  0.3698198558413  0.3192453600848 1.0
C      1  0.5142887656213  0.9062528193023  0.3379058636129 1.0
C      1  0.6404470450399  0.8798364110184  0.5196473857360 1.0
C      1  0.4581637996603  0.8878143933263  0.5666628686149 1.0
C      1  0.5381148442311  0.1557578165952  0.3837389721294 1.0
C      1  0.6409004196125  0.1484760196822  0.5308619125927 1.0
C      1  0.4512531759937  0.1485145886451  0.5726034764507 1.0
C      1  0.2435473054039  0.2053860192569  0.2799348534197 1.0
C      1  0.7831513987146  0.1686234554691  0.4449551524335 1.0
C      1  0.4186087680557  0.1713369466905  0.8032811449672 1.0
C      1  0.1883222353625  0.7140753977812  0.2818606698764 1.0
C      1  0.7664450448101  0.8941062206212  0.4083313075392 1.0
C      1  0.4676867926873  0.8774480364963  0.8052632661249 1.0
C      1  0.4066060650342  0.4314884455789  0.0839693822502 1.0
C      1  0.9315250158811  0.3797884391355  0.7279887039580 1.0
C      1  0.2201288519971  0.3811724271104  0.6886079934949 1.0
C      1  0.4053186650720  0.5323494698931  0.0893240093427 1.0
C      1  0.9420109627020  0.6078357201758  0.6980222931741 1.0
C      1  0.2395727959233  0.6626103971999  0.7203951415126 1.0
C      1  0.6253807590832  0.0575953540024  0.5320745845807 1.0
C      1  0.4445616733664  0.0637708459905  0.5736666687983 1.0
C      1  0.5261301488301  0.0766437202917  0.3588906516297 1.0
C      1  0.6233283995502  0.9712274195157  0.5293271394150 1.0
C      1  0.4471591018820  0.9715291405673  0.5722917300274 1.0
C      1  0.5182609761565  0.9901069291913  0.3427155654798 1.0
C      1  0.4245216292602  0.4006308609263  0.9210017194174 1.0
C      1  0.4031632923433  0.3923419796710  0.0001108948344 1.0
C      1  0.9677873844064  0.3184431312234  0.6847244326089 1.0
C      1  0.4252600462190  0.5774568224811  0.9267819093478 1.0
C      1  0.4059848944456  0.5767022913777  0.0073624308166 1.0
C      1  0.9803254615756  0.6597188318052  0.6452130282711 1.0
C      1  0.3628071660690  0.2178048186139  0.7526689510151 1.0
C      1  0.3240000205095  0.2203374107315  0.2636912842009 1.0
C      1  0.7395136192168  0.1698378086045  0.5240711091244 1.0
C      1  0.4100504226343  0.8175305313805  0.7668923956772 1.0
C      1  0.2758038040502  0.7072088899651  0.2518461610889 1.0
C      1  0.7365417608725  0.8680580223772  0.4893444769865 1.0
C      1  0.5813981328066  0.4168449774992  0.5292092971983 1.0
C      1  0.4843885139458  0.4170698662895  0.5447010764308 1.0
C      1  0.5083987517093  0.4057458959508  0.3721164900287 1.0
C      1  0.5752251805175  0.6069008942556  0.5140977713775 1.0
C      1  0.4887306008516  0.6227228539060  0.5574134829250 1.0
C      1  0.5398653461688  0.5508535618706  0.4367575077735 1.0
C      1  0.4415366276959  0.3281388025409  0.5634232780453 1.0
C      1  0.5168241097947  0.3119204269083  0.3630482926181 1.0
C      1  0.6256266619083  0.3296810662123  0.5473906370017 1.0
C      1  0.4521864292926  0.7076348123560  0.5736528086471 1.0
C      1  0.5077492200444  0.7342787707079  0.3335360042782 1.0
C      1  0.6269077162027  0.6988371489443  0.5323034815294 1.0
C      1  0.1927210098899  0.4458342625048  0.7328451781738 1.0
C      1  0.4319067798517  0.3988371011268  0.1671001135527 1.0
C      1  0.9075783882034  0.4544008227952  0.7709483014895 1.0
C      1  0.2038570112625  0.5943729471164  0.7507938402462 1.0
C      1  0.4278169040223  0.5552019614319  0.1761671490034 1.0
C      1  0.9130163674809  0.5478653652547  0.7577685913096 1.0
C      1  0.4940697390425  0.2701451284516  0.2774278322530 1.0
C      1  0.6816361830858  0.3773767282982  0.6071419975823 1.0
C      1  0.3678135833584  0.3793484877056  0.6003457102976 1.0
C      1  0.4892354948166  0.6487751194730  0.3058411795184 1.0
C      1  0.6863550560238  0.6495995275729  0.5881221921822 1.0
C      1  0.3761581103884  0.6572883190514  0.6148043235365 1.0
C      1  0.7733359270781  0.2086323340471  0.6028220682386 1.0
C      1  0.3178803535188  0.2660165631103  0.7030969313329 1.0
C      1  0.4075080169117  0.2420061355821  0.2426480551597 1.0
C      1  0.7850486236727  0.8200483364877  0.5532806641976 1.0
C      1  0.3587647052018  0.7675437143890  0.7277819518153 1.0
C      1  0.3520037919532  0.6872195554214  0.2303811363400 1.0
C      1  0.7277767003905  0.4599601148480  0.3143058971989 1.0
C      1  0.4715339179493  0.4394996708369  0.8506152749329 1.0
C      1  0.1676015838541  0.4233263264664  0.3310030122897 1.0
C      1  0.7630494640549  0.5326913901073  0.2772283455889 1.0
C      1  0.4698912490979  0.5409958874423  0.8526591304542 1.0
C      1  0.1695952441926  0.5076604001181  0.3258884356453 1.0
C      1  0.5193577665372  0.8924795999515  0.8869105023130 1.0
C      1  0.1130551800918  0.6568052600176  0.2765193886607 1.0
C      1  0.8383628191730  0.8936491153449  0.3448060248866 1.0
C      1  0.5378108631831  0.1276898603583  0.9161374778918 1.0
C      1  0.0909513099917  0.2754508270913  0.3091050998378 1.0
C      1  0.8618187621276  0.1911432724127  0.3946626145347 1.0
C      1  0.0154699098742  0.2693167188583  0.6298531812060 1.0
C      1  0.6445984286598  0.2749412152174  0.0756412343860 1.0
C      1  0.7286502681030  0.3541471381744  0.8518089978946 1.0
C      1  0.0304988785456  0.7119115342648  0.5956261954920 1.0
C      1  0.6200811957666  0.7301622663318  0.0404208474210 1.0
C      1  0.7470196154067  0.6720993340982  0.8246673257487 1.0
C      1  0.3065069041198  0.7098110364769  0.6681142683286 1.0
C      1  0.4407981492486  0.6485878754665  0.2136307641962 1.0
C      1  0.7851833683716  0.7670070215032  0.6160282501268 1.0
C      1  0.2854877528342  0.3309813952312  0.6369740183865 1.0
C      1  0.4545208504847  0.3074936556901  0.1894903506007 1.0
C      1  0.7694137518415  0.2621600603624  0.6658847579981 1.0
C      1  0.7523854005404  0.6676833942469  0.7413902373372 1.0
C      1  0.2640640733522  0.8138207980540  0.5149447092250 1.0
C      1  0.5769624861128  0.6794684879968  0.1070468344878 1.0
C      1  0.7016247656421  0.3800976594953  0.7681883602215 1.0
C      1  0.2333633640378  0.2322865352077  0.4829769449172 1.0
C      1  0.6239771792382  0.3109062562117  0.1615532235612 1.0
C      1  0.6814234772783  0.7024932320607  0.9789199036891 1.0
C      1  0.1821823375495  0.7788734011370  0.5540087248241 1.0
C      1  0.4903526333580  0.7768982636028  0.0987205776029 1.0
C      1  0.6926763941312  0.3182628264323  0.0136373111539 1.0
C      1  0.1596056317093  0.2396988536836  0.5459571424315 1.0
C      1  0.5451024705991  0.1716050294999  0.1427248906529 1.0
C      1  0.5470479085215  0.2571955617563  0.1941839064509 1.0
C      1  0.7277095938769  0.3440056136460  0.6861146431520 1.0
C      1  0.2418687124181  0.2776813146036  0.5633406401631 1.0
C      1  0.4966266395027  0.7003410556834  0.1476504159024 1.0
C      1  0.7483495134770  0.6887857360976  0.6527263228859 1.0
C      1  0.2637165245262  0.7644495706271  0.5941855942724 1.0
C      1  0.6704045295470  0.3837442308090  0.2013395297144 1.0
C      1  0.6172053184435  0.4344224414663  0.7744164484462 1.0
C      1  0.0158405413653  0.4286684195494  0.3062516303472 1.0
C      1  0.7078938702143  0.4518249484816  0.1419676905392 1.0
C      1  0.5978259648707  0.5246653764015  0.7717633230631 1.0
C      1  0.0202135064351  0.5129200036104  0.2978850308462 1.0
C      1  0.8162009084129  0.9260204080025  0.2566884740816 1.0
C      1  0.5341381646281  0.8580676065771  0.9641854300086 1.0
C      1  0.0651947635128  0.7358178775345  0.2472172610797 1.0
C      1  0.8525719957385  0.1849338447983  0.2990552634550 1.0
C      1  0.5769188331709  0.1455059298525  0.9861444976701 1.0
C      1  0.0624736679779  0.1881932774396  0.2942392852014 1.0
C      1  0.7753350523295  0.1599276964201  0.3504417831558 1.0
C      1  0.4778576407834  0.1396509029441  0.8515916758629 1.0
C      1  0.1555820853199  0.2086608354010  0.2932373365172 1.0
C      1  0.7452065692309  0.9280598550125  0.3217467679646 1.0
C      1  0.5190765230812  0.9519794473371  0.8087551484224 1.0
C      1  0.1215576635343  0.7767547531871  0.3149063648882 1.0
C      1  0.1557590046879  0.5199520489855  0.7675809282363 1.0
C      1  0.4461339081136  0.4742717364854  0.2256447570877 1.0
C      1  0.8753155317459  0.5137354437056  0.8378632770616 1.0
C      1  0.5326822260092  0.4531725570061  0.4523740840195 1.0
END
