TITL C-6603-1109-192 -0.256 3375.00 -35.57026861 0 0 5 (D(inf)h) n - 1
REM
REM Run started: at 2020.12.19 06:32:54 in /gpfs/home/chem/mssmkc/CARBON/AIRSS/Generating-Clusters/Str-Search/Higher-Symm/C4-100
REM VASP from code version vasp.5.4.4.18Apr17-6-g9f103f2a35 (build Oct 11 2019 16:45:47) gamma-only
REM
REM
REM
REM
REM ./C.cell (6bd13a13d554368a30d355f37ece5b26)
REM AIRSS Version 0.9.1 bugfix July 2018 build 013d7b7c2542+ Fri, 06 Jul 2018 19:26:36 +0100
REM compiler GCC version 6.3.0
REM options -cpp -iprefix /gpfs/warwick/csc/orac/software/Core/GCCcore/6.3.0/bin/../lib/gcc/x86_64-pc-linux-gnu/6.3.0/ -mtune=generic -march=x86-64 -g -O0
REM seed 696496110 -1443589958 -1930787369 832464463 383036162 1269402988 -1429743625 -1595965774 727745772 -2067408141 -133104143 457462439
REM
REM C.POTCAR (d86ddea03c3ceb6dc662c8ad6801f873)
REM 
CELL 1.54180   15.00000   15.00000   15.00000   90.00000   90.00000   90.00000
LATT -1
SFAC C  
C      1  0.4989145911989  0.3271918033898  0.4957833957615 1.0
C      1  0.4989344257283  0.5860188028728  0.4958468110528 1.0
C      1  0.4989355227386  0.4139687726650  0.4958441980872 1.0
C      1  0.4989146256625  0.6728230797241  0.4957833199730 1.0
C      1  0.4989283346716  0.4999976413482  0.4958342751254 1.0
END
