TITL C-66248-7283-19 -2.947 3375.00 -501.49997170 0 0 64 (C1) n - 1
REM
REM Run started: at 2020.12.12 14:21:01 in /rds/project/t2_vol4/rds-t2-cs072/BORA/CARBON/AIRSS/Generating-Clusters/Str-Search/Higher-Symm/C10-100
REM VASP from code version vasp.5.4.4.18Apr17-6-g9f103f2a35 (build Oct 11 2019 16:45:47) gamma-only
REM
REM
REM
REM
REM ./C.cell (f39ce9773e2efe3fa5bbdf770a4156b8)
REM AIRSS Version 0.9.1 bugfix July 2018 build 013d7b7c2542+ Fri, 06 Jul 2018 19:26:36 +0100
REM compiler GCC version 4.8.5 20150623 (Red Hat 4.8.5-39)
REM options -cpp -mtune=generic -march=x86-64 -g -O0
REM seed -1268250763 -1539271582 -2014837067 1534335229 153255375 1859658015 -137684523 -246186733 -1865525069 -136059516 -572132349 500197141
REM
REM C.POTCAR (d86ddea03c3ceb6dc662c8ad6801f873)
REM 
CELL 1.54180   15.00000   15.00000   15.00000   90.00000   90.00000   90.00000
LATT -1
SFAC C  
C      1  0.6414027563468  0.4931405330397  0.4600103955458 1.0
C      1  0.3493620761097  0.4990937665457  0.5521588254121 1.0
C      1  0.3593766091541  0.5408754032953  0.3235004224992 1.0
C      1  0.6417444917766  0.5517489823246  0.6707936797403 1.0
C      1  0.2726238409070  0.4674908144911  0.6304277874172 1.0
C      1  0.7084034633054  0.4559793727123  0.3932120222105 1.0
C      1  0.3332299486030  0.4717843145821  0.4608364621719 1.0
C      1  0.6700352416132  0.4551472185215  0.5406488835452 1.0
C      1  0.5419899792999  0.3528732695433  0.2395338403486 1.0
C      1  0.4391622337159  0.3909462154992  0.7543973766638 1.0
C      1  0.4714566819524  0.7281993629842  0.5927986826016 1.0
C      1  0.5310675870273  0.7196450412562  0.4357610516398 1.0
C      1  0.4430397971479  0.3132473506830  0.3414731772214 1.0
C      1  0.5306238751786  0.3083210568898  0.6736086446855 1.0
C      1  0.2927275339486  0.5612318889152  0.6072274743347 1.0
C      1  0.7122388723537  0.5532836249529  0.4238100359590 1.0
C      1  0.4520891601340  0.5009309036311  0.5638285923232 1.0
C      1  0.5469968313549  0.5118405352932  0.4499391528735 1.0
C      1  0.5397272775800  0.3118705407918  0.3308571085560 1.0
C      1  0.4347703872100  0.3243067733670  0.6776461397234 1.0
C      1  0.3812149417548  0.3387701448717  0.4174532798039 1.0
C      1  0.5792348140444  0.3240295376812  0.5865640594322 1.0
C      1  0.3808805635467  0.6886949382785  0.6048421858779 1.0
C      1  0.6289107041457  0.6870342238035  0.4282851279656 1.0
C      1  0.6285800101947  0.4076458170718  0.6103569352562 1.0
C      1  0.4187969491869  0.4363272745452  0.4253926786794 1.0
C      1  0.5346862029784  0.3883194492078  0.7285620330797 1.0
C      1  0.4646258419247  0.3892826272865  0.2849638656950 1.0
C      1  0.4124360768147  0.2963854812727  0.5129806780524 1.0
C      1  0.5814233565733  0.2788284764952  0.4886618815202 1.0
C      1  0.3754027291003  0.6267785181247  0.3584453280736 1.0
C      1  0.6185281282321  0.6410517282978  0.6708540723754 1.0
C      1  0.5587201047456  0.7104562545718  0.6428937068492 1.0
C      1  0.4396249284402  0.6929558949570  0.3886684981425 1.0
C      1  0.6417101681875  0.7025681851759  0.6016096102784 1.0
C      1  0.3567788670678  0.6886936176050  0.4311345944267 1.0
C      1  0.3105820625888  0.3924977997935  0.6183390665183 1.0
C      1  0.6778680339617  0.3757151699632  0.3777757379083 1.0
C      1  0.6132914552434  0.3129531180849  0.3959187505930 1.0
C      1  0.3731701240856  0.3245826149013  0.6060684667796 1.0
C      1  0.4826861316062  0.5041670991688  0.6590348685478 1.0
C      1  0.5283024893752  0.5275275010427  0.3508058309792 1.0
C      1  0.6524319670927  0.6167606667337  0.3711624970006 1.0
C      1  0.3672935853416  0.6130930706099  0.6591716711533 1.0
C      1  0.4425996993464  0.4779294545205  0.3309093831894 1.0
C      1  0.5783006307935  0.4676461322400  0.6783546138826 1.0
C      1  0.7129656538117  0.5341707140315  0.6027204238130 1.0
C      1  0.2896751046604  0.4868304105492  0.3719582206706 1.0
C      1  0.2940306770264  0.3989377610900  0.4043762302109 1.0
C      1  0.7358434890436  0.4342266912952  0.6031671141768 1.0
C      1  0.6764189701210  0.6761282518268  0.5154477148282 1.0
C      1  0.3213667143458  0.6814502164179  0.5224884022666 1.0
C      1  0.7260729457853  0.5956477155802  0.5203455526486 1.0
C      1  0.2533993245830  0.6189725228484  0.5369867278273 1.0
C      1  0.5893675810722  0.5794617024632  0.3109489286232 1.0
C      1  0.4354321121809  0.5691754026236  0.7048880183150 1.0
C      1  0.5018622371606  0.6647436663346  0.5175896674776 1.0
C      1  0.4449107323060  0.2002328562361  0.5056636661216 1.0
C      1  0.4799844073794  0.8170156680751  0.5455920612966 1.0
C      1  0.5167976202841  0.8127010689262  0.4712027000054 1.0
C      1  0.4908844987734  0.4381051501264  0.4913697073326 1.0
C      1  0.5019591118518  0.5743627499613  0.5152741975840 1.0
C      1  0.5067872475931  0.3443632014886  0.5165328283016 1.0
C      1  0.5263525609296  0.1963485845023  0.4888488609673 1.0
END
