TITL C-6603-1109-94 -0.991 3375.00 -153.29510124 0 0 20 (C4v) n - 1
REM
REM Run started: at 2020.12.18 10:48:03 in /gpfs/home/chem/mssmkc/CARBON/AIRSS/Generating-Clusters/Str-Search/Higher-Symm/C4-100
REM VASP from code version vasp.5.4.4.18Apr17-6-g9f103f2a35 (build Oct 11 2019 16:45:47) gamma-only
REM
REM
REM
REM
REM ./C.cell (6bd13a13d554368a30d355f37ece5b26)
REM AIRSS Version 0.9.1 bugfix July 2018 build 013d7b7c2542+ Fri, 06 Jul 2018 19:26:36 +0100
REM compiler GCC version 6.3.0
REM options -cpp -iprefix /gpfs/warwick/csc/orac/software/Core/GCCcore/6.3.0/bin/../lib/gcc/x86_64-pc-linux-gnu/6.3.0/ -mtune=generic -march=x86-64 -g -O0
REM seed -35612362 -2069840560 -536299315 -1167339370 1909838001 241086706 -125102379 899278670 -804762810 -1214074209 -781354238 119605129
REM
REM C.POTCAR (d86ddea03c3ceb6dc662c8ad6801f873)
REM 
CELL 1.54180   15.00000   15.00000   15.00000   90.00000   90.00000   90.00000
LATT -1
SFAC C  
C      1  0.4528778164043  0.4211949345132  0.3426097684742 1.0
C      1  0.6573879528854  0.4211973117033  0.4528786416840 1.0
C      1  0.5471216395370  0.4211974812707  0.6573885732994 1.0
C      1  0.3426123092012  0.4211973164295  0.5471215488261 1.0
C      1  0.3814620676771  0.4635487535502  0.6195736854488 1.0
C      1  0.3804269524949  0.4635476391616  0.3814622338143 1.0
C      1  0.6185379376467  0.4635488683079  0.3804263675751 1.0
C      1  0.6195740612188  0.4635478360801  0.6185379632439 1.0
C      1  0.6648114139346  0.4634783506897  0.5347638591726 1.0
C      1  0.4652365501027  0.4634775010849  0.6648112642757 1.0
C      1  0.3351884102624  0.4634786808105  0.4652361188440 1.0
C      1  0.5347627419392  0.4634774971972  0.3351893077394 1.0
C      1  0.4335491037319  0.5460609661187  0.6236221396294 1.0
C      1  0.3763784937637  0.5460606397366  0.4335485398322 1.0
C      1  0.5664508561794  0.5460606778035  0.3763779827808 1.0
C      1  0.6236215782992  0.5460608791668  0.5664515719922 1.0
C      1  0.5331057386554  0.6057160819583  0.4385397719677 1.0
C      1  0.5614601394533  0.6057162663693  0.5331067146047 1.0
C      1  0.4668942473409  0.6057160283563  0.5614605037435 1.0
C      1  0.4385399892719  0.6057162896915  0.4668934430520 1.0
END
