TITL C-6660-8037-42 -5.265 3375.00 -872.71058700 0 0 109 (C1) n - 1
REM
REM Run started: at 2020.12.19 05:46:01 in /gpfs/home/chem/mssmkc/CARBON/AIRSS/Generating-Clusters/Str-Search/Higher-Symm
REM VASP from code version vasp.5.4.4.18Apr17-6-g9f103f2a35 (build Oct 11 2019 16:45:47) gamma-only
REM
REM
REM
REM
REM ./C.cell (533062f00bc710175b3da973d35f2034)
REM AIRSS Version 0.9.1 bugfix July 2018 build 013d7b7c2542+ Fri, 06 Jul 2018 19:26:36 +0100
REM compiler GCC version 6.3.0
REM options -cpp -iprefix /gpfs/warwick/csc/orac/software/Core/GCCcore/6.3.0/bin/../lib/gcc/x86_64-pc-linux-gnu/6.3.0/ -mtune=generic -march=x86-64 -g -O0
REM seed -441578464 -872057028 2016763733 -678163083 -1039012884 1925972709 262226765 -1361258825 -1062506350 -1358369943 530573338 -2108962840
REM
REM C.POTCAR (d86ddea03c3ceb6dc662c8ad6801f873)
REM 
CELL 1.54180   15.00000   15.00000   15.00000   90.00000   90.00000   90.00000
LATT -1
SFAC C  
C      1  0.4416179388115  0.1616327501499  0.5430688665796 1.0
C      1  0.1577439680911  0.5520261352537  0.3819162462178 1.0
C      1  0.5610388801492  0.4097871038898  0.1631647644174 1.0
C      1  0.5955494784518  0.8378029742166  0.5413846871418 1.0
C      1  0.4462577490400  0.8074078485576  0.3855200694152 1.0
C      1  0.5897889505774  0.1838791272197  0.4384013961603 1.0
C      1  0.8363630869482  0.4513676959024  0.4096451488103 1.0
C      1  0.1208631070167  0.4364855364141  0.5443619556393 1.0
C      1  0.8479370370609  0.5900892265277  0.5623369198054 1.0
C      1  0.4333579168580  0.5754394833655  0.1671625909531 1.0
C      1  0.5913029034394  0.5754040911815  0.8244134524924 1.0
C      1  0.4839268185104  0.4219232241721  0.8542363364573 1.0
C      1  0.4323907659804  0.1717290754322  0.4331744639119 1.0
C      1  0.1390731152929  0.6163124122915  0.5361242021807 1.0
C      1  0.5845298146243  0.4180241007293  0.8305472194651 1.0
C      1  0.5965642618037  0.8299762837845  0.4422176627471 1.0
C      1  0.4315157331398  0.8377488790949  0.5620148922349 1.0
C      1  0.5945198722545  0.1757684939384  0.5441948491084 1.0
C      1  0.8470957335224  0.4194741491484  0.5727830750736 1.0
C      1  0.1505415316268  0.4545851055957  0.3856966153664 1.0
C      1  0.8426363736022  0.5504705459769  0.4053200421183 1.0
C      1  0.4881238200357  0.5767429021901  0.8499738092026 1.0
C      1  0.5946803134026  0.5663623689091  0.1831695374494 1.0
C      1  0.4566183665253  0.4151268020490  0.1521267683048 1.0
C      1  0.4495875581974  0.3535414225932  0.2252367073394 1.0
C      1  0.3558731850262  0.2250600731734  0.4373231274489 1.0
C      1  0.2306999587296  0.4433003964456  0.3300486638008 1.0
C      1  0.5628219661933  0.6356004947172  0.2370551597668 1.0
C      1  0.4766487547086  0.6440448678231  0.7826123310036 1.0
C      1  0.5736668272320  0.3524655956465  0.7634991538297 1.0
C      1  0.6653197043465  0.7654976727558  0.4456532890987 1.0
C      1  0.3882867566733  0.7664601420544  0.5197908756823 1.0
C      1  0.6607182917418  0.2443063986064  0.5458904437076 1.0
C      1  0.7708600522873  0.5550142123613  0.3428967047971 1.0
C      1  0.1797070529375  0.5776997416129  0.6128923373745 1.0
C      1  0.7923566772398  0.4512634334226  0.6387448811631 1.0
C      1  0.4672125425341  0.3659828411629  0.7714241075316 1.0
C      1  0.3729162691253  0.2298495866768  0.5471228495702 1.0
C      1  0.1763657634033  0.4771922718628  0.6040264405891 1.0
C      1  0.5772020421539  0.6527111212842  0.7657315731627 1.0
C      1  0.4627738346461  0.6311547360851  0.2350694745122 1.0
C      1  0.5507947184081  0.3483117627315  0.2336756646255 1.0
C      1  0.6622974774052  0.7683177721211  0.5496283739893 1.0
C      1  0.3786228074819  0.7559018181921  0.4246844291624 1.0
C      1  0.6597683313063  0.2502964096063  0.4447200791593 1.0
C      1  0.7841724589521  0.5583775540167  0.6271363947651 1.0
C      1  0.2377392311689  0.5465159806759  0.3273061025302 1.0
C      1  0.7600573989061  0.4558685557091  0.3459105131270 1.0
C      1  0.4698585257773  0.6033088105684  0.4803739339970 1.0
C      1  0.6581215760866  0.4654505672934  0.5836859437762 1.0
C      1  0.4014134144356  0.5286467348018  0.6910591185492 1.0
C      1  0.3731467327358  0.3750203654468  0.4696279358137 1.0
C      1  0.4905437010816  0.3799156451225  0.5527931880392 1.0
C      1  0.3865897419077  0.6809055396732  0.5704367657147 1.0
C      1  0.3177249697476  0.5237201794892  0.6344183983447 1.0
C      1  0.6552750227483  0.5939932037122  0.4997576234501 1.0
C      1  0.3182953930613  0.4431555776492  0.5177010240250 1.0
C      1  0.4907587435418  0.4473932594482  0.6178190878950 1.0
C      1  0.4468312871466  0.4405188158352  0.3334576407854 1.0
C      1  0.5167394838114  0.5606531657504  0.4165813899935 1.0
C      1  0.4775782997040  0.6234443309177  0.5732303699887 1.0
C      1  0.6220478756500  0.4518930818134  0.5001087482451 1.0
C      1  0.4529469049943  0.5296162870352  0.3491392988186 1.0
C      1  0.4072886949595  0.3236812051576  0.5511376256315 1.0
C      1  0.4782862254646  0.3906001645181  0.4595711078442 1.0
C      1  0.3698354348005  0.6132359345427  0.4870819842284 1.0
C      1  0.3344020518101  0.5307706232736  0.5307345123874 1.0
C      1  0.6868954684400  0.5566465413825  0.5829150121568 1.0
C      1  0.2691388034219  0.4359770006414  0.6157168333338 1.0
C      1  0.5186658939155  0.3920750920209  0.3796403216664 1.0
C      1  0.4389133417403  0.4308766002996  0.6982569982660 1.0
C      1  0.4763115472370  0.5442760228903  0.6218862182710 1.0
C      1  0.6300148380850  0.6629160165669  0.3006185560322 1.0
C      1  0.6744326500113  0.3052776041036  0.6183394827823 1.0
C      1  0.2627449372370  0.6022187917727  0.6493277646489 1.0
C      1  0.3852664145922  0.3693782990941  0.3024051769425 1.0
C      1  0.6397690573632  0.3388567551667  0.6958459430364 1.0
C      1  0.3980773793949  0.6243449097873  0.7267609833338 1.0
C      1  0.3392338588437  0.6655631595018  0.6601345769179 1.0
C      1  0.6743427537409  0.7021179815113  0.3758775962878 1.0
C      1  0.3429987445665  0.3165654440384  0.3906322757157 1.0
C      1  0.7020896590291  0.3996015384131  0.6408731826246 1.0
C      1  0.2898832067098  0.3734122572432  0.3232714020590 1.0
C      1  0.7110484588591  0.6276675123893  0.3317312202947 1.0
C      1  0.6412779907260  0.6763806967713  0.7031357441720 1.0
C      1  0.6681382001460  0.3122449086400  0.3774522202217 1.0
C      1  0.3045528576340  0.6098435195638  0.3240318984587 1.0
C      1  0.3841118390935  0.3460635542026  0.7113161386618 1.0
C      1  0.5956053777967  0.3596850463294  0.3241579406129 1.0
C      1  0.4016783824675  0.6082084394163  0.3171353365654 1.0
C      1  0.3521965373544  0.6621648876661  0.3959055803178 1.0
C      1  0.6783623681623  0.7135614477189  0.6239928022056 1.0
C      1  0.3533513760258  0.2952092382627  0.6274010460647 1.0
C      1  0.6910455112351  0.3953105713794  0.3450944018200 1.0
C      1  0.2914799733614  0.3555497873486  0.6712968296575 1.0
C      1  0.7099160930441  0.6240007026557  0.6540009562334 1.0
C      1  0.5144372168950  0.1718476889217  0.3938130476435 1.0
C      1  0.6093102740876  0.4872955333477  0.1592337595010 1.0
C      1  0.5226556881949  0.8407995065064  0.3862840062912 1.0
C      1  0.5129111926065  0.8484449412153  0.5792596509712 1.0
C      1  0.5178474263026  0.1528609204562  0.5867048632049 1.0
C      1  0.4465107648854  0.5008681372122  0.8744439006283 1.0
C      1  0.4166914817032  0.4961708361393  0.1419896926856 1.0
C      1  0.1197863765047  0.4152887480191  0.4626397543312 1.0
C      1  0.6318096618640  0.4970445340079  0.8282399897159 1.0
C      1  0.8639503669942  0.5991460373542  0.4816028428385 1.0
C      1  0.1356122016412  0.6061827296737  0.4537708875544 1.0
C      1  0.8506697058107  0.4096644845846  0.4884032594338 1.0
C      1  0.6011215452414  0.5348247064074  0.4568487593208 1.0
END
