TITL C-6603-1109-55 -2.836 3375.00 -489.60168686 0 0 61 (C1) n - 1
REM
REM Run started: at 2020.12.18 03:48:27 in /gpfs/home/chem/mssmkc/CARBON/AIRSS/Generating-Clusters/Str-Search/Higher-Symm/C4-100
REM VASP from code version vasp.5.4.4.18Apr17-6-g9f103f2a35 (build Oct 11 2019 16:45:47) gamma-only
REM
REM
REM
REM
REM ./C.cell (6bd13a13d554368a30d355f37ece5b26)
REM AIRSS Version 0.9.1 bugfix July 2018 build 013d7b7c2542+ Fri, 06 Jul 2018 19:26:36 +0100
REM compiler GCC version 6.3.0
REM options -cpp -iprefix /gpfs/warwick/csc/orac/software/Core/GCCcore/6.3.0/bin/../lib/gcc/x86_64-pc-linux-gnu/6.3.0/ -mtune=generic -march=x86-64 -g -O0
REM seed 1157529292 2084428544 941020657 -1135617827 237400140 1566796367 2095010660 96006845 793289884 -539000918 2086363147 412371080
REM
REM C.POTCAR (d86ddea03c3ceb6dc662c8ad6801f873)
REM 
CELL 1.54180   15.00000   15.00000   15.00000   90.00000   90.00000   90.00000
LATT -1
SFAC C  
C      1  0.6293109345168  0.3192766148309  0.3459544747995 1.0
C      1  0.6473972992032  0.4519581738075  0.7454749321933 1.0
C      1  0.5973089231994  0.7657750609670  0.3511002776695 1.0
C      1  0.6191358746608  0.6888688425224  0.3895677648161 1.0
C      1  0.6398640598810  0.5359481318412  0.7410177297106 1.0
C      1  0.6043209894024  0.2832609016678  0.4153800663607 1.0
C      1  0.5007706524460  0.4574400693960  0.5760208208227 1.0
C      1  0.4568056442021  0.5903945088869  0.4906372094628 1.0
C      1  0.4773028199726  0.4497278169529  0.4095885967508 1.0
C      1  0.4596713127564  0.5470467425914  0.5697825207347 1.0
C      1  0.4922154060855  0.3934823376216  0.4893015779887 1.0
C      1  0.4703754138877  0.5430217700246  0.4110218612283 1.0
C      1  0.4363271003248  0.4114777552554  0.3216020859562 1.0
C      1  0.4474512330665  0.4046370954019  0.6533294034293 1.0
C      1  0.4195498270143  0.6841594543895  0.5001613141273 1.0
C      1  0.4305759793028  0.5861641063672  0.3231182758607 1.0
C      1  0.4241654109914  0.6038797982206  0.6463344482669 1.0
C      1  0.4264769696325  0.3162175119182  0.5088101802171 1.0
C      1  0.3803967573207  0.2902085654246  0.4224318517195 1.0
C      1  0.3897009593205  0.5442402154164  0.7189804522424 1.0
C      1  0.3825201426276  0.6785021344346  0.3258487782975 1.0
C      1  0.3741961795547  0.7097047464292  0.4135160531997 1.0
C      1  0.4036241696451  0.4529490075792  0.7351769440230 1.0
C      1  0.3883057091437  0.3178889574243  0.3325715798073 1.0
C      1  0.4753710759593  0.2595135527363  0.5801997852822 1.0
C      1  0.4883242522400  0.6790027290993  0.6446872412601 1.0
C      1  0.4945880183133  0.5491257317925  0.2578215263120 1.0
C      1  0.4861433443858  0.7299506590129  0.5615743768680 1.0
C      1  0.4957663614108  0.3176860739659  0.6556996794223 1.0
C      1  0.4997485061095  0.4556251638392  0.2550664166765 1.0
C      1  0.6386275157627  0.6015614128240  0.3469814944126 1.0
C      1  0.5865424467451  0.3371968318146  0.4954301141082 1.0
C      1  0.6369130243314  0.5940018422577  0.6691864036260 1.0
C      1  0.6501573666882  0.4106305099880  0.3312478633977 1.0
C      1  0.6349881437364  0.6765725896406  0.4875051711912 1.0
C      1  0.6538119011846  0.3865203799174  0.6812396693215 1.0
C      1  0.6808009637986  0.5933049856172  0.5000209362614 1.0
C      1  0.6801815520658  0.4544346583128  0.4132817658273 1.0
C      1  0.6841296441716  0.4372425315075  0.5971815469008 1.0
C      1  0.6528954535628  0.4141985475506  0.5023493382687 1.0
C      1  0.6839923878484  0.5480314329401  0.4156002528305 1.0
C      1  0.6689276646859  0.5427397408059  0.5864482305890 1.0
C      1  0.3391210317605  0.5432972942091  0.3439869339314 1.0
C      1  0.3372851409938  0.3553546162197  0.5380098479260 1.0
C      1  0.3264203213539  0.6239814793139  0.6188052018199 1.0
C      1  0.3416588169380  0.4535127670797  0.3395621703320 1.0
C      1  0.3238255716513  0.6660402650536  0.5390768524384 1.0
C      1  0.3509917157333  0.4053792131062  0.6116161410292 1.0
C      1  0.5695868521620  0.2859799240472  0.5778823404108 1.0
C      1  0.5847133726869  0.6692825459147  0.6463374999521 1.0
C      1  0.5946331115401  0.5574190967290  0.2779008035366 1.0
C      1  0.5825735303781  0.7095745889014  0.5571729550397 1.0
C      1  0.5944144382822  0.3118913958583  0.6661920569380 1.0
C      1  0.6008436449594  0.4631249582425  0.2712216921456 1.0
C      1  0.3186764308582  0.4681016770422  0.6792832355299 1.0
C      1  0.2839879528679  0.6860560503631  0.4490569737818 1.0
C      1  0.3089733347823  0.3674953890661  0.3717622726299 1.0
C      1  0.2949171380300  0.5603842133830  0.6902842198636 1.0
C      1  0.2907128962486  0.3219677298969  0.4551353516655 1.0
C      1  0.3029398083421  0.6308781053474  0.3721186939298 1.0
C      1  0.5987244992724  0.4753867972319  0.5615875448598 1.0
END
