TITL C-66248-7283-7 -2.113 3375.00 -337.00757280 0 0 43 (C1) n - 1
REM
REM Run started: at 2020.12.12 10:56:24 in /rds/project/t2_vol4/rds-t2-cs072/BORA/CARBON/AIRSS/Generating-Clusters/Str-Search/Higher-Symm/C10-100
REM VASP from code version vasp.5.4.4.18Apr17-6-g9f103f2a35 (build Oct 11 2019 16:45:47) gamma-only
REM
REM
REM
REM
REM ./C.cell (f39ce9773e2efe3fa5bbdf770a4156b8)
REM AIRSS Version 0.9.1 bugfix July 2018 build 013d7b7c2542+ Fri, 06 Jul 2018 19:26:36 +0100
REM compiler GCC version 4.8.5 20150623 (Red Hat 4.8.5-39)
REM options -cpp -mtune=generic -march=x86-64 -g -O0
REM seed 1680954304 1435642547 -99125083 -1536803063 -1797654178 6904130 -1580789256 308716801 751500624 114685923 -868173072 -136032802
REM
REM C.POTCAR (d86ddea03c3ceb6dc662c8ad6801f873)
REM 
CELL 1.54180   15.00000   15.00000   15.00000   90.00000   90.00000   90.00000
LATT -1
SFAC C  
C      1  0.3255019097105  0.3598111594435  0.5621379156593 1.0
C      1  0.2425212662535  0.6386123994619  0.3734400463179 1.0
C      1  0.5561617329178  0.3030306218163  0.4028825592127 1.0
C      1  0.3554769682896  0.5772794258824  0.4739202319399 1.0
C      1  0.6574310550948  0.4259293674496  0.4292170173574 1.0
C      1  0.6809744887081  0.5875247547167  0.4938648143807 1.0
C      1  0.3811443851409  0.4391106858915  0.6891763211740 1.0
C      1  0.6130203957844  0.5342088181089  0.6359958774708 1.0
C      1  0.5729039679331  0.4292934723892  0.2964470174279 1.0
C      1  0.5601854357457  0.6680135202446  0.5605857677614 1.0
C      1  0.4834753657271  0.3397653382086  0.6008019485311 1.0
C      1  0.4362446275521  0.6467669844129  0.3406856557939 1.0
C      1  0.2720480562621  0.5944140545614  0.4385953446244 1.0
C      1  0.3992034836279  0.2978483535064  0.5752718053233 1.0
C      1  0.5343049438421  0.3407556566918  0.3178973436522 1.0
C      1  0.3478629476991  0.4508290124704  0.5972067855082 1.0
C      1  0.6663368233470  0.4224158461036  0.3301790539280 1.0
C      1  0.6791852622046  0.5320816197587  0.5720965906181 1.0
C      1  0.4302690339544  0.6282098329548  0.4367465923342 1.0
C      1  0.6042676059152  0.6438547075027  0.4847051768494 1.0
C      1  0.5951042491026  0.3629497212185  0.4703263071474 1.0
C      1  0.5845241297674  0.6303147435821  0.6496878685266 1.0
C      1  0.4885165968368  0.5819667203136  0.2981440154706 1.0
C      1  0.4713700504628  0.4163610476671  0.6617972263850 1.0
C      1  0.7043336419287  0.3421183508565  0.3005964724877 1.0
C      1  0.6829673878208  0.2589692637525  0.2957755319168 1.0
C      1  0.2969538231072  0.2952367986425  0.7191978366690 1.0
C      1  0.3132592392252  0.7545675654671  0.2522805377746 1.0
C      1  0.3728022945753  0.6974570752044  0.2951974059798 1.0
C      1  0.3326904442743  0.3723203129069  0.7325247884381 1.0
C      1  0.2747034859679  0.6912605167135  0.3089926503315 1.0
C      1  0.5940430721538  0.2637647173590  0.3264202753101 1.0
C      1  0.5934465553631  0.6760119558853  0.7241968512010 1.0
C      1  0.3209872095686  0.2893329393851  0.6273738297342 1.0
C      1  0.6239105632523  0.7750073466389  0.8624492905693 1.0
C      1  0.6073371863300  0.7225685537722  0.7954963081594 1.0
C      1  0.5278481409408  0.5080678362090  0.2949908858910 1.0
C      1  0.3909650932035  0.5155703418923  0.5397705018161 1.0
C      1  0.5391535868263  0.4703658149833  0.6071491190385 1.0
C      1  0.5094359888209  0.6071245474660  0.4920147404390 1.0
C      1  0.5533421634793  0.3816167911687  0.5528402403594 1.0
C      1  0.6875801966860  0.4960935926732  0.4821794498494 1.0
C      1  0.4829985445966  0.5261402146664  0.5440542006407 1.0
END
