TITL C-66248-7283-4 -3.1 3375.00 -500.88938242 0 0 64 (Ci) n - 1
REM
REM Run started: at 2020.12.12 10:08:37 in /rds/project/t2_vol4/rds-t2-cs072/BORA/CARBON/AIRSS/Generating-Clusters/Str-Search/Higher-Symm/C10-100
REM VASP from code version vasp.5.4.4.18Apr17-6-g9f103f2a35 (build Oct 11 2019 16:45:47) gamma-only
REM
REM
REM
REM
REM ./C.cell (f39ce9773e2efe3fa5bbdf770a4156b8)
REM AIRSS Version 0.9.1 bugfix July 2018 build 013d7b7c2542+ Fri, 06 Jul 2018 19:26:36 +0100
REM compiler GCC version 4.8.5 20150623 (Red Hat 4.8.5-39)
REM options -cpp -mtune=generic -march=x86-64 -g -O0
REM seed -2106121156 -1689528575 1824539756 -633053324 842166773 -872475259 2142432375 2108456159 -1245653268 -171682075 407241685 1664855064
REM
REM C.POTCAR (d86ddea03c3ceb6dc662c8ad6801f873)
REM 
CELL 1.54180   15.00000   15.00000   15.00000   90.00000   90.00000   90.00000
LATT -1
SFAC C  
C      1  0.3276048937213  0.5526978289483  0.2889978562061 1.0
C      1  0.6723955618201  0.4473034223379  0.7110024024003 1.0
C      1  0.2971223097040  0.4443898737393  0.4697734660969 1.0
C      1  0.7028779284809  0.5556104315363  0.5302252933091 1.0
C      1  0.7140736433345  0.5612759876196  0.2380535250112 1.0
C      1  0.2859251490165  0.4387232076474  0.7619454997102 1.0
C      1  0.4478905056506  0.4998164114981  0.3887667674384 1.0
C      1  0.5521100985671  0.5001840043541  0.6112342249384 1.0
C      1  0.6079424293524  0.6269638409345  0.7201918349443 1.0
C      1  0.3920586483739  0.3730376165106  0.2798082851134 1.0
C      1  0.4243050437666  0.6806925116826  0.3162131727648 1.0
C      1  0.5756942504225  0.3193073550995  0.6837871173445 1.0
C      1  0.6114791141669  0.6870335279044  0.4808689963241 1.0
C      1  0.3885207241918  0.3129667461334  0.5191312761753 1.0
C      1  0.2505301443917  0.5605378838580  0.3378334178600 1.0
C      1  0.7494687456660  0.4394626281868  0.6621657082313 1.0
C      1  0.3585210174078  0.4107465201650  0.7267773850889 1.0
C      1  0.6414780265812  0.5892534637966  0.2732227137336 1.0
C      1  0.4767505425559  0.5627951023938  0.5835394977833 1.0
C      1  0.5232493945674  0.4372041104573  0.4164611427801 1.0
C      1  0.8253266700094  0.5204638467936  0.4358980207190 1.0
C      1  0.1746724843549  0.4795360463905  0.5641003189230 1.0
C      1  0.3561423989805  0.6977590367523  0.4482948492566 1.0
C      1  0.6438571100429  0.3022410933242  0.5517061999891 1.0
C      1  0.3453723637468  0.3827632182624  0.3588778389399 1.0
C      1  0.6546282232598  0.6172379560223  0.6411220493110 1.0
C      1  0.3375582189785  0.3571364002183  0.4501994175893 1.0
C      1  0.6624419486169  0.6428636083638  0.5498003525549 1.0
C      1  0.4569487383277  0.6589377945636  0.5632623080251 1.0
C      1  0.5430512988613  0.3410615851298  0.4367385263613 1.0
C      1  0.6272171707027  0.4865747566447  0.5324327674311 1.0
C      1  0.3727835941140  0.5134247780829  0.4675681924656 1.0
C      1  0.5269969586139  0.5786182450304  0.4093902191735 1.0
C      1  0.4730037326030  0.4213804946705  0.5906106907564 1.0
C      1  0.4389615307407  0.7110988401179  0.4034537659153 1.0
C      1  0.5610384535324  0.2889010921736  0.5965479836614 1.0
C      1  0.7849235966477  0.5341267592209  0.2823167787504 1.0
C      1  0.2150750222541  0.4658714126568  0.7176808646819 1.0
C      1  0.3591275964265  0.6681113718630  0.5343740122953 1.0
C      1  0.6408728180009  0.3318877548239  0.4656265178841 1.0
C      1  0.4829273035034  0.7090951784079  0.6453994242611 1.0
C      1  0.5170730244955  0.2909044670944  0.3546007353544 1.0
C      1  0.4256352282968  0.4984219137394  0.5486545181152 1.0
C      1  0.5743645953152  0.5015771505177  0.4513466938618 1.0
C      1  0.2124682853541  0.4887630823962  0.4838339411885 1.0
C      1  0.7875318668299  0.5112375416329  0.5161636532631 1.0
C      1  0.6167901075063  0.5311779909167  0.6847807500622 1.0
C      1  0.3832100687554  0.4688234542717  0.3152201546586 1.0
C      1  0.6233982902632  0.3691195865675  0.7323914425360 1.0
C      1  0.3766034606117  0.6308823550429  0.2676075632440 1.0
C      1  0.5933175455157  0.6249542981878  0.3431018499069 1.0
C      1  0.4066824346397  0.3750449732416  0.6568985967353 1.0
C      1  0.3602464005990  0.3105805823148  0.6086981803537 1.0
C      1  0.6397529192114  0.6894194734486  0.3913020060859 1.0
C      1  0.8368127637050  0.5258461110454  0.3504261206176 1.0
C      1  0.1631866387381  0.4741530716310  0.6495716354739 1.0
C      1  0.4904562551672  0.3272745287396  0.5306629954827 1.0
C      1  0.5095441636854  0.6727251912781  0.4693378009951 1.0
C      1  0.2329457409278  0.5696951730573  0.4252827759691 1.0
C      1  0.7670545052530  0.4303057260602  0.5747166020892 1.0
C      1  0.6794060679326  0.3955579545439  0.5321279893148 1.0
C      1  0.3205941491631  0.6044414019791  0.4678724916276 1.0
C      1  0.4659124729982  0.3172541941249  0.2950949187076 1.0
C      1  0.5340876109785  0.6827460338514  0.7049059021572 1.0
END
