TITL C-6603-1109-136 -1.991 3375.00 -316.32962911 0 0 40 (C1) n - 1
REM
REM Run started: at 2020.12.18 19:08:43 in /gpfs/home/chem/mssmkc/CARBON/AIRSS/Generating-Clusters/Str-Search/Higher-Symm/C4-100
REM VASP from code version vasp.5.4.4.18Apr17-6-g9f103f2a35 (build Oct 11 2019 16:45:47) gamma-only
REM
REM
REM
REM
REM ./C.cell (6bd13a13d554368a30d355f37ece5b26)
REM AIRSS Version 0.9.1 bugfix July 2018 build 013d7b7c2542+ Fri, 06 Jul 2018 19:26:36 +0100
REM compiler GCC version 6.3.0
REM options -cpp -iprefix /gpfs/warwick/csc/orac/software/Core/GCCcore/6.3.0/bin/../lib/gcc/x86_64-pc-linux-gnu/6.3.0/ -mtune=generic -march=x86-64 -g -O0
REM seed -234433484 1181959330 -1010936728 507908853 -301933387 -1007950451 376548908 -113682923 -1913930118 828209635 -665262935 -1320476098
REM
REM C.POTCAR (d86ddea03c3ceb6dc662c8ad6801f873)
REM 
CELL 1.54180   15.00000   15.00000   15.00000   90.00000   90.00000   90.00000
LATT -1
SFAC C  
C      1  0.4203741104584  0.5468170609245  0.2798615223016 1.0
C      1  0.3100528362911  0.4088682507744  0.5393541474009 1.0
C      1  0.4900692098959  0.6734259866358  0.4381522939363 1.0
C      1  0.5648097958240  0.5293498332930  0.4278623814883 1.0
C      1  0.6453376082703  0.4738323287941  0.4099551489364 1.0
C      1  0.6288538225190  0.3758547664827  0.4184044090760 1.0
C      1  0.5064456127856  0.5008995141629  0.4978307607249 1.0
C      1  0.4175705046866  0.5381263641800  0.5052540640156 1.0
C      1  0.3259284631590  0.3410156880987  0.3787951795992 1.0
C      1  0.5758108588490  0.6407503290317  0.6226730986558 1.0
C      1  0.7344814014499  0.6001160819841  0.4542448622983 1.0
C      1  0.6268672110717  0.4225708038739  0.5733297480305 1.0
C      1  0.6432001009971  0.3456886227644  0.5071375745748 1.0
C      1  0.4054236011341  0.6438328626682  0.5737664576621 1.0
C      1  0.2807489174685  0.4776075426847  0.4789648803808 1.0
C      1  0.3881582712930  0.4857541292573  0.6558999733765 1.0
C      1  0.3807224026676  0.4963476527470  0.3473136920818 1.0
C      1  0.5148777479141  0.2836257408723  0.5752981682156 1.0
C      1  0.3472460753009  0.5416018473080  0.4328885238460 1.0
C      1  0.5335496377279  0.7078576967018  0.5121842633628 1.0
C      1  0.4513284890716  0.5043728216612  0.7225124215657 1.0
C      1  0.5306717096988  0.5275653647226  0.7328209622649 1.0
C      1  0.5953465348578  0.5549381566061  0.6682891862896 1.0
C      1  0.4933630977403  0.5834015866963  0.3043683704919 1.0
C      1  0.5937079034762  0.2728556656590  0.5458932246695 1.0
C      1  0.5280313908616  0.4319821378768  0.5598125391451 1.0
C      1  0.3942372472922  0.3974281690174  0.3471823574355 1.0
C      1  0.3786639077817  0.5551879844008  0.5955353714592 1.0
C      1  0.4663808113461  0.3639790095803  0.5885015782418 1.0
C      1  0.4891953361861  0.6820402905874  0.5957604519591 1.0
C      1  0.3765110465111  0.4011497413789  0.6062797907140 1.0
C      1  0.7223440279057  0.5186226952964  0.4246450039627 1.0
C      1  0.5380776642313  0.6103699632917  0.3790584198200 1.0
C      1  0.4827081181340  0.3653766554380  0.3319422517230 1.0
C      1  0.2876587768712  0.3888516557898  0.4483930834521 1.0
C      1  0.5579198794582  0.3473266435873  0.3623856983797 1.0
C      1  0.7002294701338  0.6555714448394  0.5085908886205 1.0
C      1  0.4012621710303  0.6361145074339  0.4704140305811 1.0
C      1  0.6487600474900  0.4877472716017  0.6304023832113 1.0
C      1  0.6230743801580  0.6811752312954  0.5480404360489 1.0
END
