TITL C-66248-7283-12 -3.963 3375.00 -668.11495481 0 0 82 (C1) n - 1
REM
REM Run started: at 2020.12.12 12:12:43 in /rds/project/t2_vol4/rds-t2-cs072/BORA/CARBON/AIRSS/Generating-Clusters/Str-Search/Higher-Symm/C10-100
REM VASP from code version vasp.5.4.4.18Apr17-6-g9f103f2a35 (build Oct 11 2019 16:45:47) gamma-only
REM
REM
REM
REM
REM ./C.cell (f39ce9773e2efe3fa5bbdf770a4156b8)
REM AIRSS Version 0.9.1 bugfix July 2018 build 013d7b7c2542+ Fri, 06 Jul 2018 19:26:36 +0100
REM compiler GCC version 4.8.5 20150623 (Red Hat 4.8.5-39)
REM options -cpp -mtune=generic -march=x86-64 -g -O0
REM seed -1174838380 -27946338 -693845873 -644597898 1117412426 508097978 -1903442492 1025605518 780390089 1233741419 1122543385 1663928253
REM
REM C.POTCAR (d86ddea03c3ceb6dc662c8ad6801f873)
REM 
CELL 1.54180   15.00000   15.00000   15.00000   90.00000   90.00000   90.00000
LATT -1
SFAC C  
C      1  0.3694646883031  0.6014875307578  0.4189092158222 1.0
C      1  0.4855740038307  0.3112897099587  0.7164850766032 1.0
C      1  0.3915404432558  0.7681132764189  0.4326004264183 1.0
C      1  0.5572026970717  0.4928349121618  0.3457800346572 1.0
C      1  0.3002173244970  0.5371686817418  0.6387787134720 1.0
C      1  0.5765278421686  0.2911398786763  0.7046126271038 1.0
C      1  0.3009305822561  0.5352575142838  0.3790837168643 1.0
C      1  0.6890405594170  0.7139899962502  0.5162667994444 1.0
C      1  0.2575960898565  0.5777430863249  0.2734358692148 1.0
C      1  0.6020505753559  0.5529314168608  0.4970867393134 1.0
C      1  0.6705459722313  0.6786047784614  0.6039574344154 1.0
C      1  0.4694715006098  0.5186424380846  0.3290105751798 1.0
C      1  0.5167217343648  0.6187410858329  0.7801477560366 1.0
C      1  0.6329686050377  0.5346310333839  0.1901528111457 1.0
C      1  0.5746529840062  0.4055138477076  0.2920230189092 1.0
C      1  0.3448144807655  0.3344177108337  0.6438575675057 1.0
C      1  0.6693803259680  0.5912240467425  0.5618443224715 1.0
C      1  0.7099884558415  0.4034882435214  0.3948843986466 1.0
C      1  0.4164796204655  0.4397679989264  0.3152838395975 1.0
C      1  0.4365345243033  0.7466261089933  0.5871537589052 1.0
C      1  0.3485854370465  0.4034297980845  0.7151551796778 1.0
C      1  0.4562149001730  0.2357902471164  0.5721447996248 1.0
C      1  0.5661825414129  0.2326366842628  0.4592133365091 1.0
C      1  0.3299545254945  0.6891153890802  0.4643273492377 1.0
C      1  0.4671245489039  0.7554453123674  0.3769757854385 1.0
C      1  0.4582016755628  0.7905966642773  0.5056928689008 1.0
C      1  0.4598754036639  0.2859098359214  0.2810771590759 1.0
C      1  0.3365084281084  0.3002927181408  0.4813449819185 1.0
C      1  0.2984600895179  0.3410163543299  0.5606797906310 1.0
C      1  0.6569448355417  0.3481032123975  0.6961931578182 1.0
C      1  0.3339704477036  0.4399008232881  0.3658826524856 1.0
C      1  0.4922557255124  0.4298240341694  0.5121914637329 1.0
C      1  0.4387493515343  0.6062791041267  0.3484517421594 1.0
C      1  0.2349903353988  0.5715416979424  0.5712462368484 1.0
C      1  0.4893344542551  0.4406972216959  0.6668157613302 1.0
C      1  0.6485047098110  0.6788414028890  0.2943298941467 1.0
C      1  0.5599894510904  0.6747836324145  0.2640237175651 1.0
C      1  0.6091772575925  0.2446056774845  0.6252200248676 1.0
C      1  0.6380729617469  0.3536206379431  0.3503628193781 1.0
C      1  0.2399454081774  0.6340139573421  0.4979590586228 1.0
C      1  0.2989290507230  0.4773921936142  0.7060176986186 1.0
C      1  0.6157522107525  0.7151829356002  0.6681938248377 1.0
C      1  0.4949959863751  0.5417202774877  0.8127090132072 1.0
C      1  0.5512880624051  0.2246544936627  0.5558663337497 1.0
C      1  0.7120998010633  0.3379772480996  0.4660413842533 1.0
C      1  0.6937243339082  0.2954466578382  0.6241986802406 1.0
C      1  0.4352199834188  0.4460508649182  0.5860592811930 1.0
C      1  0.7445827527518  0.5274368355493  0.5497735845887 1.0
C      1  0.6341256500863  0.2874390490818  0.4213858326945 1.0
C      1  0.4774883863442  0.2206207457825  0.4194895260350 1.0
C      1  0.5364509298515  0.6752099446913  0.7139054259573 1.0
C      1  0.7311899148459  0.4451504065308  0.5915599696998 1.0
C      1  0.3788316951907  0.5209868531087  0.5812293792620 1.0
C      1  0.6219777125301  0.5305962876132  0.4018390774347 1.0
C      1  0.4017625321866  0.5865696734887  0.5190528803839 1.0
C      1  0.3870392934019  0.6759874851052  0.5454424340820 1.0
C      1  0.4765628226540  0.3743511356082  0.2807551884760 1.0
C      1  0.4754676031899  0.4586123011359  0.8255454912627 1.0
C      1  0.4957487984500  0.7476430887259  0.6607543895711 1.0
C      1  0.5603997903947  0.4860795739578  0.5431438322200 1.0
C      1  0.6795195855002  0.6995697250582  0.3796119137269 1.0
C      1  0.6150664323828  0.4584987942990  0.2182987221231 1.0
C      1  0.4794979014366  0.6822302638151  0.3156902750836 1.0
C      1  0.4611458380182  0.2173631865889  0.3288275728607 1.0
C      1  0.2101350587329  0.4943170696840  0.5126926440087 1.0
C      1  0.2043692652916  0.5665875173509  0.3411413149021 1.0
C      1  0.4486689030255  0.4017619940448  0.7491991098770 1.0
C      1  0.2501106202501  0.4102782207103  0.5073386542943 1.0
C      1  0.6614244088591  0.4378987404756  0.6641705866534 1.0
C      1  0.7149852161980  0.4995082526730  0.4002385324939 1.0
C      1  0.5736838331696  0.8040082936995  0.6634661377558 1.0
C      1  0.6237919277699  0.6208935470236  0.2226550899906 1.0
C      1  0.4110622046750  0.2421001693210  0.4865794498716 1.0
C      1  0.5755813602669  0.4691186835910  0.6399062086448 1.0
C      1  0.4231570767711  0.2773772146769  0.6498456307944 1.0
C      1  0.7335596424187  0.6553407256982  0.4478136404389 1.0
C      1  0.3006232738836  0.3771790457107  0.4274599756806 1.0
C      1  0.7319001882776  0.3511677832233  0.5561450322780 1.0
C      1  0.7646911543986  0.5615714619493  0.4576718295558 1.0
C      1  0.5362193883454  0.7805199355405  0.4448521578643 1.0
C      1  0.6266565256390  0.7499113648721  0.4475261359542 1.0
C      1  0.2157673863122  0.5576319571975  0.4352631756834 1.0
END
