TITL C-6603-1109-213 -1.963 3375.00 -317.63732378 0 0 40 (C1) n - 1
REM
REM Run started: at 2020.12.19 12:12:41 in /gpfs/home/chem/mssmkc/CARBON/AIRSS/Generating-Clusters/Str-Search/Higher-Symm/C4-100
REM VASP from code version vasp.5.4.4.18Apr17-6-g9f103f2a35 (build Oct 11 2019 16:45:47) gamma-only
REM
REM
REM
REM
REM ./C.cell (6bd13a13d554368a30d355f37ece5b26)
REM AIRSS Version 0.9.1 bugfix July 2018 build 013d7b7c2542+ Fri, 06 Jul 2018 19:26:36 +0100
REM compiler GCC version 6.3.0
REM options -cpp -iprefix /gpfs/warwick/csc/orac/software/Core/GCCcore/6.3.0/bin/../lib/gcc/x86_64-pc-linux-gnu/6.3.0/ -mtune=generic -march=x86-64 -g -O0
REM seed 998217818 -1159490253 -870530366 837384071 805809669 1723269896 1251458716 821498108 -1068381280 -33092481 -98930959 -1636986394
REM
REM C.POTCAR (d86ddea03c3ceb6dc662c8ad6801f873)
REM 
CELL 1.54180   15.00000   15.00000   15.00000   90.00000   90.00000   90.00000
LATT -1
SFAC C  
C      1  0.3230019041184  0.4488629546959  0.3956461112890 1.0
C      1  0.5015093951967  0.4799900120811  0.6822267226761 1.0
C      1  0.7165890951300  0.4447047325221  0.3913325764003 1.0
C      1  0.2990806377653  0.5629968386912  0.6136012206865 1.0
C      1  0.5216435555705  0.5712524622263  0.3359561782538 1.0
C      1  0.6844192007609  0.5954877440480  0.6075222126261 1.0
C      1  0.5586675399720  0.3033986694897  0.5139073902079 1.0
C      1  0.4861429809073  0.3010848009222  0.4537532016844 1.0
C      1  0.4678813951195  0.3115456809466  0.5480786793359 1.0
C      1  0.5521431208854  0.6856899999585  0.5031753414781 1.0
C      1  0.4848997332635  0.6880680803902  0.5698351452674 1.0
C      1  0.4591043701080  0.6870167620812  0.4786325252031 1.0
C      1  0.4184423320707  0.4386478458474  0.6632752002201 1.0
C      1  0.7057094726503  0.3998014215818  0.4753108951464 1.0
C      1  0.3988871566799  0.4068252995156  0.3560899555706 1.0
C      1  0.4293272027466  0.5780447927467  0.3506770486059 1.0
C      1  0.6932862533704  0.5772041916613  0.5178296553555 1.0
C      1  0.3741682892377  0.5992074646777  0.6584526664312 1.0
C      1  0.5851865692871  0.4422641059250  0.5446559819340 1.0
C      1  0.5544625658543  0.4186767774195  0.3758330419006 1.0
C      1  0.3374288331850  0.3965441264584  0.5357504155300 1.0
C      1  0.5645116848570  0.5651312160835  0.4262260492077 1.0
C      1  0.5265165369976  0.5762227810224  0.6856398728598 1.0
C      1  0.3201595204151  0.6171857957187  0.4723168152014 1.0
C      1  0.5704817978728  0.4924653152805  0.3059531277860 1.0
C      1  0.2806883295303  0.5528540553700  0.5195934232322 1.0
C      1  0.6212556673543  0.5642017807262  0.6603793832638 1.0
C      1  0.5809549914129  0.4742041759550  0.6337813736576 1.0
C      1  0.2924233661870  0.4552933251978  0.4848257715756 1.0
C      1  0.6415024190748  0.4402511477922  0.3279122220091 1.0
C      1  0.4758643645053  0.3576195937759  0.3777678197711 1.0
C      1  0.4049633963397  0.3699486940870  0.5918322118942 1.0
C      1  0.6370501569987  0.3597848912837  0.5256313167032 1.0
C      1  0.4615149582944  0.6373847318281  0.6479485333860 1.0
C      1  0.3981429431167  0.6356622090559  0.4251866616871 1.0
C      1  0.6198888033606  0.6247921529394  0.4734623522257 1.0
C      1  0.3539008714095  0.5080769588248  0.6699393092383 1.0
C      1  0.3771325583218  0.4980098371941  0.3365040916329 1.0
C      1  0.7276870781148  0.4964494221762  0.4709650066460 1.0
C      1  0.5563077519571  0.4769326518024  0.4610294922191 1.0
END
