TITL C-6620-4778-19 -5.585 3375.00 -970.33752291 0 0 120 (C1) n - 1
REM
REM Run started: at 2020.12.18 09:00:26 in /gpfs/home/chem/mssmkc/CARBON/AIRSS/Generating-Clusters/Str-Search/Higher-Symm
REM VASP from code version vasp.5.4.4.18Apr17-6-g9f103f2a35 (build Oct 11 2019 16:45:47) gamma-only
REM
REM
REM
REM
REM ./C.cell (533062f00bc710175b3da973d35f2034)
REM AIRSS Version 0.9.1 bugfix July 2018 build 013d7b7c2542+ Fri, 06 Jul 2018 19:26:36 +0100
REM compiler GCC version 6.3.0
REM options -cpp -iprefix /gpfs/warwick/csc/orac/software/Core/GCCcore/6.3.0/bin/../lib/gcc/x86_64-pc-linux-gnu/6.3.0/ -mtune=generic -march=x86-64 -g -O0
REM seed -1672234790 2047950744 321658029 2132744985 -631834058 -1528310762 -1971567392 -937247335 -1372075613 -2088798525 2004538373 940215104
REM
REM C.POTCAR (d86ddea03c3ceb6dc662c8ad6801f873)
REM 
CELL 1.54180   15.00000   15.00000   15.00000   90.00000   90.00000   90.00000
LATT -1
SFAC C  
C      1  0.5023643174910  0.3413274114402  0.1701006690096 1.0
C      1  0.5954302432665  0.3776395753194  0.1920554921930 1.0
C      1  0.3428511769802  0.3623064538095  0.7971853708893 1.0
C      1  0.5134983370892  0.6858394368542  0.2469745977645 1.0
C      1  0.2571109632221  0.7014369707255  0.4417500237892 1.0
C      1  0.5997425738871  0.6873515333743  0.2933888752558 1.0
C      1  0.5607717876451  0.3305338302709  0.4625600782392 1.0
C      1  0.5321306682718  0.5300104977979  0.3973535476693 1.0
C      1  0.3026918162138  0.5837236062838  0.2735603171252 1.0
C      1  0.8297754798541  0.3318636047068  0.6950887534712 1.0
C      1  0.2680402088100  0.5566348963362  0.3652257240093 1.0
C      1  0.6457971080592  0.2904825636861  0.6632652049946 1.0
C      1  0.5614709886651  0.2210581817781  0.4757478761675 1.0
C      1  0.4055006137434  0.3296491935835  0.5671682227017 1.0
C      1  0.4451996834847  0.3950410565347  0.3208863207311 1.0
C      1  0.7730810220932  0.5153334856919  0.5269265480941 1.0
C      1  0.3172951698953  0.2567894087730  0.4471823364972 1.0
C      1  0.4292747708035  0.5126710774673  0.8202962153637 1.0
C      1  0.4325409637940  0.3951650160065  0.1416532830734 1.0
C      1  0.7378720734176  0.3301787905812  0.6638299968616 1.0
C      1  0.4538553622425  0.5412988203645  0.2699289583662 1.0
C      1  0.3604554014747  0.1860950008993  0.4994780733141 1.0
C      1  0.3411481563728  0.6680531573650  0.2834851747391 1.0
C      1  0.4890705340174  0.2749382869863  0.4270782869581 1.0
C      1  0.3459593816261  0.5473704601792  0.7892042136656 1.0
C      1  0.3610790400783  0.5063850965284  0.2379714029951 1.0
C      1  0.3588153720931  0.4206440379915  0.2897235329887 1.0
C      1  0.3994285627235  0.6423949306769  0.4283309458233 1.0
C      1  0.7200207448141  0.3041688110901  0.4901062580736 1.0
C      1  0.3465754031473  0.3971831231379  0.5199314350525 1.0
C      1  0.7471609680358  0.4720109927978  0.3259117702034 1.0
C      1  0.6015141307145  0.3124269577286  0.2664184957774 1.0
C      1  0.6217707624961  0.5910993477215  0.3868076604191 1.0
C      1  0.2468378207265  0.5422991853369  0.6628043475928 1.0
C      1  0.4571635647732  0.1871717214099  0.6326214079720 1.0
C      1  0.3854146413777  0.5360441445657  0.5704573329212 1.0
C      1  0.4530082627076  0.8398074099594  0.3982438902532 1.0
C      1  0.2659150621849  0.3453925441628  0.4804666039750 1.0
C      1  0.5579677610908  0.4280435878586  0.7283517606319 1.0
C      1  0.6034705804466  0.5551009343490  0.2026315449362 1.0
C      1  0.3403366147389  0.6339074915172  0.5767598131704 1.0
C      1  0.5142720148880  0.5612129235369  0.8009681901401 1.0
C      1  0.4398245907036  0.5058432706658  0.6417140168937 1.0
C      1  0.6561884224617  0.3157862036133  0.3413944150762 1.0
C      1  0.6436550699725  0.4286544986703  0.5583608695024 1.0
C      1  0.7898383461074  0.5947113797479  0.3966907804358 1.0
C      1  0.7251044656258  0.3823020950124  0.3544622549341 1.0
C      1  0.4047377324880  0.7793475153781  0.3447557880083 1.0
C      1  0.5038228194690  0.4679010264629  0.3188082761995 1.0
C      1  0.5827484635431  0.6703163392810  0.5724354704340 1.0
C      1  0.2738326606384  0.3473654356571  0.6553483938939 1.0
C      1  0.4620078592348  0.4312137199117  0.6988002785802 1.0
C      1  0.6185896288650  0.4640742964334  0.1965772678148 1.0
C      1  0.6879739781741  0.5128630292998  0.5684765979335 1.0
C      1  0.3007395371214  0.6249700979488  0.6657964540782 1.0
C      1  0.4194862521785  0.6777925962957  0.5320264558093 1.0
C      1  0.4146927059951  0.3080154560687  0.7934780281558 1.0
C      1  0.4331290458690  0.6886140372178  0.7464796851413 1.0
C      1  0.7388849186831  0.6634928744954  0.5595297588324 1.0
C      1  0.6974780852260  0.3456491368721  0.5751975394691 1.0
C      1  0.3789476650865  0.4593086836393  0.1503307813850 1.0
C      1  0.7320306131024  0.7456753984386  0.6108710663149 1.0
C      1  0.2042624850896  0.5334701054267  0.4899539789607 1.0
C      1  0.6628294992968  0.6070437123560  0.6000519688726 1.0
C      1  0.2554829550446  0.3989123125861  0.5715168033226 1.0
C      1  0.6781887355484  0.5379998123939  0.7560157812033 1.0
C      1  0.5028164743551  0.4847774550419  0.4871505539983 1.0
C      1  0.4403361951573  0.8315549504596  0.4952905749351 1.0
C      1  0.5144247370136  0.5951721151193  0.2136309651531 1.0
C      1  0.3447460190433  0.2760502542186  0.6394560678447 1.0
C      1  0.2768728079971  0.3951935930807  0.7359504340103 1.0
C      1  0.7808985406397  0.6094691298566  0.4914339571944 1.0
C      1  0.3663117557521  0.5472907344706  0.4147776531317 1.0
C      1  0.3776446712995  0.7680544103966  0.5328208871858 1.0
C      1  0.6257670650192  0.2119099459221  0.6156404757516 1.0
C      1  0.5877966710314  0.5051998076742  0.7760467246870 1.0
C      1  0.5447577828095  0.1933500292323  0.5757352353589 1.0
C      1  0.5215167855141  0.8267819120327  0.5402649980766 1.0
C      1  0.6034430846887  0.6891833472179  0.7362518027435 1.0
C      1  0.7429219626861  0.4771657278781  0.7492787204443 1.0
C      1  0.5026108469535  0.6379679070247  0.5627961533437 1.0
C      1  0.6709179627869  0.6236121938864  0.7037246059620 1.0
C      1  0.6848187421400  0.7225117567606  0.6993751733125 1.0
C      1  0.4876146413579  0.5445440363430  0.5676450821599 1.0
C      1  0.5661966956414  0.4117121506845  0.5083766582519 1.0
C      1  0.8114987903541  0.4501396987496  0.4679879109741 1.0
C      1  0.4300984117994  0.2668719646927  0.6998330422700 1.0
C      1  0.2207396062029  0.4971492111753  0.5770634368067 1.0
C      1  0.4146965982859  0.2670399424039  0.4885480511319 1.0
C      1  0.6549827021818  0.6116678287241  0.2609649534190 1.0
C      1  0.3433897098938  0.2806524676519  0.3544919194942 1.0
C      1  0.3916225439565  0.4800328161406  0.4864833909432 1.0
C      1  0.5721826188376  0.3513352084068  0.6802886330895 1.0
C      1  0.4471829381718  0.2934726933193  0.3346965938432 1.0
C      1  0.7079561012468  0.5685870720200  0.3345283320953 1.0
C      1  0.8150394446066  0.5030924338415  0.3872811743924 1.0
C      1  0.6425588939197  0.2749813287073  0.4361356612833 1.0
C      1  0.6810584753530  0.7756312960391  0.5345604318487 1.0
C      1  0.2232702296265  0.6157719250913  0.4346007051850 1.0
C      1  0.2976832001554  0.3599744073664  0.3293913454302 1.0
C      1  0.5169380216873  0.6572500336485  0.7726884509988 1.0
C      1  0.2947844024290  0.7229313805849  0.5275298184954 1.0
C      1  0.2751821640419  0.4932098070801  0.7391654244375 1.0
C      1  0.4486572249906  0.5787385160186  0.3676113937242 1.0
C      1  0.3556206033813  0.6337706103010  0.7432472144221 1.0
C      1  0.4261053794732  0.7221728112317  0.2704053062031 1.0
C      1  0.6214173032170  0.8483149703322  0.3961139741550 1.0
C      1  0.7681329006640  0.3680428264570  0.4403953644789 1.0
C      1  0.5421660611926  0.8635843548909  0.3768945783492 1.0
C      1  0.6626693641651  0.7684777283449  0.4327253998079 1.0
C      1  0.7785258462703  0.3998007562182  0.7303013499283 1.0
C      1  0.6279865950104  0.6935688114402  0.3877513784415 1.0
C      1  0.5075887556972  0.2868224787136  0.2512848088591 1.0
C      1  0.4256592586630  0.4141254220486  0.7938446630700 1.0
C      1  0.3685535877898  0.1867607389986  0.5962698780008 1.0
C      1  0.4749140611140  0.3428499795883  0.6485712544417 1.0
C      1  0.2394029593649  0.3922049658053  0.3990089602844 1.0
C      1  0.2188011890158  0.4804711216896  0.4085246210869 1.0
C      1  0.5865317921369  0.7698815805640  0.5605434653777 1.0
C      1  0.3358319782354  0.7097102633568  0.3756679245646 1.0
END
