TITL C-6603-1109-211 -4.746 3375.00 -825.05853215 0 0 96 (C1) n - 1
REM
REM Run started: at 2020.12.19 11:56:15 in /gpfs/home/chem/mssmkc/CARBON/AIRSS/Generating-Clusters/Str-Search/Higher-Symm/C4-100
REM VASP from code version vasp.5.4.4.18Apr17-6-g9f103f2a35 (build Oct 11 2019 16:45:47) gamma-only
REM
REM
REM
REM
REM ./C.cell (6bd13a13d554368a30d355f37ece5b26)
REM AIRSS Version 0.9.1 bugfix July 2018 build 013d7b7c2542+ Fri, 06 Jul 2018 19:26:36 +0100
REM compiler GCC version 6.3.0
REM options -cpp -iprefix /gpfs/warwick/csc/orac/software/Core/GCCcore/6.3.0/bin/../lib/gcc/x86_64-pc-linux-gnu/6.3.0/ -mtune=generic -march=x86-64 -g -O0
REM seed 927135423 -496546271 837693956 2030143236 1093008257 368939627 -292301710 -262506974 1528652746 1921708952 -576607097 -1206942995
REM
REM C.POTCAR (d86ddea03c3ceb6dc662c8ad6801f873)
REM 
CELL 1.54180   15.00000   15.00000   15.00000   90.00000   90.00000   90.00000
LATT -1
SFAC C  
C      1  0.2969548179742  0.3815890030998  0.3004671648043 1.0
C      1  0.2591012749562  0.5573200564977  0.3025082746677 1.0
C      1  0.3203708452511  0.6835429597140  0.2462606825357 1.0
C      1  0.4007620573414  0.7304507898070  0.2623606709026 1.0
C      1  0.5735221361690  0.7323588590548  0.2855269855387 1.0
C      1  0.6549729449784  0.6863382097918  0.2910900346541 1.0
C      1  0.7383194201851  0.5316781576471  0.2942234792675 1.0
C      1  0.7306775116239  0.4379054152773  0.2947677210412 1.0
C      1  0.6211338082038  0.3006993464906  0.2954502512247 1.0
C      1  0.5318336930988  0.2712406958665  0.2962287608880 1.0
C      1  0.3633371418932  0.3154043875117  0.2994043047660 1.0
C      1  0.2534067976295  0.5627272405688  0.6077018088155 1.0
C      1  0.2753491760874  0.6453395073672  0.5633203951087 1.0
C      1  0.3540799200128  0.6926762430810  0.5858481680517 1.0
C      1  0.5409980966419  0.7138565583422  0.6118093265992 1.0
C      1  0.6345133055138  0.6877010699276  0.6147537225567 1.0
C      1  0.7492549381169  0.5327101573233  0.6194821121413 1.0
C      1  0.7460278908268  0.4366497268618  0.6205660513166 1.0
C      1  0.6318582025021  0.2827924171420  0.6211526981692 1.0
C      1  0.5413779718302  0.2493700774048  0.6212392270501 1.0
C      1  0.3563233351116  0.3026792372785  0.6262722611896 1.0
C      1  0.2985211179545  0.3808926146072  0.6287259871729 1.0
C      1  0.4012165281180  0.5883314029994  0.8037242425773 1.0
C      1  0.4637002325940  0.6430325469509  0.8388677025059 1.0
C      1  0.5292125934718  0.6599113728816  0.7738836241306 1.0
C      1  0.6168231220945  0.6278852972695  0.7700132360133 1.0
C      1  0.6688434212695  0.5375134223880  0.7728450152910 1.0
C      1  0.6619357457619  0.4444897459436  0.7722815586458 1.0
C      1  0.6022454866740  0.3588323189716  0.7727517825155 1.0
C      1  0.5181232322068  0.3205101495953  0.7754651356969 1.0
C      1  0.4199343776900  0.3434806018449  0.7748332931765 1.0
C      1  0.3793739603114  0.4251221653023  0.7675369259274 1.0
C      1  0.4391119542437  0.5013629485234  0.7763175736253 1.0
C      1  0.6812553233478  0.6605749293849  0.5355234310821 1.0
C      1  0.7369473363295  0.5811032884489  0.5375962344565 1.0
C      1  0.7308848771290  0.3884130185790  0.5391278806181 1.0
C      1  0.6723556036958  0.3113150485678  0.5392817624956 1.0
C      1  0.4888248517332  0.2486463455175  0.5404739375430 1.0
C      1  0.3949464827025  0.2740150251644  0.5425507878835 1.0
C      1  0.2591809965582  0.4103841323182  0.5456793008619 1.0
C      1  0.2273610622975  0.4993008893716  0.5408980915939 1.0
C      1  0.2467950449380  0.6374666314267  0.4734895469248 1.0
C      1  0.4064437296963  0.7299920451498  0.5128536942744 1.0
C      1  0.5024621127146  0.7341186500702  0.5255197258872 1.0
C      1  0.3245408024506  0.5289946471214  0.2316868928938 1.0
C      1  0.3651712239116  0.6133346839604  0.1982470093481 1.0
C      1  0.4513773565431  0.6709309231315  0.2020388342015 1.0
C      1  0.5430671281670  0.6754194724532  0.2102839199118 1.0
C      1  0.6310551676729  0.6244359930808  0.2178695569674 1.0
C      1  0.6729516374069  0.5418900246195  0.2211868420559 1.0
C      1  0.6622624259402  0.4392505447019  0.2232413956836 1.0
C      1  0.6035713992511  0.3673475761718  0.2246978557072 1.0
C      1  0.5051488543698  0.3359317724104  0.2264612386368 1.0
C      1  0.4152571524207  0.3600186842295  0.2286409731283 1.0
C      1  0.3423853488451  0.4355571087776  0.2330978721073 1.0
C      1  0.2942213653554  0.5380123727974  0.6867895706956 1.0
C      1  0.3449842610852  0.6092065647255  0.7299063886328 1.0
C      1  0.3909976795633  0.6756612880624  0.6734259431240 1.0
C      1  0.4860392851782  0.6921633435319  0.6882268734304 1.0
C      1  0.6676666086174  0.6517618136213  0.6939407000110 1.0
C      1  0.7225893797332  0.5745463812225  0.6982590821450 1.0
C      1  0.7144642211114  0.4000028189767  0.7010304638332 1.0
C      1  0.6596955463926  0.3236279339932  0.7012411846504 1.0
C      1  0.4962959627250  0.2570535423260  0.7023602288279 1.0
C      1  0.4036664236478  0.2804758493975  0.7038918894678 1.0
C      1  0.3103313420549  0.4432360543362  0.7018243545139 1.0
C      1  0.5384260061177  0.2512738320760  0.4577481421431 1.0
C      1  0.3500478580866  0.2986424034957  0.4607449279136 1.0
C      1  0.2797022493505  0.3653578733574  0.4620170236531 1.0
C      1  0.2175694131387  0.5470308533916  0.4584645807268 1.0
C      1  0.2848245496083  0.6875407283503  0.4042545278947 1.0
C      1  0.3683178044801  0.7344899749329  0.4235227925627 1.0
C      1  0.5618744357752  0.7373243060161  0.4485884423314 1.0
C      1  0.6493222636808  0.6953766427865  0.4527240368901 1.0
C      1  0.7527369387516  0.5322497348956  0.4562112741133 1.0
C      1  0.7481931094835  0.4354300909738  0.4565434197030 1.0
C      1  0.6303732736288  0.2823288447972  0.4571163000655 1.0
C      1  0.3943939621816  0.2760031545227  0.3785673608077 1.0
C      1  0.2567254385742  0.4106983806571  0.3795520605742 1.0
C      1  0.2317725996772  0.5035321341305  0.3763118676050 1.0
C      1  0.2678374595591  0.6518784356796  0.3164401940272 1.0
C      1  0.4278093437340  0.7538416598705  0.3497842779781 1.0
C      1  0.5230335336610  0.7537120026898  0.3624366480302 1.0
C      1  0.6927329432759  0.6634037996590  0.3736533229176 1.0
C      1  0.7412688246769  0.5805237093141  0.3745374747865 1.0
C      1  0.7289832827391  0.3889731915583  0.3749883333838 1.0
C      1  0.6694535578997  0.3131603284673  0.3752030593893 1.0
C      1  0.4874141497234  0.2522843543982  0.3767977001159 1.0
C      1  0.5129862881474  0.4959239858898  0.6235185055915 1.0
C      1  0.5024946254837  0.5102126315134  0.2799069482920 1.0
C      1  0.5157488297140  0.4974205828805  0.5359169221411 1.0
C      1  0.4986288965025  0.5021493838965  0.1055181201945 1.0
C      1  0.5007484268727  0.5065646805595  0.1908486419328 1.0
C      1  0.4991602212686  0.5017764694662  0.7069875702400 1.0
C      1  0.5068714709849  0.5088568453854  0.3642685090838 1.0
C      1  0.5120714912989  0.5027407834078  0.4515512727494 1.0
END
