TITL C-6603-1109-42 -1.886 3375.00 -299.85364560 0 0 39 (C1) n - 1
REM
REM Run started: at 2020.12.18 00:51:18 in /gpfs/home/chem/mssmkc/CARBON/AIRSS/Generating-Clusters/Str-Search/Higher-Symm/C4-100
REM VASP from code version vasp.5.4.4.18Apr17-6-g9f103f2a35 (build Oct 11 2019 16:45:47) gamma-only
REM
REM
REM
REM
REM ./C.cell (6bd13a13d554368a30d355f37ece5b26)
REM AIRSS Version 0.9.1 bugfix July 2018 build 013d7b7c2542+ Fri, 06 Jul 2018 19:26:36 +0100
REM compiler GCC version 6.3.0
REM options -cpp -iprefix /gpfs/warwick/csc/orac/software/Core/GCCcore/6.3.0/bin/../lib/gcc/x86_64-pc-linux-gnu/6.3.0/ -mtune=generic -march=x86-64 -g -O0
REM seed 769264686 -774561355 942825881 -84468463 -766746728 -1038272783 1001703045 -1877562145 841180921 -1089886578 -1797897493 -776079205
REM
REM C.POTCAR (d86ddea03c3ceb6dc662c8ad6801f873)
REM 
CELL 1.54180   15.00000   15.00000   15.00000   90.00000   90.00000   90.00000
LATT -1
SFAC C  
C      1  0.3907649615286  0.4011647365338  0.6505561242157 1.0
C      1  0.6007957433149  0.4155764628565  0.5561448487445 1.0
C      1  0.5461400653856  0.3913474080378  0.3178731669192 1.0
C      1  0.3265630164929  0.4035815985744  0.4156920116743 1.0
C      1  0.3886470185124  0.5761519462662  0.6647656338441 1.0
C      1  0.6081582999773  0.5880247022426  0.5989795309849 1.0
C      1  0.5830245659121  0.5543349174800  0.3782166464584 1.0
C      1  0.3508487177249  0.5795535872803  0.4164135227651 1.0
C      1  0.3847239743603  0.3785232087905  0.3465134131980 1.0
C      1  0.3518399965649  0.3575631718907  0.5767699559895 1.0
C      1  0.5633310400354  0.3887613077590  0.6439148699956 1.0
C      1  0.5948824792950  0.3855942087056  0.4045480681681 1.0
C      1  0.4232632524236  0.6148399215635  0.3711975090119 1.0
C      1  0.3298388562491  0.5562608108008  0.5938179677202 1.0
C      1  0.5456254620841  0.6014804474582  0.6651750854183 1.0
C      1  0.6213601417931  0.5711479436192  0.4632274247070 1.0
C      1  0.4960224021758  0.1726820567516  0.5271700793072 1.0
C      1  0.5748631083676  0.2181910736701  0.5737415254271 1.0
C      1  0.6307312834316  0.2520521240705  0.5030744272038 1.0
C      1  0.5654263932880  0.1975370243363  0.4537448178454 1.0
C      1  0.5496524882638  0.8801039216970  0.4985848113927 1.0
C      1  0.5566471973544  0.8088690823661  0.5646844153498 1.0
C      1  0.5964057702338  0.7368376876986  0.5107099372893 1.0
C      1  0.5629655911890  0.8005357313229  0.4437600812680 1.0
C      1  0.6144745663968  0.6486935567213  0.5199859300822 1.0
C      1  0.5039562415333  0.6015595285498  0.3587034393486 1.0
C      1  0.3154394537223  0.5584413935701  0.5016314713653 1.0
C      1  0.4680519010086  0.6154767327522  0.6916714080883 1.0
C      1  0.6493073827353  0.3510915758120  0.4843325015467 1.0
C      1  0.4561188792325  0.3725762731955  0.3045444450546 1.0
C      1  0.3255827846378  0.3578398470542  0.4982424533394 1.0
C      1  0.4832566489848  0.3907775953630  0.6666659788212 1.0
C      1  0.5908697624840  0.4649472553241  0.3482269690841 1.0
C      1  0.3101474945443  0.4962382853979  0.4289356727146 1.0
C      1  0.3558220439288  0.4891408910008  0.6575049788049 1.0
C      1  0.6211043478098  0.5119942902566  0.5435336720834 1.0
C      1  0.5229888554058  0.2740911302087  0.5053975248210 1.0
C      1  0.4718482324793  0.8215117228342  0.4982189676176 1.0
C      1  0.5415413791384  0.3730096401877  0.4865335123300 1.0
END
