TITL C-6662-7152-5 -6.935 3375.00 -1162.38587548 0 0 148 (T23) n - 1
REM
REM Run started: at 2020.12.17 20:34:58 in /gpfs/home/chem/mssmkc/CARBON/AIRSS/Generating-Clusters/Str-Search/Higher-Symm
REM VASP from code version vasp.5.4.4.18Apr17-6-g9f103f2a35 (build Oct 11 2019 16:45:47) gamma-only
REM
REM
REM
REM
REM ./C.cell (533062f00bc710175b3da973d35f2034)
REM AIRSS Version 0.9.1 bugfix July 2018 build 013d7b7c2542+ Fri, 06 Jul 2018 19:26:36 +0100
REM compiler GCC version 6.3.0
REM options -cpp -iprefix /gpfs/warwick/csc/orac/software/Core/GCCcore/6.3.0/bin/../lib/gcc/x86_64-pc-linux-gnu/6.3.0/ -mtune=generic -march=x86-64 -g -O0
REM seed 645558541 -774204233 1692991130 -2067115970 144152770 -546824907 1734162893 450780551 820185485 -2013151495 1900825377 -582304185
REM
REM C.POTCAR (d86ddea03c3ceb6dc662c8ad6801f873)
REM 
CELL 1.54180   15.00000   15.00000   15.00000   90.00000   90.00000   90.00000
LATT -1
SFAC C  
C      1  0.5424587005778  0.7058248694446  0.2354482534075 1.0
C      1  0.7056881802321  0.2358699074530  0.5420950167206 1.0
C      1  0.2357405573047  0.5425395388702  0.7054125278651 1.0
C      1  0.5424111282747  0.2947338805525  0.7642653796913 1.0
C      1  0.4578779905805  0.7058251423248  0.7642669595824 1.0
C      1  0.4578748473941  0.2947239180821  0.2354905098369 1.0
C      1  0.7056736465001  0.7647002826121  0.4575415229757 1.0
C      1  0.2945835837065  0.2358792212253  0.4576131306951 1.0
C      1  0.2945867460545  0.7646431724925  0.5421450362582 1.0
C      1  0.2357301863009  0.4580316200058  0.2943133171050 1.0
C      1  0.7645575789622  0.5426120685141  0.2943304304178 1.0
C      1  0.7645232109958  0.4580160857229  0.7054171050760 1.0
C      1  0.5875296018956  0.5164831611781  0.8768983903732 1.0
C      1  0.5163508754226  0.8773302800307  0.5871330680800 1.0
C      1  0.8771287875729  0.5877513603589  0.5160882596620 1.0
C      1  0.5875592791709  0.4840658111142  0.1228501176565 1.0
C      1  0.4128710400859  0.5164813529477  0.1227972236228 1.0
C      1  0.4128382825703  0.4840938847527  0.8769144869297 1.0
C      1  0.5163308715976  0.1232369857807  0.4124711514686 1.0
C      1  0.4839158511548  0.8772901470854  0.4124588637261 1.0
C      1  0.4839686884148  0.1232177734381  0.5871658914997 1.0
C      1  0.8772376995979  0.4130714265266  0.4836588066184 1.0
C      1  0.1231093426060  0.5876955587849  0.4836615269617 1.0
C      1  0.1230777212862  0.4129997403972  0.5160297720375 1.0
C      1  0.8323872170995  0.4619734260419  0.4175396861090 1.0
C      1  0.4617990429376  0.4179762367320  0.8320899412171 1.0
C      1  0.4178285973282  0.8324867655967  0.4615317283081 1.0
C      1  0.8323402367483  0.5386655858474  0.5821741894876 1.0
C      1  0.1679066779579  0.4619732497505  0.5821450137651 1.0
C      1  0.1679252317653  0.5387037235380  0.4175461127264 1.0
C      1  0.4618050699463  0.5825986448607  0.1676265596788 1.0
C      1  0.5384872845626  0.4179750207154  0.1676504113140 1.0
C      1  0.5385195449139  0.5825787375740  0.8320806772490 1.0
C      1  0.4178521580814  0.1680495996785  0.5381980451063 1.0
C      1  0.5824676542866  0.8325038891914  0.5382096208492 1.0
C      1  0.5824365185882  0.1680583155849  0.4614646455918 1.0
C      1  0.8695844127727  0.5866314859041  0.4303951851148 1.0
C      1  0.5863339951920  0.4307930687798  0.8693295926336 1.0
C      1  0.4306494602329  0.8697651040770  0.5858839849816 1.0
C      1  0.8696632483550  0.4143205564003  0.5693566689794 1.0
C      1  0.1306758360599  0.5864747994182  0.5693524082500 1.0
C      1  0.1306236200334  0.4142093272328  0.4303390958479 1.0
C      1  0.5863894848360  0.5697646939023  0.1303893526489 1.0
C      1  0.4141420434139  0.4307784747039  0.1303688325222 1.0
C      1  0.4140568894676  0.5697880559424  0.8693758837233 1.0
C      1  0.4306350618762  0.1308021510953  0.4137182022112 1.0
C      1  0.5696047947321  0.8697536365627  0.4135875785318 1.0
C      1  0.5696624474046  0.1307646574390  0.5859458637885 1.0
C      1  0.4509833547583  0.7389835310717  0.4766024701973 1.0
C      1  0.7388665230824  0.4770424918362  0.4506966359275 1.0
C      1  0.4768807951391  0.4511101532972  0.7385662478252 1.0
C      1  0.4509795159240  0.2615765868593  0.5231105444427 1.0
C      1  0.5493100946056  0.7389895958373  0.5231133274729 1.0
C      1  0.5493037687685  0.2615787719245  0.4765869772319 1.0
C      1  0.7388443503292  0.5235520438918  0.5490233857337 1.0
C      1  0.2614309833015  0.4770411243254  0.5490175264990 1.0
C      1  0.2614383397945  0.5235624035529  0.4506897479162 1.0
C      1  0.4768986982711  0.5494399983871  0.2611437387600 1.0
C      1  0.5234089622103  0.4511150559014  0.2611555167255 1.0
C      1  0.5234092889833  0.5494354774280  0.7385686156610 1.0
C      1  0.2737372316058  0.3461607460775  0.7218130514703 1.0
C      1  0.3459832920108  0.7222589690908  0.2734861543842 1.0
C      1  0.7220595554790  0.2738711484889  0.3456608569636 1.0
C      1  0.2737349423474  0.6544807600925  0.2779358777348 1.0
C      1  0.7265107222220  0.3461199540633  0.2778928105927 1.0
C      1  0.7265810729090  0.6544226658389  0.7218197842513 1.0
C      1  0.3459960258021  0.2783574526963  0.7262606588307 1.0
C      1  0.6543327004111  0.7222328220662  0.7262648180455 1.0
C      1  0.6542478661884  0.2783020526803  0.2734039060218 1.0
C      1  0.7221050797132  0.7266964754611  0.6540100725249 1.0
C      1  0.2781951353842  0.2739090102755  0.6540202248482 1.0
C      1  0.2781734567660  0.7267515857893  0.3457469817477 1.0
C      1  0.5363660849604  0.3543697234465  0.8396460525585 1.0
C      1  0.3541617246997  0.8400562189128  0.5360640810343 1.0
C      1  0.8398996257355  0.5365907367692  0.3539960619100 1.0
C      1  0.5364001694206  0.6461766091283  0.1600930898485 1.0
C      1  0.4639635235505  0.3542972621116  0.1600694699393 1.0
C      1  0.4639744972113  0.6462209975732  0.8396508165081 1.0
C      1  0.3542095232375  0.1604950402555  0.4636610391260 1.0
C      1  0.6460121739544  0.8400461622520  0.4635907775308 1.0
C      1  0.6460795587697  0.1604886828144  0.5360084746271 1.0
C      1  0.8399289227044  0.4641324339650  0.6458428865787 1.0
C      1  0.1603576011712  0.5365138968401  0.6457800663048 1.0
C      1  0.1603493708660  0.4641397387007  0.3539193144406 1.0
C      1  0.3304061329331  0.5410713991710  0.5803394364747 1.0
C      1  0.5409085686131  0.5807704102938  0.3301210271447 1.0
C      1  0.5806518451779  0.3305219188188  0.5406334447224 1.0
C      1  0.3303769154676  0.4595184091361  0.4193505716149 1.0
C      1  0.6698806504552  0.5410576166885  0.4193727314249 1.0
C      1  0.6698886938446  0.4595081078573  0.5803373224523 1.0
C      1  0.5409287260251  0.4197925173993  0.6696043122980 1.0
C      1  0.4593856316796  0.5807760808944  0.6696085799639 1.0
C      1  0.4593596239416  0.4198121445552  0.3301138340926 1.0
C      1  0.5806211810793  0.6700084843768  0.4591001137185 1.0
C      1  0.4196429014171  0.3305371165093  0.4590666401081 1.0
C      1  0.4196827130072  0.6700125159524  0.5406292118007 1.0
C      1  0.3531076603263  0.6104382715308  0.5270288399083 1.0
C      1  0.6103361747864  0.5274622155626  0.3528019369839 1.0
C      1  0.5273367351962  0.3532134591268  0.6100314025520 1.0
C      1  0.3530611276903  0.3900905399136  0.4726538273194 1.0
C      1  0.6472023452653  0.6104693353373  0.4726804460376 1.0
C      1  0.6472379906308  0.3900661385240  0.5270476490917 1.0
C      1  0.6103137667784  0.4730920966201  0.6469193719782 1.0
C      1  0.3899688676796  0.5274632323070  0.6469133177675 1.0
C      1  0.3899315928029  0.4730994266932  0.3527713122137 1.0
C      1  0.5273226095130  0.6473354105188  0.3896670211613 1.0
C      1  0.4729614248733  0.3532370999064  0.3896994052002 1.0
C      1  0.4729690585997  0.6473577207647  0.6100757436768 1.0
C      1  0.3827602488437  0.4469713173198  0.6944918452004 1.0
C      1  0.4468210499513  0.6949267129696  0.3824710363407 1.0
C      1  0.6948148579271  0.3828978576067  0.4465235215608 1.0
C      1  0.3827571034996  0.5536272580479  0.3051885452612 1.0
C      1  0.6175353226955  0.4469619729266  0.3052193963830 1.0
C      1  0.6175250837634  0.5536088709249  0.6945022217655 1.0
C      1  0.4468326889987  0.3056515371103  0.6172309841116 1.0
C      1  0.5534914152975  0.6949394476896  0.6172544138761 1.0
C      1  0.5534681349328  0.3056593219338  0.3824799477094 1.0
C      1  0.6947807121776  0.6176773291788  0.5531828859311 1.0
C      1  0.3055035340271  0.3829142617794  0.5531677335446 1.0
C      1  0.3055151372317  0.6176706160127  0.4465279098825 1.0
C      1  0.7003107371199  0.2852677085337  0.6390326473686 1.0
C      1  0.2851344448112  0.6394219871666  0.7000407511476 1.0
C      1  0.6393236008733  0.7004620530788  0.2848327475942 1.0
C      1  0.7003204874693  0.7153093607877  0.3606719803805 1.0
C      1  0.2999622401010  0.2852681090482  0.3607094783051 1.0
C      1  0.2999555481989  0.7152679077410  0.6390541682173 1.0
C      1  0.2851215747464  0.3611004633756  0.2996976819868 1.0
C      1  0.7151655625006  0.6394759713192  0.2996768119750 1.0
C      1  0.7151589330880  0.3610965811202  0.7000440161227 1.0
C      1  0.6393108175704  0.3001091412333  0.7148685751697 1.0
C      1  0.3609643011096  0.7004281937953  0.7148751324559 1.0
C      1  0.3609395790371  0.3001017428016  0.2848646205534 1.0
C      1  0.2717759219347  0.2859452890601  0.5520627682229 1.0
C      1  0.2857875853474  0.5525283392427  0.2714828795193 1.0
C      1  0.5523124721916  0.2719124772907  0.2855000864192 1.0
C      1  0.2717818157161  0.7146575293520  0.4476855564012 1.0
C      1  0.7285144865043  0.2859198569968  0.4476183367852 1.0
C      1  0.7285039605201  0.7146638048492  0.5520669445518 1.0
C      1  0.2857808643649  0.4481045194911  0.7282197776389 1.0
C      1  0.7145021157706  0.5524720480517  0.7282341826708 1.0
C      1  0.7145186849605  0.4480725992754  0.2714917970036 1.0
C      1  0.5523721812693  0.7286594526592  0.7142304281853 1.0
C      1  0.4479413845139  0.2719351583688  0.7142104359879 1.0
C      1  0.4479399581775  0.7286626077458  0.2854909797019 1.0
C      1  0.6175095822170  0.3829339178065  0.3825093954741 1.0
C      1  0.3827909136615  0.3829326404800  0.6172040215866 1.0
C      1  0.3827943502285  0.6176377260026  0.3824965750837 1.0
C      1  0.6174992097272  0.6176354654008  0.6172127910989 1.0
END
