TITL C-6603-1109-102 -3.277 3375.00 -581.88883909 0 0 68 (C2) n - 1
REM
REM Run started: at 2020.12.18 13:57:13 in /gpfs/home/chem/mssmkc/CARBON/AIRSS/Generating-Clusters/Str-Search/Higher-Symm/C4-100
REM VASP from code version vasp.5.4.4.18Apr17-6-g9f103f2a35 (build Oct 11 2019 16:45:47) gamma-only
REM
REM
REM
REM
REM ./C.cell (6bd13a13d554368a30d355f37ece5b26)
REM AIRSS Version 0.9.1 bugfix July 2018 build 013d7b7c2542+ Fri, 06 Jul 2018 19:26:36 +0100
REM compiler GCC version 6.3.0
REM options -cpp -iprefix /gpfs/warwick/csc/orac/software/Core/GCCcore/6.3.0/bin/../lib/gcc/x86_64-pc-linux-gnu/6.3.0/ -mtune=generic -march=x86-64 -g -O0
REM seed 587930001 -1082549545 453619727 -1880160829 -1938634324 -2061908035 943795911 245563758 -1429468775 -1187136663 394723363 -1370155378
REM
REM C.POTCAR (d86ddea03c3ceb6dc662c8ad6801f873)
REM 
CELL 1.54180   15.00000   15.00000   15.00000   90.00000   90.00000   90.00000
LATT -1
SFAC C  
C      1  0.3529450425362  0.5761784007916  0.6467026492635 1.0
C      1  0.4407318900171  0.5758478637633  0.3067726974522 1.0
C      1  0.7014953175297  0.5758670963722  0.5463654339535 1.0
C      1  0.6458959826904  0.4144853878647  0.6466047081800 1.0
C      1  0.5575078114426  0.4144291861161  0.3068698591611 1.0
C      1  0.2972356317596  0.4147305136779  0.5466259400578 1.0
C      1  0.6801679651695  0.6473412362608  0.4801261511325 1.0
C      1  0.4205534340920  0.6463197681778  0.6607303912374 1.0
C      1  0.3912527925754  0.6460909141991  0.3557607226785 1.0
C      1  0.3183167686256  0.3432145515455  0.4804746689654 1.0
C      1  0.5782888854443  0.3443572538533  0.6607393211349 1.0
C      1  0.6071351939691  0.3442804172883  0.3558461291792 1.0
C      1  0.5593944511978  0.2648435987639  0.3809739559024 1.0
C      1  0.5785538590673  0.2661662998242  0.6097361459378 1.0
C      1  0.3629662098319  0.2631618377479  0.5087477569783 1.0
C      1  0.4389566848810  0.7256282322572  0.3807163691865 1.0
C      1  0.4202334214196  0.7243787648258  0.6095729625988 1.0
C      1  0.6356292007977  0.7274849089226  0.5083484182583 1.0
C      1  0.4605537142458  0.2618942966040  0.3742428102739 1.0
C      1  0.6346145008061  0.2610492362747  0.5287053918577 1.0
C      1  0.4073851047968  0.2624016558571  0.5962305571615 1.0
C      1  0.5377637467353  0.7286438941713  0.3738986915670 1.0
C      1  0.3639940161810  0.7295696476970  0.5286849680479 1.0
C      1  0.5914710588036  0.7284047037777  0.5959389026711 1.0
C      1  0.5219997267196  0.4183006814789  0.4880538760272 1.0
C      1  0.4906598601383  0.4475009798585  0.5798573142270 1.0
C      1  0.4468368732604  0.4783188848497  0.4855337919810 1.0
C      1  0.4767440157253  0.5732818912549  0.4881204605973 1.0
C      1  0.5082783736655  0.5440279323489  0.5798846233883 1.0
C      1  0.5519035890324  0.5132373239242  0.4855125810985 1.0
C      1  0.4057266913903  0.4871401638925  0.3064712380524 1.0
C      1  0.7206764699110  0.4879891872051  0.5143920795678 1.0
C      1  0.3727118293790  0.4886414556778  0.6820090263040 1.0
C      1  0.5926046523089  0.5030791778127  0.3064585632986 1.0
C      1  0.2780572340640  0.5025162071321  0.5145590308635 1.0
C      1  0.6262023870243  0.5020379565430  0.6819062186407 1.0
C      1  0.5844357263935  0.6547184208119  0.3421982947975 1.0
C      1  0.5967049089751  0.6528540801922  0.6474273347266 1.0
C      1  0.3133443854144  0.6552798561457  0.5041589036872 1.0
C      1  0.4137746425147  0.3356577671278  0.3425081604105 1.0
C      1  0.4022863869177  0.3380132107090  0.6476098806335 1.0
C      1  0.6854079714550  0.3352148474188  0.5040379201136 1.0
C      1  0.6594362862218  0.5799254001298  0.6339568254061 1.0
C      1  0.3001133410649  0.5811610603919  0.5663306663145 1.0
C      1  0.5366468656186  0.5810328852121  0.3002241860828 1.0
C      1  0.3394446351881  0.4107152662501  0.6341404300459 1.0
C      1  0.6987112980511  0.4092976201150  0.5662122787146 1.0
C      1  0.4615943300384  0.4091442835412  0.3003071151025 1.0
C      1  0.4630778476641  0.4662052997867  0.7217345571610 1.0
C      1  0.3297087678876  0.4635511671000  0.3634050398058 1.0
C      1  0.7069034563565  0.4638777368082  0.4203526453624 1.0
C      1  0.5358700279223  0.5247469386252  0.7217585636927 1.0
C      1  0.6686164986227  0.5270367343194  0.3632834586497 1.0
C      1  0.2915780442274  0.5267623442969  0.4204727230257 1.0
C      1  0.4864162945528  0.3832850284993  0.6733586795545 1.0
C      1  0.3373045517608  0.3708657081585  0.3900046978781 1.0
C      1  0.6796028116943  0.3714172889973  0.4140879419557 1.0
C      1  0.5125408168624  0.6076207834788  0.6732985983360 1.0
C      1  0.6610095183947  0.6197561560096  0.3897097635266 1.0
C      1  0.3188265765647  0.6191888051687  0.4141562960171 1.0
C      1  0.4948755163109  0.2198876756072  0.5878419687285 1.0
C      1  0.4247664382240  0.2177345301002  0.4509147978649 1.0
C      1  0.5819088336118  0.2181316124664  0.4608977939672 1.0
C      1  0.5038506630587  0.7706082277366  0.5875243933609 1.0
C      1  0.5737405564115  0.7727490182808  0.4505303457630 1.0
C      1  0.4166040691306  0.7723357414433  0.4607103556353 1.0
C      1  0.5005750249624  0.1853752971783  0.5016010851203 1.0
C      1  0.4980260206922  0.8051388992804  0.5012720916757 1.0
END
