TITL C-6603-1109-135 -3.576 3375.00 -634.35834070 0 0 76 (C1) n - 1
REM
REM Run started: at 2020.12.18 18:58:20 in /gpfs/home/chem/mssmkc/CARBON/AIRSS/Generating-Clusters/Str-Search/Higher-Symm/C4-100
REM VASP from code version vasp.5.4.4.18Apr17-6-g9f103f2a35 (build Oct 11 2019 16:45:47) gamma-only
REM
REM
REM
REM
REM ./C.cell (6bd13a13d554368a30d355f37ece5b26)
REM AIRSS Version 0.9.1 bugfix July 2018 build 013d7b7c2542+ Fri, 06 Jul 2018 19:26:36 +0100
REM compiler GCC version 6.3.0
REM options -cpp -iprefix /gpfs/warwick/csc/orac/software/Core/GCCcore/6.3.0/bin/../lib/gcc/x86_64-pc-linux-gnu/6.3.0/ -mtune=generic -march=x86-64 -g -O0
REM seed -776027147 -520121165 -1742483646 878078393 802378363 -522117407 -629478444 1045864091 -1110270254 867021021 -1678459447 1919924085
REM
REM C.POTCAR (d86ddea03c3ceb6dc662c8ad6801f873)
REM 
CELL 1.54180   15.00000   15.00000   15.00000   90.00000   90.00000   90.00000
LATT -1
SFAC C  
C      1  0.6933921763542  0.6549204073524  0.5814531621212 1.0
C      1  0.7077074312202  0.3666022423660  0.5777397062952 1.0
C      1  0.4363958245143  0.2620342024212  0.5814737611254 1.0
C      1  0.2587845198000  0.4857170434957  0.5909929882432 1.0
C      1  0.4143161335002  0.7278997560517  0.5823824707074 1.0
C      1  0.6741930904208  0.6871227365832  0.4294127199478 1.0
C      1  0.7366877690072  0.3861248198359  0.4258218253461 1.0
C      1  0.4701348818602  0.2419788474874  0.4320925849187 1.0
C      1  0.2446845603861  0.4499010995780  0.4384439502417 1.0
C      1  0.3747793770921  0.7241852614488  0.4324812969819 1.0
C      1  0.3051550155425  0.3560541680560  0.5689924671679 1.0
C      1  0.3037133667187  0.6450319765184  0.5715359797008 1.0
C      1  0.5783304241849  0.7310873739131  0.5694371148022 1.0
C      1  0.7466143740293  0.4993061323380  0.5627065501087 1.0
C      1  0.5750467805899  0.2683417445129  0.5706981731514 1.0
C      1  0.3587184205335  0.3366707404197  0.3686461289382 1.0
C      1  0.3069890861859  0.5814529031419  0.3741879532321 1.0
C      1  0.5152559104173  0.7055692124632  0.3635757790379 1.0
C      1  0.6893524716804  0.5422755295856  0.3774187726875 1.0
C      1  0.6101489147948  0.3116893079260  0.3648686990280 1.0
C      1  0.6845708587394  0.4520407471650  0.6287762950148 1.0
C      1  0.5039629317064  0.3140531897303  0.6365237691064 1.0
C      1  0.3358418552369  0.4285449930758  0.6362805557788 1.0
C      1  0.3865842260518  0.6428353833318  0.6340375475374 1.0
C      1  0.6043767816930  0.6536432523984  0.6369559862673 1.0
C      1  0.7101541034974  0.4435452692214  0.3571281897185 1.0
C      1  0.5171338979254  0.2838387698859  0.3629947537634 1.0
C      1  0.3046204843733  0.4159360414955  0.3726345039100 1.0
C      1  0.3616515328874  0.6586551613173  0.3639549016812 1.0
C      1  0.6072753726270  0.6765966113961  0.3594472090512 1.0
C      1  0.5051719392214  0.4173026217464  0.6252602587021 1.0
C      1  0.4248571813285  0.4685714119297  0.6103838835662 1.0
C      1  0.4456748356195  0.5646851251697  0.5932397726432 1.0
C      1  0.5530832678603  0.5704547604502  0.5961616330588 1.0
C      1  0.5847787071251  0.4781349818210  0.6274259434728 1.0
C      1  0.4793454599971  0.4233839749892  0.4022591559299 1.0
C      1  0.4215619421546  0.4893070968248  0.4250354019779 1.0
C      1  0.4577537467330  0.5496956538645  0.4911343791036 1.0
C      1  0.6068598260418  0.5164143001799  0.4364749872464 1.0
C      1  0.5698293626912  0.4420898967885  0.4009662818364 1.0
C      1  0.4933722293517  0.7489547624820  0.5343913746482 1.0
C      1  0.7400265251203  0.5876450581778  0.5335805482461 1.0
C      1  0.6549478951435  0.3005600499501  0.5347025773114 1.0
C      1  0.3585690811807  0.2887935393221  0.5343905270865 1.0
C      1  0.2600493629578  0.5684590533271  0.5420653376005 1.0
C      1  0.4684556885050  0.7474372766435  0.4381093629401 1.0
C      1  0.7309848633234  0.6110826377146  0.4375637536167 1.0
C      1  0.6740128140159  0.3100306227841  0.4362914189514 1.0
C      1  0.3776346416740  0.2752010485463  0.4385811935260 1.0
C      1  0.2505872812251  0.5465798759007  0.4454236553301 1.0
C      1  0.6380638575079  0.4792000783247  0.7128124676961 1.0
C      1  0.4781655097998  0.3699645122406  0.7176785513466 1.0
C      1  0.3788529294121  0.4076674879442  0.7269906824681 1.0
C      1  0.3836458726852  0.6230758397845  0.7301920631099 1.0
C      1  0.6018044092484  0.6445442254332  0.7366153322268 1.0
C      1  0.6236611105101  0.4033321314995  0.3224536290134 1.0
C      1  0.4516956844331  0.3551055933622  0.3292630325406 1.0
C      1  0.3515544844739  0.4985946690228  0.3401211800707 1.0
C      1  0.4482235854251  0.6529818332730  0.3159162752902 1.0
C      1  0.6279598541130  0.5939675446177  0.3132922857166 1.0
C      1  0.5642844900499  0.4503015178036  0.2545431832612 1.0
C      1  0.4714921144155  0.4229311679519  0.2574579734008 1.0
C      1  0.4154287678788  0.5000672547528  0.2637705993027 1.0
C      1  0.4723014699133  0.5778965836989  0.2646074052022 1.0
C      1  0.5654230169960  0.5473589080756  0.2601926844255 1.0
C      1  0.5839139450632  0.4755001498594  0.7944231805601 1.0
C      1  0.5023257921637  0.4307457311195  0.7933871809381 1.0
C      1  0.4109570702927  0.4681124371444  0.7921232188954 1.0
C      1  0.3889123051010  0.5591599622766  0.7816191027351 1.0
C      1  0.6160159211455  0.5618555059233  0.7668266961946 1.0
C      1  0.2451391249958  0.4156592227808  0.5285689893513 1.0
C      1  0.7579358184035  0.4171187604573  0.5154198696571 1.0
C      1  0.3420465418103  0.7157560184023  0.5220008542668 1.0
C      1  0.6572966009058  0.7176825695501  0.5204862755390 1.0
C      1  0.5024815230485  0.2301213977853  0.5227227469774 1.0
C      1  0.5504586753678  0.5606506237912  0.4967516974070 1.0
END
