TITL C-6603-1109-81 -3.648 3375.00 -604.58720031 0 0 76 (C1) n - 1
REM
REM Run started: at 2020.12.18 08:31:32 in /gpfs/home/chem/mssmkc/CARBON/AIRSS/Generating-Clusters/Str-Search/Higher-Symm/C4-100
REM VASP from code version vasp.5.4.4.18Apr17-6-g9f103f2a35 (build Oct 11 2019 16:45:47) gamma-only
REM
REM
REM
REM
REM ./C.cell (6bd13a13d554368a30d355f37ece5b26)
REM AIRSS Version 0.9.1 bugfix July 2018 build 013d7b7c2542+ Fri, 06 Jul 2018 19:26:36 +0100
REM compiler GCC version 6.3.0
REM options -cpp -iprefix /gpfs/warwick/csc/orac/software/Core/GCCcore/6.3.0/bin/../lib/gcc/x86_64-pc-linux-gnu/6.3.0/ -mtune=generic -march=x86-64 -g -O0
REM seed -361758534 1409994933 1126170093 1485905028 -53659267 -1122456545 -944897178 -2128197354 -2082064013 1605933518 2071831305 -2039268828
REM
REM C.POTCAR (d86ddea03c3ceb6dc662c8ad6801f873)
REM 
CELL 1.54180   15.00000   15.00000   15.00000   90.00000   90.00000   90.00000
LATT -1
SFAC C  
C      1  0.3120746602931  0.6077913990852  0.3654354074750 1.0
C      1  0.5269472695357  0.6376320911939  0.5211857779000 1.0
C      1  0.2218677051554  0.4204024694573  0.4988949984851 1.0
C      1  0.4618894682077  0.4041594495717  0.2474365930540 1.0
C      1  0.7237355652175  0.2945488464895  0.5551267023377 1.0
C      1  0.5918919492712  0.3144403014327  0.4511047001053 1.0
C      1  0.4101416984426  0.7653485886470  0.5111002839668 1.0
C      1  0.3597768815397  0.4884015313827  0.7923399286338 1.0
C      1  0.6438087687068  0.2633299045189  0.5212843623823 1.0
C      1  0.4948493378270  0.5037768866373  0.4255963445857 1.0
C      1  0.6569641990504  0.5706339628833  0.5550453888947 1.0
C      1  0.4732745444739  0.2954514879186  0.6282366229132 1.0
C      1  0.3603880593214  0.7129381894425  0.5766947157365 1.0
C      1  0.4472507584351  0.7054326494763  0.3492851953482 1.0
C      1  0.3862065844354  0.5660263674654  0.7745770904283 1.0
C      1  0.3388173701260  0.3405782476509  0.7176468670791 1.0
C      1  0.3831767562969  0.7394865686761  0.4204671928755 1.0
C      1  0.2834540348691  0.5342807702197  0.6204645729874 1.0
C      1  0.7675840255561  0.5780712917355  0.7735115216768 1.0
C      1  0.7365237713465  0.6266384303996  0.5230994267785 1.0
C      1  0.4111704183479  0.3507166829044  0.4775768214625 1.0
C      1  0.6650861749883  0.4221720910586  0.2515148067116 1.0
C      1  0.7558418617657  0.5500147907338  0.6848283047789 1.0
C      1  0.3736665953477  0.3033180222985  0.6391619168861 1.0
C      1  0.3430040442110  0.3214880682756  0.5512427459010 1.0
C      1  0.3643831894764  0.5189024372594  0.2606532963145 1.0
C      1  0.7009649864771  0.4508881367665  0.4256477568922 1.0
C      1  0.5210258996955  0.3534817829817  0.1960532717790 1.0
C      1  0.5050162647075  0.5895627940999  0.2554897261827 1.0
C      1  0.5815640209266  0.6130325942991  0.3283022318211 1.0
C      1  0.5023045501938  0.3917774578506  0.6329317071481 1.0
C      1  0.3447597321656  0.6099907075159  0.2698702410687 1.0
C      1  0.5084666708704  0.5593446133763  0.6680561701405 1.0
C      1  0.5409897878030  0.6953226743991  0.3734892908182 1.0
C      1  0.2517459970403  0.5767532730360  0.5428420200719 1.0
C      1  0.3026022845316  0.6827088321902  0.4318623356298 1.0
C      1  0.5588178162073  0.7102830887296  0.4626552706961 1.0
C      1  0.2587415260885  0.3524826723496  0.5273750336604 1.0
C      1  0.5041465746609  0.7558365346086  0.5271622176405 1.0
C      1  0.7840776343565  0.4270037995903  0.4693026311027 1.0
C      1  0.4199322524728  0.5082895013564  0.5381162165008 1.0
C      1  0.2876965410711  0.6644796434742  0.5274655511610 1.0
C      1  0.5998054338969  0.3943352441272  0.2047939358732 1.0
C      1  0.3304008176501  0.4554724030233  0.3242642760368 1.0
C      1  0.4193765178676  0.3153725961891  0.3875680043404 1.0
C      1  0.6124833679834  0.3622487546246  0.7497390492853 1.0
C      1  0.4374175926423  0.6123623617102  0.7103125604724 1.0
C      1  0.5841862390960  0.2028389773381  0.5628259614598 1.0
C      1  0.7177487424745  0.6165375621493  0.4242906377466 1.0
C      1  0.2822966767931  0.5151889015631  0.3881604539783 1.0
C      1  0.4410393689567  0.4430818509358  0.4727293086612 1.0
C      1  0.7541478226977  0.5457744041290  0.5864438475803 1.0
C      1  0.6423557454754  0.4503325718321  0.3411735828865 1.0
C      1  0.4320753876626  0.6519950149367  0.2675978068272 1.0
C      1  0.4623635418881  0.4798881828250  0.6325412489248 1.0
C      1  0.7236451296603  0.4940842817452  0.7511262683898 1.0
C      1  0.5811619851812  0.5255324155968  0.3847601781407 1.0
C      1  0.3957180138257  0.3760385086532  0.3175780656472 1.0
C      1  0.3413065457697  0.4019352004059  0.7747534903021 1.0
C      1  0.5013011475600  0.2380124864353  0.5470062727909 1.0
C      1  0.7970062238107  0.4617046168729  0.5526844488681 1.0
C      1  0.5145457588833  0.7015463385152  0.6089202538025 1.0
C      1  0.3970374752824  0.6323519510388  0.4174724789137 1.0
C      1  0.4942992814102  0.2867367011113  0.4513532386389 1.0
C      1  0.6530599737468  0.5331400977980  0.4604388729180 1.0
C      1  0.5701583061063  0.6095196834280  0.6057643353497 1.0
C      1  0.6829818676393  0.6375369108111  0.3475355596127 1.0
C      1  0.4584642165949  0.5026900485778  0.2454167843356 1.0
C      1  0.3635712052681  0.4978419822976  0.6144731615406 1.0
C      1  0.5478020697442  0.3385675468317  0.6873264848545 1.0
C      1  0.4253945609999  0.6845756882412  0.6467250005925 1.0
C      1  0.4557174884044  0.5821499277053  0.4806008977180 1.0
C      1  0.6321721951382  0.3810066735620  0.4081747477521 1.0
C      1  0.6728148018247  0.4190224053977  0.7604201199909 1.0
C      1  0.7739685711430  0.3650969236431  0.5447440346723 1.0
C      1  0.2355477954097  0.5082608525101  0.4701508730845 1.0
END
