TITL C-6603-1109-153 -2.751 3375.00 -471.46759752 0 0 59 (C1) n - 1
REM
REM Run started: at 2020.12.18 21:51:56 in /gpfs/home/chem/mssmkc/CARBON/AIRSS/Generating-Clusters/Str-Search/Higher-Symm/C4-100
REM VASP from code version vasp.5.4.4.18Apr17-6-g9f103f2a35 (build Oct 11 2019 16:45:47) gamma-only
REM
REM
REM
REM
REM ./C.cell (6bd13a13d554368a30d355f37ece5b26)
REM AIRSS Version 0.9.1 bugfix July 2018 build 013d7b7c2542+ Fri, 06 Jul 2018 19:26:36 +0100
REM compiler GCC version 6.3.0
REM options -cpp -iprefix /gpfs/warwick/csc/orac/software/Core/GCCcore/6.3.0/bin/../lib/gcc/x86_64-pc-linux-gnu/6.3.0/ -mtune=generic -march=x86-64 -g -O0
REM seed 884583784 614189243 1421643636 1555936125 -8903405 894288829 1868621075 2017949974 23573032 147780625 -119653148 -540674630
REM
REM C.POTCAR (d86ddea03c3ceb6dc662c8ad6801f873)
REM 
CELL 1.54180   15.00000   15.00000   15.00000   90.00000   90.00000   90.00000
LATT -1
SFAC C  
C      1  0.4141085104204  0.2762313937210  0.4511175133307 1.0
C      1  0.2635536933119  0.4996382775459  0.4699320438985 1.0
C      1  0.4519191420077  0.7846479874396  0.4411736946501 1.0
C      1  0.7319412644696  0.5991410582013  0.4922649172050 1.0
C      1  0.6525493998951  0.3494102863599  0.4175030043336 1.0
C      1  0.3813390014405  0.7343259740162  0.4893721626178 1.0
C      1  0.2615061000611  0.5058226336537  0.5670427191811 1.0
C      1  0.4287531718520  0.2631590579840  0.5471541683650 1.0
C      1  0.6563567155630  0.3903200954384  0.5107479294650 1.0
C      1  0.6835337042318  0.6401562582993  0.5729357783790 1.0
C      1  0.5770389894436  0.2895551510003  0.3901061362143 1.0
C      1  0.3617048889178  0.3438674561207  0.4133336920816 1.0
C      1  0.2709420476057  0.5717234190988  0.4099513246921 1.0
C      1  0.5317566144307  0.8056265859025  0.4723537676132 1.0
C      1  0.8252065214357  0.5790610908484  0.4678198923151 1.0
C      1  0.6389093809116  0.7027097312063  0.5173360788601 1.0
C      1  0.2909876707907  0.7193351318870  0.4664934140348 1.0
C      1  0.3047406991857  0.4214611655407  0.5797756085755 1.0
C      1  0.5176808067142  0.2276603693924  0.5354672852251 1.0
C      1  0.7243277705846  0.4574524217366  0.5470351250308 1.0
C      1  0.5589994455006  0.5491245006596  0.4865182378298 1.0
C      1  0.6271745874003  0.3458523560254  0.5996311458704 1.0
C      1  0.4712528125326  0.3340995344495  0.6063546251087 1.0
C      1  0.4097841023478  0.5591350019166  0.5445199790697 1.0
C      1  0.4357569288378  0.6504026718344  0.5122825776031 1.0
C      1  0.5658264053747  0.4460329448454  0.4989571991074 1.0
C      1  0.6381770853745  0.6119735320200  0.4700913636746 1.0
C      1  0.4423859739646  0.6866021542664  0.4176202711670 1.0
C      1  0.4207685048099  0.4720304000102  0.4924327359282 1.0
C      1  0.4841724762588  0.4159553673835  0.5449532883638 1.0
C      1  0.5580660858697  0.2845361858045  0.6005324290200 1.0
C      1  0.3650582181161  0.4496813540232  0.6477814575370 1.0
C      1  0.3874331299083  0.6081776763102  0.6943352910199 1.0
C      1  0.5444599377747  0.5708223000976  0.6598592298914 1.0
C      1  0.6803876936497  0.4923360424930  0.6275304412254 1.0
C      1  0.5014844809048  0.5809334070567  0.3021427190016 1.0
C      1  0.3453037009184  0.5636832433871  0.3484021797123 1.0
C      1  0.3877898225871  0.3848719266596  0.3312228072066 1.0
C      1  0.5615659458758  0.3500928105531  0.3145844294156 1.0
C      1  0.6424204282138  0.4968810608054  0.3154057699129 1.0
C      1  0.3765298536930  0.4803716425847  0.3223733942559 1.0
C      1  0.4267025817969  0.6269155634589  0.3412578115821 1.0
C      1  0.5952679824005  0.5644843156778  0.2952052721936 1.0
C      1  0.6402626076805  0.4054175955574  0.3373429573766 1.0
C      1  0.4815298915949  0.3895725812540  0.2961620863260 1.0
C      1  0.3455565901820  0.5469939048221  0.6258650825298 1.0
C      1  0.4537592873921  0.4183334619408  0.6578715210389 1.0
C      1  0.6173017621012  0.4254269653459  0.6562147022598 1.0
C      1  0.6481182037735  0.5797628651317  0.6399280614894 1.0
C      1  0.4688395102914  0.6152196587363  0.7099250865435 1.0
C      1  0.7828380826173  0.5080809416565  0.4988507294180 1.0
C      1  0.2430230457126  0.6573149136221  0.4409786032644 1.0
C      1  0.5110090790239  0.2465125782776  0.4389076272089 1.0
C      1  0.3296953848136  0.4190544113635  0.4781409086480 1.0
C      1  0.6090186623012  0.7848548826435  0.5006429141520 1.0
C      1  0.5365264786605  0.4677031895027  0.6775599985425 1.0
C      1  0.4732424381897  0.4871056190581  0.3195298705425 1.0
C      1  0.4989667252479  0.4891528484666  0.4263394293304 1.0
C      1  0.5036820730338  0.5893135449053  0.5614233095641 1.0
END
