TITL C-6662-7152-47 -5.268 3375.00 -882.99402548 0 0 111 (Cs) n - 1
REM
REM Run started: at 2020.12.19 04:39:47 in /gpfs/home/chem/mssmkc/CARBON/AIRSS/Generating-Clusters/Str-Search/Higher-Symm
REM VASP from code version vasp.5.4.4.18Apr17-6-g9f103f2a35 (build Oct 11 2019 16:45:47) gamma-only
REM
REM
REM
REM
REM ./C.cell (533062f00bc710175b3da973d35f2034)
REM AIRSS Version 0.9.1 bugfix July 2018 build 013d7b7c2542+ Fri, 06 Jul 2018 19:26:36 +0100
REM compiler GCC version 6.3.0
REM options -cpp -iprefix /gpfs/warwick/csc/orac/software/Core/GCCcore/6.3.0/bin/../lib/gcc/x86_64-pc-linux-gnu/6.3.0/ -mtune=generic -march=x86-64 -g -O0
REM seed 1828900739 1676229958 1375217746 1871227996 153629619 207013457 -352917454 -1939482958 -1530732343 1385416943 -37114122 -1860493290
REM
REM C.POTCAR (d86ddea03c3ceb6dc662c8ad6801f873)
REM 
CELL 1.54180   15.00000   15.00000   15.00000   90.00000   90.00000   90.00000
LATT -1
SFAC C  
C      1  0.3377573683445  0.3994039158370  0.7505482326874 1.0
C      1  0.3401720634110  0.6019792248451  0.2466497159737 1.0
C      1  0.3379454714581  0.6034941862816  0.7508728344192 1.0
C      1  0.3402191773713  0.3992477150953  0.2469259453339 1.0
C      1  0.4184645161269  0.2555876029990  0.5886017176074 1.0
C      1  0.4197537327788  0.7421962824130  0.4111802776181 1.0
C      1  0.4180689427252  0.7467591608450  0.5883630776506 1.0
C      1  0.4202770684355  0.2594397200221  0.4115203357986 1.0
C      1  0.4836160026645  0.3207812386729  0.8324699401121 1.0
C      1  0.4876845587582  0.6807133143769  0.1691989129892 1.0
C      1  0.4835056129972  0.6820139415072  0.8323768014600 1.0
C      1  0.4878797665708  0.3205228123614  0.1695353136158 1.0
C      1  0.5051250763104  0.2245019692182  0.5485065341704 1.0
C      1  0.5054811262821  0.7757588249747  0.4506864268435 1.0
C      1  0.5046071674891  0.7779201944763  0.5480695610542 1.0
C      1  0.5061003779279  0.2263147968627  0.4511539836391 1.0
C      1  0.4113333970930  0.6003032718115  0.6911984930855 1.0
C      1  0.4121882512780  0.4042479235811  0.3080226908681 1.0
C      1  0.4113573099157  0.4023956531524  0.6911079764621 1.0
C      1  0.4120396943049  0.5970434425399  0.3079514017257 1.0
C      1  0.2494456508116  0.6984041520694  0.4314863563305 1.0
C      1  0.2489446896059  0.3016753059530  0.5664517221335 1.0
C      1  0.2497294274202  0.3026762478225  0.4315661191972 1.0
C      1  0.2487260735549  0.6994445476129  0.5663469526175 1.0
C      1  0.7934327215225  0.5442426747447  0.1924136400947 1.0
C      1  0.7954821489732  0.4573160919351  0.8020985160806 1.0
C      1  0.7935856561981  0.4567695116761  0.1923456453902 1.0
C      1  0.7960958569845  0.5446499974467  0.8025703594242 1.0
C      1  0.3672044569589  0.5467652968983  0.1722418592312 1.0
C      1  0.3649022222196  0.4552083489959  0.8240884226734 1.0
C      1  0.3671513471964  0.4542319168619  0.1723240733609 1.0
C      1  0.3650477201817  0.5473432788362  0.8241834373433 1.0
C      1  0.5772255228563  0.4126315422132  0.3109958811987 1.0
C      1  0.5768755952800  0.5961524407058  0.6919709263681 1.0
C      1  0.5771442595890  0.5889988695107  0.3109178659020 1.0
C      1  0.5767510419398  0.4065516634340  0.6920102291585 1.0
C      1  0.4516162883424  0.4068424333048  0.1817177382735 1.0
C      1  0.4499016917566  0.5952729530471  0.8165572071856 1.0
C      1  0.4516069649054  0.5942993341683  0.1815867544733 1.0
C      1  0.4497340069325  0.4073092766554  0.8164333780701 1.0
C      1  0.4967970573513  0.6107325842443  0.5467076241889 1.0
C      1  0.4975641703649  0.3993401393065  0.4539997934206 1.0
C      1  0.4968363068941  0.3916625178964  0.5466814549583 1.0
C      1  0.4975026209657  0.6027529862169  0.4540257341958 1.0
C      1  0.1695141305947  0.4515353170410  0.4495358511272 1.0
C      1  0.1694748856257  0.5495929778058  0.5493147994920 1.0
C      1  0.1694759273848  0.5493935283148  0.4495369437474 1.0
C      1  0.1695018461593  0.4513687723180  0.5493313238342 1.0
C      1  0.4923532962151  0.5514901097240  0.7299660026832 1.0
C      1  0.4928325149056  0.4516088722070  0.2677547392722 1.0
C      1  0.4922922908780  0.4511923763124  0.7300005630857 1.0
C      1  0.4927897168403  0.5497893003349  0.2677301757691 1.0
C      1  0.6580663029606  0.5507809973809  0.2642197801404 1.0
C      1  0.6568785290459  0.4502097168687  0.7368456156775 1.0
C      1  0.6581041433042  0.4506560449235  0.2643138902610 1.0
C      1  0.6570092144316  0.5520772664087  0.7366758595290 1.0
C      1  0.7490347921532  0.7786865736834  0.5846328752316 1.0
C      1  0.7494592587387  0.2399852945863  0.3927059720554 1.0
C      1  0.7496497320937  0.2246639518904  0.5851309520297 1.0
C      1  0.7486494037569  0.7633150330622  0.3921268002797 1.0
C      1  0.6702990121335  0.2666617397132  0.5830751834365 1.0
C      1  0.6695800134055  0.7211701204835  0.4101602244328 1.0
C      1  0.6699227820891  0.7362693724444  0.5827755729513 1.0
C      1  0.6699999632687  0.2813998250337  0.4106387384517 1.0
C      1  0.5291201688605  0.7211784730536  0.2290770790192 1.0
C      1  0.5250367208593  0.2768423016464  0.7747646235143 1.0
C      1  0.5293052445150  0.2800790282196  0.2294320006565 1.0
C      1  0.5246891843279  0.7260658140400  0.7745917413942 1.0
C      1  0.3362883639459  0.2555604501557  0.5472988659427 1.0
C      1  0.3368175202175  0.7444932749236  0.4507542403453 1.0
C      1  0.3358394176488  0.7460800483802  0.5470751959074 1.0
C      1  0.3373150015780  0.2570032941086  0.4509897292050 1.0
C      1  0.3082501912934  0.4528287956839  0.4489726278123 1.0
C      1  0.3072719331925  0.5483787638728  0.5513383321997 1.0
C      1  0.3082098698100  0.5482312150017  0.4489259813537 1.0
C      1  0.3072838668221  0.4527279179676  0.5513571063545 1.0
C      1  0.4510570868199  0.3446678661444  0.3737154174775 1.0
C      1  0.4496770610244  0.6631710327610  0.6283847665035 1.0
C      1  0.4507420571890  0.6568700956995  0.3735694043846 1.0
C      1  0.4498397803051  0.3393968810868  0.6284209365321 1.0
C      1  0.7305158197902  0.5928662555598  0.2254931778325 1.0
C      1  0.7310716594060  0.4084607874872  0.7723674349716 1.0
C      1  0.7306736054637  0.4084695262899  0.2259472409147 1.0
C      1  0.7317710472610  0.5929840296940  0.7717481884458 1.0
C      1  0.5776869986559  0.2541869549579  0.3949615512789 1.0
C      1  0.5766165567228  0.7559344905118  0.6069018749848 1.0
C      1  0.5771374705492  0.7478438324140  0.3945587144807 1.0
C      1  0.5770491400543  0.2467866340605  0.6072488921283 1.0
C      1  0.2401096617793  0.3950014868936  0.4077203863517 1.0
C      1  0.2392373355255  0.6070465057568  0.5913381727442 1.0
C      1  0.2399871080981  0.6060235856599  0.4077421073303 1.0
C      1  0.2392967792365  0.3940363445249  0.5914181940440 1.0
C      1  0.8202742415073  0.2036973762566  0.5393561806036 1.0
C      1  0.8025193921446  0.7909661777026  0.4517478886368 1.0
C      1  0.8192928160483  0.8001736502439  0.5385921190489 1.0
C      1  0.8036079780330  0.2131910671196  0.4524968748071 1.0
C      1  0.5865954233227  0.4182561830008  0.5904218440970 1.0
C      1  0.5828421144212  0.5615056822281  0.4126092210623 1.0
C      1  0.5867291162509  0.5845667937798  0.5903775715885 1.0
C      1  0.5828771849321  0.4405610282754  0.4125582619466 1.0
C      1  0.5449024625335  0.6893769312917  0.3193079678230 1.0
C      1  0.5439886205053  0.3049222774538  0.6842360922714 1.0
C      1  0.5452369818149  0.3122590032745  0.3195517849825 1.0
C      1  0.5437858322434  0.6979319958472  0.6841155251558 1.0
C      1  0.6550230857454  0.6302146422655  0.4532810270529 1.0
C      1  0.6540632850334  0.3569126841776  0.5446858430588 1.0
C      1  0.6550505656905  0.3724113263208  0.4534726481427 1.0
C      1  0.6539922350695  0.6459671663664  0.5444604180114 1.0
C      1  0.1818090962137  0.7144366220045  0.4984179574768 1.0
C      1  0.1821274139095  0.2864374090819  0.4985028197745 1.0
C      1  0.6105998665952  0.5013809027870  0.5566406424762 1.0
END
