TITL C-6603-1109-231 -1.473 3375.00 -229.35768336 0 0 30 (C1) n - 1
REM
REM Run started: at 2020.12.19 15:44:48 in /gpfs/home/chem/mssmkc/CARBON/AIRSS/Generating-Clusters/Str-Search/Higher-Symm/C4-100
REM VASP from code version vasp.5.4.4.18Apr17-6-g9f103f2a35 (build Oct 11 2019 16:45:47) gamma-only
REM
REM
REM
REM
REM ./C.cell (6bd13a13d554368a30d355f37ece5b26)
REM AIRSS Version 0.9.1 bugfix July 2018 build 013d7b7c2542+ Fri, 06 Jul 2018 19:26:36 +0100
REM compiler GCC version 6.3.0
REM options -cpp -iprefix /gpfs/warwick/csc/orac/software/Core/GCCcore/6.3.0/bin/../lib/gcc/x86_64-pc-linux-gnu/6.3.0/ -mtune=generic -march=x86-64 -g -O0
REM seed -1780832325 -1318133206 1145254577 850790325 -1050237601 1611790896 -81736611 694571355 1351307151 1420079840 -699894899 -1040470115
REM
REM C.POTCAR (d86ddea03c3ceb6dc662c8ad6801f873)
REM 
CELL 1.54180   15.00000   15.00000   15.00000   90.00000   90.00000   90.00000
LATT -1
SFAC C  
C      1  0.3683801499715  0.5727409082088  0.5261675407805 1.0
C      1  0.5293074662658  0.5631640719749  0.2963038233478 1.0
C      1  0.5518980117225  0.3325966554103  0.5518851743135 1.0
C      1  0.6886841028591  0.5625602549112  0.5146140634640 1.0
C      1  0.6644743664081  0.4217985461009  0.5772488719208 1.0
C      1  0.3163147927286  0.4382224072575  0.4500627084336 1.0
C      1  0.4761954778195  0.5653485252902  0.6557269013286 1.0
C      1  0.4192736142876  0.4378201460818  0.3081354922063 1.0
C      1  0.5450799115960  0.4131102940611  0.6942402169064 1.0
C      1  0.4337536114055  0.3245872075220  0.4423027540479 1.0
C      1  0.4347683724128  0.7033743867222  0.5647902771104 1.0
C      1  0.4798380441119  0.6493905594648  0.4200871138623 1.0
C      1  0.4967248159988  0.4837266617288  0.6961878683102 1.0
C      1  0.4676618460898  0.7142510797190  0.4874944670142 1.0
C      1  0.7159196146098  0.4957322609796  0.5754992426768 1.0
C      1  0.4707541133695  0.4994090684009  0.2785810935449 1.0
C      1  0.4749484552133  0.3006052390512  0.5107720665933 1.0
C      1  0.3171600603117  0.4947302648556  0.5125963585005 1.0
C      1  0.5952772793718  0.4088175716759  0.5072176668700 1.0
C      1  0.6169044806027  0.5640321912222  0.4370816304037 1.0
C      1  0.5393061370453  0.5566820658648  0.5811675186796 1.0
C      1  0.4683452856785  0.4808823505647  0.4430842742012 1.0
C      1  0.5173129791264  0.4798412314685  0.5274219213911 1.0
C      1  0.5700233998360  0.4726901685886  0.4372214665528 1.0
C      1  0.4258784691983  0.5759471940184  0.4458281043466 1.0
C      1  0.6083119690551  0.6037056603868  0.5322356334996 1.0
C      1  0.4101997084187  0.6191700654079  0.6024076387685 1.0
C      1  0.5570485773893  0.6133011456250  0.3667529264282 1.0
C      1  0.5980639590056  0.3656524933206  0.6336243237293 1.0
C      1  0.4014314280903  0.4082748241157  0.4019617607674 1.0
END
