TITL C-6603-1109-193 -4.684 3375.00 -802.20459915 0 0 97 (C1) n - 1
REM
REM Run started: at 2020.12.19 07:25:07 in /gpfs/home/chem/mssmkc/CARBON/AIRSS/Generating-Clusters/Str-Search/Higher-Symm/C4-100
REM VASP from code version vasp.5.4.4.18Apr17-6-g9f103f2a35 (build Oct 11 2019 16:45:47) gamma-only
REM
REM
REM
REM
REM ./C.cell (6bd13a13d554368a30d355f37ece5b26)
REM AIRSS Version 0.9.1 bugfix July 2018 build 013d7b7c2542+ Fri, 06 Jul 2018 19:26:36 +0100
REM compiler GCC version 6.3.0
REM options -cpp -iprefix /gpfs/warwick/csc/orac/software/Core/GCCcore/6.3.0/bin/../lib/gcc/x86_64-pc-linux-gnu/6.3.0/ -mtune=generic -march=x86-64 -g -O0
REM seed -2125711411 1942747773 -1158929935 -329928029 -1303569448 237173193 -1572097489 506143090 -1459381003 -1011601727 -424027888 510444111
REM
REM C.POTCAR (d86ddea03c3ceb6dc662c8ad6801f873)
REM 
CELL 1.54180   15.00000   15.00000   15.00000   90.00000   90.00000   90.00000
LATT -1
SFAC C  
C      1  0.6384818555867  0.3515569273851  0.3082882569571 1.0
C      1  0.6075392091620  0.5719144370666  0.2777863130309 1.0
C      1  0.5707301861519  0.7557707455818  0.4588317654825 1.0
C      1  0.5860945333508  0.7548971178387  0.6366455794397 1.0
C      1  0.6760887330820  0.5340726724595  0.7569377954381 1.0
C      1  0.6187271340188  0.3703664713700  0.6935188703859 1.0
C      1  0.6678198224420  0.2646360124211  0.5219657724984 1.0
C      1  0.3169896149110  0.4134339590118  0.5790742115082 1.0
C      1  0.2999959374853  0.3646615116933  0.4859962027299 1.0
C      1  0.3258674739587  0.4113323031773  0.3925946325028 1.0
C      1  0.3804672408350  0.4940753639031  0.3984708716848 1.0
C      1  0.2802283506473  0.6467389990947  0.4915107425378 1.0
C      1  0.3044636371695  0.6067506628929  0.5818327048654 1.0
C      1  0.3163666744647  0.5094855135285  0.6192473971110 1.0
C      1  0.4155056638921  0.4307534291987  0.2157892447685 1.0
C      1  0.3608777781883  0.7005768455349  0.2884531725019 1.0
C      1  0.4385039510112  0.7776026572445  0.5509540838787 1.0
C      1  0.3677838171668  0.6654728971462  0.7289076268741 1.0
C      1  0.4122073892428  0.4433101399583  0.7497990523813 1.0
C      1  0.4080521236149  0.2641536766590  0.6095518987451 1.0
C      1  0.4553283667421  0.2078115982674  0.4362234717758 1.0
C      1  0.7334166783397  0.4825757918770  0.7007468063041 1.0
C      1  0.7582510236430  0.3757398737282  0.5895184007279 1.0
C      1  0.7564558865286  0.3826339208695  0.4343188314125 1.0
C      1  0.7394612308707  0.5033816006119  0.3392934817901 1.0
C      1  0.7088438482820  0.6537618526082  0.3881525026291 1.0
C      1  0.7086477871204  0.7203605013821  0.5281278695143 1.0
C      1  0.7254244354827  0.6684913919056  0.6710393289818 1.0
C      1  0.6594409865146  0.7202020335745  0.4452416378331 1.0
C      1  0.6753884279630  0.7317502904659  0.6169789750570 1.0
C      1  0.6708722725995  0.6239928877542  0.7296620141394 1.0
C      1  0.7073703682264  0.3934013815416  0.6683567196257 1.0
C      1  0.7356846228832  0.3270485097481  0.5095695886721 1.0
C      1  0.7124735777572  0.4088522524266  0.3484474944387 1.0
C      1  0.6896475139789  0.5838299332784  0.3212828225808 1.0
C      1  0.3093062699871  0.7215142401155  0.3508597483483 1.0
C      1  0.3910014683820  0.7543959252172  0.6266684918420 1.0
C      1  0.3626651861736  0.5859865551081  0.7699312888374 1.0
C      1  0.4064252993947  0.3591212875417  0.7114407174596 1.0
C      1  0.4035910072331  0.2257797873015  0.5251708211003 1.0
C      1  0.3879287670772  0.2634270127998  0.3917601833974 1.0
C      1  0.3623046109265  0.4914185231536  0.2389782815379 1.0
C      1  0.5209697179693  0.6076749369402  0.3027401300065 1.0
C      1  0.4888336136858  0.7470215138114  0.4095505009186 1.0
C      1  0.5312060685374  0.7183891848319  0.7103336652960 1.0
C      1  0.5725734196700  0.5303323318252  0.7735633203893 1.0
C      1  0.5623927563824  0.2989650808290  0.6629773553011 1.0
C      1  0.5988351850940  0.2145939552666  0.4991792129872 1.0
C      1  0.5489532010542  0.3396894210525  0.2788887459658 1.0
C      1  0.1210408182362  0.3175511287778  0.4545448357024 1.0
C      1  0.2060399553285  0.3548284639216  0.4476162515799 1.0
C      1  0.2229840546843  0.4147895919530  0.3784628789257 1.0
C      1  0.1503527423628  0.4736634111094  0.3550266400779 1.0
C      1  0.1749627939369  0.5615182151302  0.3800976679086 1.0
C      1  0.0533977275572  0.3567426163794  0.4034082452111 1.0
C      1  0.0337008488631  0.2761522928159  0.4499228904942 1.0
C      1  0.5383477906438  0.5889301464988  0.6264253047633 1.0
C      1  0.5279378866465  0.4957898874915  0.6224429607590 1.0
C      1  0.5376746198353  0.3682554364603  0.5187699302843 1.0
C      1  0.5476456646690  0.3745070314088  0.4268667334421 1.0
C      1  0.5301920589145  0.4620603974464  0.3925623429783 1.0
C      1  0.4888916930062  0.6026722107778  0.4695039396085 1.0
C      1  0.5187208848346  0.6410508626869  0.5484411336167 1.0
C      1  0.5706377180091  0.6252616148957  0.7205947517037 1.0
C      1  0.5595192347505  0.4486541667107  0.7052421936157 1.0
C      1  0.5805812064333  0.2881336919593  0.5660919718373 1.0
C      1  0.5726903253222  0.3011944322060  0.3673856499667 1.0
C      1  0.5482909591351  0.5127818710708  0.3180454527218 1.0
C      1  0.4846797164008  0.6527068513512  0.3835364944581 1.0
C      1  0.5353250954461  0.7529809150462  0.5525544602229 1.0
C      1  0.3434675785708  0.2767427789863  0.4735305113696 1.0
C      1  0.3877079072734  0.3370761034682  0.3357851053983 1.0
C      1  0.3768824370953  0.5419207357021  0.3190277338342 1.0
C      1  0.3228709769030  0.7204514244307  0.4446209771701 1.0
C      1  0.3313116734888  0.6771420299867  0.6397303214607 1.0
C      1  0.3508647934086  0.5107805029502  0.7137312670378 1.0
C      1  0.3524988103484  0.3452105255388  0.6343427674387 1.0
C      1  0.7913602937732  0.5241182491437  0.6343792141039 1.0
C      1  0.8049967685922  0.4568586278979  0.5653416231302 1.0
C      1  0.8038082701145  0.4586694801401  0.4727358854352 1.0
C      1  0.8143581498550  0.5308189272221  0.4054764602621 1.0
C      1  0.7813986114720  0.6192394248470  0.4406909513543 1.0
C      1  0.7805865235952  0.6554214297572  0.5273677727780 1.0
C      1  0.7866781848055  0.6171481930623  0.6166148642151 1.0
C      1  0.4374852198477  0.7312583405445  0.7091076508363 1.0
C      1  0.5019470427232  0.4642215212739  0.7821923358575 1.0
C      1  0.4704665714703  0.2919380455148  0.6793146277576 1.0
C      1  0.5453175298202  0.2152033111352  0.4192681303311 1.0
C      1  0.4528042579104  0.3600623601969  0.2650594416805 1.0
C      1  0.4231478394346  0.6265205348646  0.3047177924156 1.0
C      1  0.4097862229902  0.7623839949090  0.4646264426405 1.0
C      1  0.4687825885996  0.5062527383165  0.4614018497262 1.0
C      1  0.5001383380887  0.4524319433304  0.5445537044641 1.0
C      1  0.9825209113230  0.4949678293470  0.3614586269103 1.0
C      1  0.2174840924353  0.6041735902614  0.4361494494557 1.0
C      1  0.9062157076663  0.5220005315556  0.3723296581672 1.0
C      1  0.0608603784974  0.4421296705200  0.3623706006987 1.0
END
