TITL C-6603-1109-152 -3.509 3375.00 -595.47771909 0 0 75 (C1) n - 1
REM
REM Run started: at 2020.12.18 21:34:39 in /gpfs/home/chem/mssmkc/CARBON/AIRSS/Generating-Clusters/Str-Search/Higher-Symm/C4-100
REM VASP from code version vasp.5.4.4.18Apr17-6-g9f103f2a35 (build Oct 11 2019 16:45:47) gamma-only
REM
REM
REM
REM
REM ./C.cell (6bd13a13d554368a30d355f37ece5b26)
REM AIRSS Version 0.9.1 bugfix July 2018 build 013d7b7c2542+ Fri, 06 Jul 2018 19:26:36 +0100
REM compiler GCC version 6.3.0
REM options -cpp -iprefix /gpfs/warwick/csc/orac/software/Core/GCCcore/6.3.0/bin/../lib/gcc/x86_64-pc-linux-gnu/6.3.0/ -mtune=generic -march=x86-64 -g -O0
REM seed 558596768 -293216340 295418789 813706681 -1344364434 505731554 -1758958047 -336788063 1239204609 321881684 2006473153 -1567746425
REM
REM C.POTCAR (d86ddea03c3ceb6dc662c8ad6801f873)
REM 
CELL 1.54180   15.00000   15.00000   15.00000   90.00000   90.00000   90.00000
LATT -1
SFAC C  
C      1  0.4315096566315  0.4680840418694  0.2721432702405 1.0
C      1  0.7358724271842  0.4731249871108  0.5672524766476 1.0
C      1  0.3193673182782  0.4627344743765  0.6717615492926 1.0
C      1  0.6386083963971  0.5057590613870  0.6018560156190 1.0
C      1  0.3472121740785  0.4985205475391  0.5751351608281 1.0
C      1  0.5071011005153  0.4999700473358  0.3423275132321 1.0
C      1  0.4890739586386  0.6394116952966  0.6017028638329 1.0
C      1  0.4261113381948  0.6441688258918  0.4517283777573 1.0
C      1  0.5845615590076  0.6494749639314  0.4714950741721 1.0
C      1  0.4089878194037  0.4616440204067  0.7220007406358 1.0
C      1  0.3428940343630  0.4726997600779  0.3246705957304 1.0
C      1  0.7260655471262  0.4797970503706  0.4652584828439 1.0
C      1  0.3951804765915  0.6545640171159  0.6343816625520 1.0
C      1  0.4365455571155  0.6591792216211  0.3527889422151 1.0
C      1  0.6544743010674  0.6681229260865  0.5459887650876 1.0
C      1  0.7598869178975  0.5726046219262  0.5894036454273 1.0
C      1  0.2952233086085  0.5635759527951  0.6862320881910 1.0
C      1  0.4371862406768  0.5670964448335  0.2416399980865 1.0
C      1  0.3694143604177  0.6206003874082  0.2799738292048 1.0
C      1  0.7510555250894  0.6284917107122  0.5138970161098 1.0
C      1  0.3648375163579  0.6124203282010  0.7275150132847 1.0
C      1  0.5043378595476  0.3234439972579  0.2696997041308 1.0
C      1  0.7124788461055  0.3221121899604  0.6390695951349 1.0
C      1  0.2765436408168  0.3175082888796  0.6096397995242 1.0
C      1  0.4070046541947  0.7317982644461  0.4884487298307 1.0
C      1  0.5618957246152  0.7341412904189  0.4348104696068 1.0
C      1  0.5293043349897  0.7275268064839  0.6158954501468 1.0
C      1  0.6088884048851  0.7524141377098  0.5757836344686 1.0
C      1  0.4341332328788  0.7334952343694  0.5849805869734 1.0
C      1  0.4667632757889  0.7349930532667  0.4088962569609 1.0
C      1  0.6683936798204  0.5927266385463  0.6097031962960 1.0
C      1  0.3289822745585  0.5873680563000  0.5993248792017 1.0
C      1  0.4976998228574  0.5889001497320  0.3129610601168 1.0
C      1  0.2214829447774  0.4391249292903  0.4163718166400 1.0
C      1  0.7000714304392  0.4472518033092  0.3140467331363 1.0
C      1  0.5340315343704  0.4078093931395  0.7942788782265 1.0
C      1  0.3781360918206  0.2703828490098  0.4743218775321 1.0
C      1  0.5232390095170  0.2446931489230  0.4175613347124 1.0
C      1  0.5603878940374  0.2945994615448  0.5771753092431 1.0
C      1  0.7435868065589  0.5122661848993  0.2793144659472 1.0
C      1  0.5403685241372  0.4660636206564  0.8568862639416 1.0
C      1  0.1672803686961  0.5011384673254  0.3933291096023 1.0
C      1  0.5359161809243  0.4536719976654  0.4191658761311 1.0
C      1  0.5573096045977  0.4627113029787  0.5858772212281 1.0
C      1  0.4051176602938  0.4524607588954  0.5166490213207 1.0
C      1  0.5491572825158  0.3011770836318  0.3462774729168 1.0
C      1  0.6188280231784  0.3113555354198  0.6429919028416 1.0
C      1  0.3136711228283  0.3018769102730  0.5271374495282 1.0
C      1  0.4866154809618  0.5511259197392  0.8356456367067 1.0
C      1  0.2151443307663  0.5758574164044  0.3431098920363 1.0
C      1  0.7619664044372  0.5873797967826  0.3456989434848 1.0
C      1  0.4217751705980  0.5453542023169  0.7686905828348 1.0
C      1  0.3017401305685  0.5595143602997  0.3116179277143 1.0
C      1  0.7508974126812  0.5690171431174  0.4370042152817 1.0
C      1  0.3643543000442  0.3714600468747  0.4703640778864 1.0
C      1  0.5914757400353  0.3688310891188  0.4148355348872 1.0
C      1  0.5414667839772  0.3773014249286  0.6327221953857 1.0
C      1  0.3100744312708  0.4179428406518  0.3977559341793 1.0
C      1  0.6787593195269  0.4223959475277  0.4014912040687 1.0
C      1  0.4860842544319  0.4012586858654  0.7150871356451 1.0
C      1  0.5328899824244  0.5429753386052  0.9126590271927 1.0
C      1  0.1259815023695  0.5795348499559  0.3572737622026 1.0
C      1  0.7932744744688  0.5919870334761  0.2613090543286 1.0
C      1  0.7509513383236  0.3906590847320  0.6128982627542 1.0
C      1  0.2694838858447  0.3804748139088  0.6633669982618 1.0
C      1  0.4639570501220  0.3861226542916  0.2329026852104 1.0
C      1  0.4725655709734  0.0393593301866  0.4746550614608 1.0
C      1  0.5021414583949  0.5977223513777  0.5044948813557 1.0
C      1  0.5546946359089  0.8899660528564  0.4889638456534 1.0
C      1  0.5681438084888  0.2930204089324  0.4826670654539 1.0
C      1  0.5132417117440  0.9617870622299  0.4840872922159 1.0
C      1  0.5887764554689  0.8060591450151  0.4930424053530 1.0
C      1  0.4386180178047  0.1146878762676  0.4648919421885 1.0
C      1  0.4999735376527  0.4922995449058  0.5069556268917 1.0
C      1  0.4379868473194  0.2042628390059  0.4451274330352 1.0
END
