TITL C-6620-4778-28 -8.838 3375.00 -1489.64758171 0 0 184 (C1) n - 1
REM
REM Run started: at 2020.12.18 18:45:49 in /gpfs/home/chem/mssmkc/CARBON/AIRSS/Generating-Clusters/Str-Search/Higher-Symm
REM VASP from code version vasp.5.4.4.18Apr17-6-g9f103f2a35 (build Oct 11 2019 16:45:47) gamma-only
REM
REM
REM
REM
REM ./C.cell (533062f00bc710175b3da973d35f2034)
REM AIRSS Version 0.9.1 bugfix July 2018 build 013d7b7c2542+ Fri, 06 Jul 2018 19:26:36 +0100
REM compiler GCC version 6.3.0
REM options -cpp -iprefix /gpfs/warwick/csc/orac/software/Core/GCCcore/6.3.0/bin/../lib/gcc/x86_64-pc-linux-gnu/6.3.0/ -mtune=generic -march=x86-64 -g -O0
REM seed 760123233 1647505989 -2024515932 1141322297 209984210 1272215907 704522842 -1591185884 1300265279 -1190675303 493429686 -1386309285
REM
REM C.POTCAR (d86ddea03c3ceb6dc662c8ad6801f873)
REM 
CELL 1.54180   15.00000   15.00000   15.00000   90.00000   90.00000   90.00000
LATT -1
SFAC C  
C      1  0.3748793711012  0.3052787390873  0.5448899642293 1.0
C      1  0.3657398338830  0.6368871090899  0.6473940863371 1.0
C      1  0.3784145324957  0.5526400376377  0.3032095122254 1.0
C      1  0.6339745404424  0.3059362674885  0.5320576215638 1.0
C      1  0.6219770217995  0.6353983623896  0.6479652336687 1.0
C      1  0.6318543559257  0.5610132614387  0.3009017346249 1.0
C      1  0.7983555156185  0.2084442787846  0.4865055340137 1.0
C      1  0.8075099657100  0.6095502698071  0.7703788190402 1.0
C      1  0.8110587356520  0.6920141736239  0.2581641389987 1.0
C      1  0.1944779782253  0.2114498718465  0.4962152680167 1.0
C      1  0.1882523178052  0.6309993143213  0.7694171561087 1.0
C      1  0.1992063690248  0.6612112698442  0.2489914476304 1.0
C      1  0.1829118119502  0.7737274676146  0.4115352241266 1.0
C      1  0.1974237421478  0.2660288505547  0.2659070426350 1.0
C      1  0.1744850760451  0.4349456547100  0.7864301627386 1.0
C      1  0.8097435729690  0.7978105759956  0.4200234832282 1.0
C      1  0.7754335867852  0.2721633378990  0.2540524764387 1.0
C      1  0.8286815785765  0.4199818808583  0.7661060717240 1.0
C      1  0.2081590634896  0.3069957282515  0.4963039769897 1.0
C      1  0.2075359691827  0.5735824565295  0.6964922716366 1.0
C      1  0.2210290054592  0.6276933878902  0.3354414356347 1.0
C      1  0.8011681565508  0.3064631360171  0.4825622588444 1.0
C      1  0.7773102957644  0.5614696389797  0.6942142610079 1.0
C      1  0.7899809254139  0.6501693507697  0.3412747242433 1.0
C      1  0.7848972236338  0.7880203692254  0.2628024038854 1.0
C      1  0.7652428321092  0.1686281520619  0.3948997423626 1.0
C      1  0.7884428392704  0.5492386111149  0.8473215381961 1.0
C      1  0.2232221839680  0.7583901075145  0.2568178096957 1.0
C      1  0.2196890270419  0.1703711458633  0.4085227504736 1.0
C      1  0.2137386809035  0.5761126832353  0.8500956265082 1.0
C      1  0.3884559990546  0.1513798701576  0.5801917346213 1.0
C      1  0.3861263085270  0.7363689619679  0.7813057325702 1.0
C      1  0.3924467243345  0.6196632379502  0.1446648575977 1.0
C      1  0.6050556775278  0.1476397305382  0.5760297488604 1.0
C      1  0.6266708158878  0.7283390687929  0.8046503912390 1.0
C      1  0.6342942749543  0.6358830309566  0.1453484333988 1.0
C      1  0.6251990856476  0.3916731837701  0.6461984324108 1.0
C      1  0.5920231408166  0.7509781559670  0.5404297259438 1.0
C      1  0.5848532503146  0.4123409427355  0.2507687252864 1.0
C      1  0.3716216533189  0.3896012867419  0.6689149407479 1.0
C      1  0.3619358816202  0.6788799896803  0.5001900184331 1.0
C      1  0.3545592511983  0.4053995257831  0.3351066832648 1.0
C      1  0.5393655128913  0.5915005695802  0.6247159925267 1.0
C      1  0.5550446122859  0.5799310627255  0.3547102766586 1.0
C      1  0.5514092698295  0.3317660471028  0.4858428894534 1.0
C      1  0.4478389239978  0.5904666479838  0.6339041489820 1.0
C      1  0.4612829125030  0.5660301536045  0.3522938337329 1.0
C      1  0.4590531141178  0.3361608159558  0.5046523056510 1.0
C      1  0.5542687556594  0.8435102723826  0.4120504245022 1.0
C      1  0.5576504394789  0.2527272068105  0.2504722572965 1.0
C      1  0.5489921175366  0.3868429664203  0.8454813938756 1.0
C      1  0.4538283717217  0.8400643348136  0.4228604196325 1.0
C      1  0.4569289619310  0.2630253464031  0.2401095437523 1.0
C      1  0.4492550403484  0.3867330928272  0.8463055838199 1.0
C      1  0.6310451897685  0.7227537298145  0.1919932031967 1.0
C      1  0.6095324326833  0.1322795935338  0.4774589321940 1.0
C      1  0.6285410040274  0.6408404310135  0.8490894631152 1.0
C      1  0.3850968472116  0.7074739886798  0.1917187738053 1.0
C      1  0.3802753889453  0.1387734001364  0.4810640377111 1.0
C      1  0.3791969693589  0.6511514261691  0.8343676649548 1.0
C      1  0.4707227424192  0.5847021878249  0.1092043847018 1.0
C      1  0.4501141970874  0.2100977150607  0.6331236315766 1.0
C      1  0.4632149031196  0.7868423960414  0.7762827750899 1.0
C      1  0.5617839516014  0.5917910370816  0.1087574685440 1.0
C      1  0.5485423878167  0.2134193031230  0.6266801445100 1.0
C      1  0.5535347833265  0.7827412969230  0.7889347403139 1.0
C      1  0.7054625623713  0.4817123072348  0.4533287537922 1.0
C      1  0.7498697688666  0.4943653723545  0.5418998211451 1.0
C      1  0.7584090946725  0.5911358766611  0.5116243523740 1.0
C      1  0.2419728828638  0.4524227738941  0.4643938839411 1.0
C      1  0.2443318121650  0.4726168310359  0.5619107279974 1.0
C      1  0.2426983323037  0.5495842658823  0.4870467111730 1.0
C      1  0.3712885566055  0.2922984026828  0.6431887574358 1.0
C      1  0.3487153793547  0.7167291828641  0.5896354830672 1.0
C      1  0.3530975237463  0.4659023500226  0.2583431317890 1.0
C      1  0.6287056426818  0.2919329215187  0.6294255657317 1.0
C      1  0.6355713750564  0.7277474666200  0.6216055033511 1.0
C      1  0.6372596035991  0.4892298201749  0.2384422858088 1.0
C      1  0.1730495229175  0.4826658815455  0.7002279313820 1.0
C      1  0.1843017318707  0.6748673060807  0.4134383904817 1.0
C      1  0.1662209337586  0.3829158005616  0.4519012340391 1.0
C      1  0.8144297987717  0.4724005723815  0.6836473108254 1.0
C      1  0.8181384909633  0.7010303057056  0.4237578347190 1.0
C      1  0.8514698182994  0.3453258450288  0.4135236232425 1.0
C      1  0.1724935883152  0.4456691052275  0.6178475712314 1.0
C      1  0.1760703144736  0.6178706492628  0.4836784251620 1.0
C      1  0.1019877146080  0.4194687790956  0.4040054930705 1.0
C      1  0.8180553649174  0.4478414176585  0.5954486513767 1.0
C      1  0.8230923660695  0.6502560081308  0.4992944258974 1.0
C      1  0.8691442350841  0.3771582809671  0.3381553742736 1.0
C      1  0.2035059095523  0.3374180127395  0.2118043566467 1.0
C      1  0.1847639430844  0.3415606703073  0.7683705810363 1.0
C      1  0.1865822504792  0.8097083868628  0.5004997770052 1.0
C      1  0.8282121596465  0.3600701746636  0.2555288333420 1.0
C      1  0.8248895065546  0.3275798832403  0.7463176969607 1.0
C      1  0.7818697258893  0.8381825101739  0.5047382193275 1.0
C      1  0.6406222918770  0.2524706785435  0.7740273674142 1.0
C      1  0.6938388321902  0.8613508351330  0.5208062072966 1.0
C      1  0.7086985906130  0.3269343434302  0.2068296197002 1.0
C      1  0.3567334219871  0.2479391353149  0.7856107976155 1.0
C      1  0.3785074509590  0.8133432347455  0.5801222008252 1.0
C      1  0.3864045076951  0.4114189487026  0.1801760483713 1.0
C      1  0.5535987964326  0.5794234175867  0.8575898612423 1.0
C      1  0.5575323446462  0.7639334854969  0.2379649078607 1.0
C      1  0.5439947471038  0.1496752405848  0.4117509258396 1.0
C      1  0.4490817316033  0.5826831753385  0.8522092707643 1.0
C      1  0.4539636557114  0.7568016738249  0.2409642799781 1.0
C      1  0.4456060377360  0.1557670481621  0.4101985126305 1.0
C      1  0.7474562972437  0.8285479328295  0.5942339696733 1.0
C      1  0.7638515754825  0.4085880872969  0.1985231500099 1.0
C      1  0.7809045740288  0.2687269052760  0.7095354658825 1.0
C      1  0.2142341197352  0.8111777452156  0.5786869571864 1.0
C      1  0.2239531860821  0.4088447506974  0.1734980098611 1.0
C      1  0.2205016222174  0.2802583345089  0.7260081063456 1.0
C      1  0.5328848205908  0.4045294948070  0.3342631367300 1.0
C      1  0.5418790772837  0.4290500743026  0.6401517896031 1.0
C      1  0.5448059214398  0.6801939205506  0.4888936026849 1.0
C      1  0.4439343694457  0.4031768484669  0.3593981453134 1.0
C      1  0.4521360137599  0.4281498190434  0.6502684611269 1.0
C      1  0.4517588191019  0.6643281854115  0.4797749007847 1.0
C      1  0.2846885587630  0.6452960812813  0.8508336415603 1.0
C      1  0.2912924519487  0.7256817752187  0.1921787845820 1.0
C      1  0.2863593785683  0.1283074350696  0.4665067574120 1.0
C      1  0.7235730861252  0.6238685055258  0.8625318547010 1.0
C      1  0.7262212437621  0.7483769328549  0.1956336604217 1.0
C      1  0.7043135136642  0.1254900294289  0.4585997784325 1.0
C      1  0.3010136047989  0.7595590503586  0.7361271027996 1.0
C      1  0.3074674389881  0.5707060145481  0.1468037359850 1.0
C      1  0.3031477441920  0.1592540965712  0.6241164483728 1.0
C      1  0.7116407205817  0.7475628541875  0.7589520141031 1.0
C      1  0.7226628652680  0.5906377497905  0.1572282455661 1.0
C      1  0.6904894530690  0.1553147139102  0.6167528735945 1.0
C      1  0.3006517773505  0.4690955749488  0.1683231948179 1.0
C      1  0.3036010434008  0.2337862607198  0.6983333066195 1.0
C      1  0.2927105842175  0.7918048851269  0.6346439506165 1.0
C      1  0.7195795979083  0.4955950647556  0.1859041795352 1.0
C      1  0.6930097492210  0.2321782255297  0.6876562738027 1.0
C      1  0.7070205171001  0.7748144056458  0.6641719933032 1.0
C      1  0.3283995806603  0.5964779054338  0.4521256324563 1.0
C      1  0.3233379166685  0.4031202779638  0.4317920190410 1.0
C      1  0.3233111071039  0.4816720511803  0.6230169391220 1.0
C      1  0.6855179267058  0.5812686126691  0.4426342893517 1.0
C      1  0.6764558413228  0.4015420477957  0.4238490832352 1.0
C      1  0.6643246042661  0.4857813029462  0.6050218355116 1.0
C      1  0.7133478943299  0.5983774185597  0.3485025016225 1.0
C      1  0.7098557458826  0.3339600102199  0.4847829338393 1.0
C      1  0.6897263115290  0.5693441321763  0.6589409577011 1.0
C      1  0.3061812948747  0.5931571293286  0.3531919354230 1.0
C      1  0.3023484521227  0.3240337194261  0.4905729258550 1.0
C      1  0.2959085459841  0.5723870065789  0.6629208694611 1.0
C      1  0.7791709440989  0.6651748127075  0.1741490087923 1.0
C      1  0.7514391909822  0.1499255633926  0.5428211064202 1.0
C      1  0.7704494361061  0.6895329131995  0.8027529310753 1.0
C      1  0.2468161017722  0.6382471403395  0.1704792170950 1.0
C      1  0.2402804679237  0.1498164415846  0.5532654565704 1.0
C      1  0.2405433622060  0.7083276585798  0.7859622685279 1.0
C      1  0.4068286869112  0.8427761140026  0.5008650883495 1.0
C      1  0.4132371571114  0.3278570023000  0.1940927238740 1.0
C      1  0.3928135120197  0.3153393763870  0.8204604060460 1.0
C      1  0.6109822612406  0.8290123589732  0.4903143001571 1.0
C      1  0.6165266166409  0.3259791632904  0.2242634683499 1.0
C      1  0.6063759659401  0.3178319606875  0.8138973602847 1.0
C      1  0.4307893858508  0.5742873723229  0.4462071667371 1.0
C      1  0.4251821606517  0.4138241458148  0.4553456942764 1.0
C      1  0.4173562449033  0.5031224150893  0.5965982845845 1.0
C      1  0.5917429869398  0.6168863690558  0.4386279927223 1.0
C      1  0.5831717041428  0.3829695012884  0.4084867190171 1.0
C      1  0.5659716802313  0.5060550333094  0.5847108972221 1.0
C      1  0.7827655308251  0.8373391867351  0.3388508315169 1.0
C      1  0.7635533961336  0.2045416733901  0.3124769077782 1.0
C      1  0.8056041536238  0.4606782477610  0.8464879041937 1.0
C      1  0.2095520804190  0.8107777678741  0.3299870740960 1.0
C      1  0.2102567504330  0.2085695016190  0.3256478883959 1.0
C      1  0.2001022578425  0.4866067745275  0.8592876565329 1.0
C      1  0.4497839055231  0.4851799406967  0.8597654726662 1.0
C      1  0.4534534290247  0.8110388649226  0.3217644332714 1.0
C      1  0.4500453417211  0.1932725051253  0.3175409627484 1.0
C      1  0.5482430264201  0.4833602479172  0.8624515222794 1.0
C      1  0.5506286285402  0.8184368295366  0.3208256874700 1.0
C      1  0.5462707013333  0.1886322108571  0.3191613586051 1.0
C      1  0.5046864548118  0.1711108811275  0.7075510606129 1.0
C      1  0.5213364968976  0.5188678131996  0.0616409692706 1.0
C      1  0.5161896499785  0.8640662589076  0.7563931824419 1.0
C      1  0.4538012641004  0.4972116103814  0.5040856860087 1.0
END
