TITL C-6662-7152-28 -8.058 3375.00 -1277.00729960 0 0 155 (C1) n - 1
REM
REM Run started: at 2020.12.18 15:05:37 in /gpfs/home/chem/mssmkc/CARBON/AIRSS/Generating-Clusters/Str-Search/Higher-Symm
REM VASP from code version vasp.5.4.4.18Apr17-6-g9f103f2a35 (build Oct 11 2019 16:45:47) gamma-only
REM
REM
REM
REM
REM ./C.cell (533062f00bc710175b3da973d35f2034)
REM AIRSS Version 0.9.1 bugfix July 2018 build 013d7b7c2542+ Fri, 06 Jul 2018 19:26:36 +0100
REM compiler GCC version 6.3.0
REM options -cpp -iprefix /gpfs/warwick/csc/orac/software/Core/GCCcore/6.3.0/bin/../lib/gcc/x86_64-pc-linux-gnu/6.3.0/ -mtune=generic -march=x86-64 -g -O0
REM seed 118930126 2145874600 -1866219458 -392035575 840055544 -1323247832 -1980827808 395475975 109968227 -326269752 -153636968 -404590351
REM
REM C.POTCAR (d86ddea03c3ceb6dc662c8ad6801f873)
REM 
CELL 1.54180   15.00000   15.00000   15.00000   90.00000   90.00000   90.00000
LATT -1
SFAC C  
C      1  0.5778616489120  0.4697019526180  0.5866543676908 1.0
C      1  0.4134805086495  0.1428887544258  0.5904051643171 1.0
C      1  0.7629309512737  0.3373268619534  0.3491559665681 1.0
C      1  0.2158062168268  0.3806966134181  0.5625040680530 1.0
C      1  0.3157285068262  0.2814871033503  0.3232976810113 1.0
C      1  0.4118619577689  0.2485376737248  0.2986830466228 1.0
C      1  0.8066191948976  0.2557639706414  0.6461867182960 1.0
C      1  0.5717391938303  0.8112036773348  0.6125715500896 1.0
C      1  0.3584307684032  0.8741519479584  0.4311145343040 1.0
C      1  0.1857312791782  0.2899787918406  0.5203107406780 1.0
C      1  0.4413964821725  0.4988850717116  0.0733343702837 1.0
C      1  0.6958318330362  0.4007967197569  0.7813389910338 1.0
C      1  0.4479785412807  0.3501882459841  0.4317403746317 1.0
C      1  0.2475533401173  0.5273468538518  0.5253748269025 1.0
C      1  0.7956400117082  0.7163398199198  0.4061578753013 1.0
C      1  0.4897855631498  0.8388688980638  0.6487777752336 1.0
C      1  0.3320478504498  0.4271482687372  0.7959289736933 1.0
C      1  0.2850854080727  0.2237590118378  0.6454142277053 1.0
C      1  0.3974157686060  0.8617594970664  0.6084690953991 1.0
C      1  0.5552405927422  0.8209946449486  0.4407168404135 1.0
C      1  0.3842844142125  0.2472895554796  0.7390724495245 1.0
C      1  0.8052291076701  0.3111042212498  0.5172357021461 1.0
C      1  0.6395938678155  0.1863627519026  0.6674044999223 1.0
C      1  0.7174095966167  0.3539684940448  0.2809939284083 1.0
C      1  0.6718401577190  0.7788261455120  0.2633134215292 1.0
C      1  0.6006304496952  0.6024301340736  0.6492721501317 1.0
C      1  0.7614871696043  0.2694071818480  0.7282419220544 1.0
C      1  0.6245291886477  0.3258452740707  0.7832258607142 1.0
C      1  0.4303850525257  0.6568220656925  0.1965631512991 1.0
C      1  0.7942396747476  0.3602660337079  0.4371407259444 1.0
C      1  0.5181692508006  0.6604796676469  0.4202095568843 1.0
C      1  0.4203543281074  0.7998078613096  0.2854894419213 1.0
C      1  0.6005716421544  0.6155983349861  0.8211868380781 1.0
C      1  0.5601216256101  0.5287357898622  0.8520589407512 1.0
C      1  0.3783182406278  0.5120734574050  0.1383383113126 1.0
C      1  0.5821650900445  0.7663644210711  0.2260483558584 1.0
C      1  0.4282914139446  0.4397297447231  0.4758635783951 1.0
C      1  0.7702323374567  0.5400835526178  0.5854169152622 1.0
C      1  0.8336192195253  0.3399627774647  0.6072756721745 1.0
C      1  0.4472953346361  0.5964711790017  0.4506363250963 1.0
C      1  0.2699754786070  0.2320932583674  0.3980979560480 1.0
C      1  0.5075938950266  0.1335226032704  0.5941780903020 1.0
C      1  0.3708039152685  0.8379746235226  0.5166996055214 1.0
C      1  0.7873263804555  0.6736896578324  0.3195886256255 1.0
C      1  0.3517644258598  0.6242720826231  0.7958138797175 1.0
C      1  0.2618046964084  0.2351519264624  0.5517550784395 1.0
C      1  0.4159691819368  0.4846516691043  0.6426827784476 1.0
C      1  0.5272767395421  0.4795079533785  0.9233215082428 1.0
C      1  0.6116444015391  0.4039795607957  0.4320630594836 1.0
C      1  0.5193630431799  0.6464848194975  0.6801302605682 1.0
C      1  0.4141647339092  0.4106787937717  0.2700634607232 1.0
C      1  0.3587066980289  0.8293429781119  0.6906227201125 1.0
C      1  0.6717082004585  0.8435031371604  0.3318714224949 1.0
C      1  0.3752779872502  0.8504384060279  0.3525550786152 1.0
C      1  0.8221991232499  0.6900043636540  0.4925893214539 1.0
C      1  0.4635281383231  0.3251606227793  0.2618635954602 1.0
C      1  0.5340402265389  0.3305935760687  0.8178179860130 1.0
C      1  0.5181272014624  0.8103941655170  0.2790521871127 1.0
C      1  0.6056200031556  0.8256052729737  0.5218442557575 1.0
C      1  0.4416390591914  0.2952072506501  0.7932101697388 1.0
C      1  0.8209153572365  0.6280362940469  0.5644497349519 1.0
C      1  0.6924298627815  0.7882801828116  0.5426342485005 1.0
C      1  0.6023014660286  0.6070380080638  0.4042366286180 1.0
C      1  0.7697210167877  0.2232905460535  0.5656800707207 1.0
C      1  0.5460693518923  0.3341119633822  0.4046764727944 1.0
C      1  0.6871564760967  0.1775912829806  0.5773118634656 1.0
C      1  0.5436902943115  0.1375912478965  0.5052684913677 1.0
C      1  0.5972641280879  0.4978396725985  0.1010911803760 1.0
C      1  0.4701425479910  0.7531658073731  0.7962635493366 1.0
C      1  0.3810806973131  0.7259420437394  0.2420458250650 1.0
C      1  0.1586404797699  0.6417487793030  0.5550518921148 1.0
C      1  0.7611221007295  0.7600697860154  0.4855866928995 1.0
C      1  0.5871245887560  0.5710371232512  0.5564460833847 1.0
C      1  0.3579063285014  0.5249937442490  0.7657885051242 1.0
C      1  0.1765188972324  0.6033436062278  0.6303453574816 1.0
C      1  0.4732642038125  0.4756567374716  0.5627492685890 1.0
C      1  0.4043417056200  0.7460895623142  0.4973815750978 1.0
C      1  0.3679645479575  0.1824902835960  0.6619636940488 1.0
C      1  0.2449189566155  0.5254843971204  0.6272644326343 1.0
C      1  0.4498317494493  0.4989629272968  0.7300769241662 1.0
C      1  0.6958249539074  0.4958499669134  0.7331922491337 1.0
C      1  0.4026010876142  0.3768907239136  0.8360126622425 1.0
C      1  0.2746581155134  0.3810985972527  0.7281856851927 1.0
C      1  0.4336956639839  0.5110339029546  0.4018911301109 1.0
C      1  0.7860563560501  0.4586146300470  0.4389403397995 1.0
C      1  0.6045414323729  0.5029328895728  0.6863786186472 1.0
C      1  0.3936843153347  0.3460907062137  0.3467911469472 1.0
C      1  0.4478799472970  0.8152646782963  0.7322608802389 1.0
C      1  0.6561927635710  0.5437570440287  0.1543052018132 1.0
C      1  0.3581773905316  0.6032670360073  0.1715423470748 1.0
C      1  0.1703170551182  0.5213770051112  0.3595814133360 1.0
C      1  0.6289801004493  0.4552699030304  0.3515398833287 1.0
C      1  0.4305043517884  0.6711298461194  0.8172236115769 1.0
C      1  0.5339588527315  0.5360926430252  0.2594756806751 1.0
C      1  0.3340989880262  0.5228156951530  0.6667821342015 1.0
C      1  0.6739231075565  0.6378707315340  0.1885172767833 1.0
C      1  0.6768249369435  0.6053725098980  0.7701295195664 1.0
C      1  0.2143380264543  0.5220877176220  0.2765047112548 1.0
C      1  0.5234825826315  0.6696025317187  0.7779324331130 1.0
C      1  0.2608858150066  0.4418513306282  0.2472456589016 1.0
C      1  0.1858365960728  0.6679713801809  0.4704176137029 1.0
C      1  0.2437830232887  0.3584310450589  0.2945578983132 1.0
C      1  0.8214376487340  0.5153182425458  0.3750662945852 1.0
C      1  0.2005669895825  0.4541447773273  0.4983580839206 1.0
C      1  0.4583888452242  0.6416058977407  0.6118720908319 1.0
C      1  0.2042761135454  0.6125398446089  0.3873549421945 1.0
C      1  0.6568181407442  0.7588211350501  0.6318348783847 1.0
C      1  0.6029504664654  0.5434778844315  0.3351432140134 1.0
C      1  0.3046842991469  0.6571532288494  0.2366876247072 1.0
C      1  0.6795001618648  0.1405285397604  0.4147772286008 1.0
C      1  0.3023845964691  0.3317417079214  0.5410575813575 1.0
C      1  0.7179968125130  0.5023771984572  0.5022989847180 1.0
C      1  0.3618888046976  0.6492732760243  0.4812215267643 1.0
C      1  0.2272941124962  0.4253795412079  0.6553683278069 1.0
C      1  0.2946109839987  0.7666051057810  0.7195570505245 1.0
C      1  0.3065358742512  0.1894373816118  0.4749253302314 1.0
C      1  0.6789584330844  0.6641608538457  0.6735693700855 1.0
C      1  0.8161083967944  0.4062065860667  0.6758299135433 1.0
C      1  0.7532489170024  0.6310534778812  0.6221888504936 1.0
C      1  0.6438069962407  0.1944158606988  0.3631442000756 1.0
C      1  0.6264672941106  0.3970035382544  0.2690243204895 1.0
C      1  0.7749443255772  0.3607959222360  0.7526528436734 1.0
C      1  0.6699923360397  0.2490568481514  0.7355549921475 1.0
C      1  0.6391720218714  0.4371162462292  0.5145559724796 1.0
C      1  0.1957705456913  0.2857735931424  0.4258066703973 1.0
C      1  0.6490275710295  0.5767272115573  0.4797946390389 1.0
C      1  0.5533506759241  0.3285234546294  0.2991765511167 1.0
C      1  0.5198152481603  0.4938414020944  0.0290423469891 1.0
C      1  0.2692616378839  0.6099044955276  0.4683870960435 1.0
C      1  0.7742460403058  0.4867753323609  0.6661659459851 1.0
C      1  0.1677459470726  0.4443968558019  0.4098417802730 1.0
C      1  0.2968590861736  0.2886615196268  0.7168045245929 1.0
C      1  0.2967384456400  0.6921481841133  0.7589900256123 1.0
C      1  0.5164659511854  0.6227787671022  0.2108212659294 1.0
C      1  0.3461658821837  0.4472031230368  0.2059585203804 1.0
C      1  0.5645357516147  0.2433571568623  0.3482292468615 1.0
C      1  0.5358351642255  0.4947501098621  0.7602758855271 1.0
C      1  0.5870604578418  0.6781676629832  0.1887880500750 1.0
C      1  0.3774415283653  0.3579935563079  0.5009726513660 1.0
C      1  0.2416052168322  0.6165345891528  0.2893550729145 1.0
C      1  0.4885531553928  0.5760786062340  0.5410824993242 1.0
C      1  0.4758948576543  0.1940345489046  0.3556017239667 1.0
C      1  0.7246495310211  0.6971688716412  0.2497941602569 1.0
C      1  0.5967268536300  0.4732427367624  0.1991946942851 1.0
C      1  0.4685192825201  0.1500303407645  0.4405432886995 1.0
C      1  0.1853582326109  0.3603239974492  0.3678195773116 1.0
C      1  0.4934173944149  0.7440133827054  0.4487775587966 1.0
C      1  0.6378416142333  0.1451033934322  0.5019527623602 1.0
C      1  0.4559766123103  0.4923111858562  0.3128203639446 1.0
C      1  0.3851985838556  0.6835937256410  0.5711269048642 1.0
C      1  0.8164155059222  0.5855850332334  0.3316488043619 1.0
C      1  0.5552047792652  0.1516928042742  0.6702258011145 1.0
C      1  0.5771813491480  0.8447212664557  0.3528194928854 1.0
C      1  0.4890482069250  0.3983228780198  0.8752362624139 1.0
C      1  0.3879395918433  0.1488806653301  0.4962358484773 1.0
END
