TITL C-6603-1109-129 -1.629 3375.00 -261.93766599 0 0 34 (C2v) n - 1
REM
REM Run started: at 2020.12.18 18:08:54 in /gpfs/home/chem/mssmkc/CARBON/AIRSS/Generating-Clusters/Str-Search/Higher-Symm/C4-100
REM VASP from code version vasp.5.4.4.18Apr17-6-g9f103f2a35 (build Oct 11 2019 16:45:47) gamma-only
REM
REM
REM
REM
REM ./C.cell (6bd13a13d554368a30d355f37ece5b26)
REM AIRSS Version 0.9.1 bugfix July 2018 build 013d7b7c2542+ Fri, 06 Jul 2018 19:26:36 +0100
REM compiler GCC version 6.3.0
REM options -cpp -iprefix /gpfs/warwick/csc/orac/software/Core/GCCcore/6.3.0/bin/../lib/gcc/x86_64-pc-linux-gnu/6.3.0/ -mtune=generic -march=x86-64 -g -O0
REM seed -870386926 -1505713520 -1816165232 -1032408999 1624565082 16091926 -118316444 833720342 2137463791 -51248162 -1338730257 -1542735574
REM
REM C.POTCAR (d86ddea03c3ceb6dc662c8ad6801f873)
REM 
CELL 1.54180   15.00000   15.00000   15.00000   90.00000   90.00000   90.00000
LATT -1
SFAC C  
C      1  0.7063659973964  0.4459498691717  0.4494207577804 1.0
C      1  0.7063660239985  0.5540501400872  0.5505791822591 1.0
C      1  0.7063659925772  0.5540501110866  0.4494207253504 1.0
C      1  0.7063660196399  0.4459498795858  0.5505792147468 1.0
C      1  0.3416135887584  0.4529571529404  0.3471965904650 1.0
C      1  0.3416135797950  0.5470428470484  0.6528034106141 1.0
C      1  0.3416136027720  0.5470429013645  0.3471965573152 1.0
C      1  0.3416135945515  0.4529570974765  0.6528034435835 1.0
C      1  0.4191562442490  0.3273829486552  0.4506564882096 1.0
C      1  0.4191562428395  0.6726170249242  0.5493435129041 1.0
C      1  0.4191562926458  0.6726170613935  0.4506564422484 1.0
C      1  0.4191562914166  0.3273829640258  0.5493435583659 1.0
C      1  0.3417291751926  0.3753624923507  0.7070014721357 1.0
C      1  0.3417291784681  0.6246375180981  0.2929985308205 1.0
C      1  0.3417292188656  0.6246374630916  0.7070014275982 1.0
C      1  0.3417292251423  0.3753625283142  0.2929985747257 1.0
C      1  0.5853508586639  0.6814196070377  0.4006899043278 1.0
C      1  0.5853508775526  0.3185803962548  0.5993101321251 1.0
C      1  0.5853507770072  0.3185804621789  0.4006898719644 1.0
C      1  0.5853507965510  0.6814195342676  0.5993101642527 1.0
C      1  0.3744136526258  0.6254948830900  0.6159244697249 1.0
C      1  0.3744136524752  0.3745050880337  0.3840755305750 1.0
C      1  0.3744136927806  0.3745050791037  0.6159245522144 1.0
C      1  0.3744136925850  0.6254949510375  0.3840754496642 1.0
C      1  0.6310165864939  0.3912960578529  0.5811905842058 1.0
C      1  0.6310165565301  0.6087039085700  0.4188093699559 1.0
C      1  0.6310165709373  0.6087039458042  0.5811905223176 1.0
C      1  0.6310165420963  0.3912960881572  0.4188094322999 1.0
C      1  0.5105583158595  0.7030123760841  0.4489068604384 1.0
C      1  0.5105583113727  0.2969876336990  0.5510932046800 1.0
C      1  0.5105582686254  0.2969876414282  0.4489068657788 1.0
C      1  0.5105582640202  0.7030123479599  0.5510931995003 1.0
C      1  0.6088424575434  0.5504934952838  0.4999999774295 1.0
C      1  0.6088424579714  0.4495065045424  0.5000000194226 1.0
END
