TITL C-6603-1109-62 -4.772 3375.00 -816.65517628 0 0 98 (C1) n - 1
REM
REM Run started: at 2020.12.18 05:18:16 in /gpfs/home/chem/mssmkc/CARBON/AIRSS/Generating-Clusters/Str-Search/Higher-Symm/C4-100
REM VASP from code version vasp.5.4.4.18Apr17-6-g9f103f2a35 (build Oct 11 2019 16:45:47) gamma-only
REM
REM
REM
REM
REM ./C.cell (6bd13a13d554368a30d355f37ece5b26)
REM AIRSS Version 0.9.1 bugfix July 2018 build 013d7b7c2542+ Fri, 06 Jul 2018 19:26:36 +0100
REM compiler GCC version 6.3.0
REM options -cpp -iprefix /gpfs/warwick/csc/orac/software/Core/GCCcore/6.3.0/bin/../lib/gcc/x86_64-pc-linux-gnu/6.3.0/ -mtune=generic -march=x86-64 -g -O0
REM seed 1149596469 -1345864984 -435260102 232905794 244069106 2016286615 1947926947 -497396734 -511367248 1771423575 599305249 -1842047822
REM
REM C.POTCAR (d86ddea03c3ceb6dc662c8ad6801f873)
REM 
CELL 1.54180   15.00000   15.00000   15.00000   90.00000   90.00000   90.00000
LATT -1
SFAC C  
C      1  0.5009895726855  0.6341434887685  0.2501490367236 1.0
C      1  0.4958432047268  0.4107549508571  0.2286712214725 1.0
C      1  0.5067632913709  0.2393074347996  0.3712459716427 1.0
C      1  0.4899759285322  0.2252802338473  0.5919118809953 1.0
C      1  0.5349543068682  0.3640708357463  0.7852423739236 1.0
C      1  0.5105608534493  0.6038915624244  0.7949916754666 1.0
C      1  0.5263847754747  0.7736632056422  0.6149266303105 1.0
C      1  0.4815568166773  0.8127583469846  0.3937604722779 1.0
C      1  0.5035665419998  0.7500973833795  0.3337516968196 1.0
C      1  0.4930607943057  0.5476398220397  0.2155697307850 1.0
C      1  0.5026953863757  0.3306955218256  0.2709294286330 1.0
C      1  0.5017247115051  0.2081653541999  0.4570036257090 1.0
C      1  0.4783765510121  0.2759978901841  0.6681914586384 1.0
C      1  0.5039969740304  0.4455979514894  0.7807412839990 1.0
C      1  0.4963542270800  0.6697682607839  0.7327694340478 1.0
C      1  0.4825261951059  0.7891162273997  0.5427089206292 1.0
C      1  0.8017281750659  0.6357947209061  0.3651636543086 1.0
C      1  0.1996066920959  0.4903480157254  0.3202490986724 1.0
C      1  0.7983467729455  0.4355513253241  0.4558972785365 1.0
C      1  0.2119296172732  0.4131993187568  0.5160718833218 1.0
C      1  0.8012830421739  0.4199036609320  0.6105211312761 1.0
C      1  0.2221716483009  0.5149814828963  0.6348905378684 1.0
C      1  0.7896502117863  0.5731124732715  0.5716021576507 1.0
C      1  0.2101862866504  0.5978127477850  0.5057956477769 1.0
C      1  0.6854291715484  0.4202641392344  0.3387432878478 1.0
C      1  0.3056056530533  0.3014974215199  0.4317858825155 1.0
C      1  0.6959564702534  0.2885827184125  0.6062922707598 1.0
C      1  0.3458052166843  0.4323154265299  0.7113016574973 1.0
C      1  0.6922848678003  0.6171469951283  0.7035479963295 1.0
C      1  0.2985467477719  0.7316336512145  0.5555045753783 1.0
C      1  0.7352404984452  0.7038359096529  0.3566926589668 1.0
C      1  0.2650018637701  0.5307926033407  0.2662719943067 1.0
C      1  0.5849298089537  0.4861467649357  0.5403540972111 1.0
C      1  0.4025133529522  0.5642587474837  0.5323427023956 1.0
C      1  0.6026291780007  0.5600841337805  0.4841635169757 1.0
C      1  0.4099357233791  0.5540478096811  0.4362630069433 1.0
C      1  0.5859320285615  0.5089805599580  0.3996834876778 1.0
C      1  0.4416992141061  0.4577291883925  0.4589804813006 1.0
C      1  0.5346948658761  0.4487087361100  0.4572400025205 1.0
C      1  0.4099139773486  0.4726717069799  0.5508420750753 1.0
C      1  0.3498930488119  0.3099375702086  0.3428702076965 1.0
C      1  0.6522591656128  0.2506108910108  0.5256514768588 1.0
C      1  0.4224072275348  0.4315740250387  0.6378589532828 1.0
C      1  0.5853022765531  0.4679276383808  0.6384308961040 1.0
C      1  0.4342733157603  0.6381280793101  0.5849095270768 1.0
C      1  0.5949892623097  0.6548646741362  0.5171068175887 1.0
C      1  0.3929234531886  0.6296857729769  0.3822254074076 1.0
C      1  0.6259784714908  0.4956760976724  0.3041711784082 1.0
C      1  0.5648023968674  0.7257223689567  0.6877310487048 1.0
C      1  0.4242657776779  0.8064155771142  0.4666336959463 1.0
C      1  0.5720193855833  0.6965382278066  0.2833192485921 1.0
C      1  0.4228563654538  0.4756131315929  0.2172492150543 1.0
C      1  0.5735790928601  0.2954701562321  0.3292041330668 1.0
C      1  0.4284278542089  0.2205445857941  0.5170721075982 1.0
C      1  0.5569182894693  0.3055902928975  0.7173045500378 1.0
C      1  0.4553458289538  0.5265521930967  0.8040297782341 1.0
C      1  0.6628129168454  0.4238839376204  0.6853453080025 1.0
C      1  0.3417142629345  0.5970638530780  0.7097202248541 1.0
C      1  0.6703711824588  0.6848808597771  0.5664273902649 1.0
C      1  0.3199212792055  0.6855365381577  0.4165437202674 1.0
C      1  0.6868186482531  0.5751225001462  0.2924400554615 1.0
C      1  0.3047616476961  0.3828585638565  0.2963517762441 1.0
C      1  0.6951057980258  0.2977164001073  0.4470861860455 1.0
C      1  0.3224945672148  0.3108442071680  0.5942501142983 1.0
C      1  0.5673526482789  0.2147116795391  0.5287843246359 1.0
C      1  0.3931708708963  0.3350301794255  0.6629772489482 1.0
C      1  0.5056840906632  0.4560680570048  0.6802792037159 1.0
C      1  0.4173467932881  0.6495100433248  0.6782460290423 1.0
C      1  0.5088452016872  0.6893056881908  0.5477395401833 1.0
C      1  0.4468852697072  0.6688450323841  0.3164399633139 1.0
C      1  0.5589517620366  0.4825043700288  0.2332536577455 1.0
C      1  0.4352030052963  0.2806816805479  0.3200373465829 1.0
C      1  0.6509161378804  0.6901754871795  0.6640646515461 1.0
C      1  0.3362887157398  0.7602674753764  0.4751642409074 1.0
C      1  0.6604192791047  0.6679806363249  0.3043562865019 1.0
C      1  0.3355563395940  0.4642275257046  0.2473857390441 1.0
C      1  0.6528836862281  0.3328644949735  0.3662228602254 1.0
C      1  0.3470934097918  0.2682527992616  0.5116532187705 1.0
C      1  0.6449968885004  0.3265395009288  0.6772295993676 1.0
C      1  0.3698146227091  0.5188836973780  0.7621940664978 1.0
C      1  0.2655327334440  0.5979665459415  0.6533317032342 1.0
C      1  0.7553824698101  0.6528173172484  0.5297295779273 1.0
C      1  0.2395584968639  0.6278080612207  0.4187872614619 1.0
C      1  0.7687833033248  0.5526158549639  0.3328457984779 1.0
C      1  0.2280430563499  0.4049835877614  0.3475731408286 1.0
C      1  0.7676221424821  0.3469716990437  0.4816773210291 1.0
C      1  0.2524011270577  0.3721902393161  0.5945086134550 1.0
C      1  0.7464343710329  0.4633596996981  0.6747599176777 1.0
C      1  0.7722109606516  0.3372188737215  0.5768459023518 1.0
C      1  0.2614783666576  0.4360217423144  0.6636835318401 1.0
C      1  0.7493060753752  0.5587580132733  0.6600754982193 1.0
C      1  0.2491538833284  0.6551114424282  0.5763346186533 1.0
C      1  0.7741721133018  0.6791002789103  0.4423484999398 1.0
C      1  0.2264289575130  0.5767212204539  0.3425140437831 1.0
C      1  0.7643046754178  0.4653061387291  0.3723822118491 1.0
C      1  0.2346351766736  0.3679668987700  0.4352469257520 1.0
C      1  0.1943330619046  0.5078585929721  0.5411697112963 1.0
C      1  0.8182175764415  0.4853940752001  0.5382237029121 1.0
END
