TITL C-6603-1109-141 -1.063 3375.00 -166.91554618 0 0 22 (D4h) n - 1
REM
REM Run started: at 2020.12.18 19:40:22 in /gpfs/home/chem/mssmkc/CARBON/AIRSS/Generating-Clusters/Str-Search/Higher-Symm/C4-100
REM VASP from code version vasp.5.4.4.18Apr17-6-g9f103f2a35 (build Oct 11 2019 16:45:47) gamma-only
REM
REM
REM
REM
REM ./C.cell (6bd13a13d554368a30d355f37ece5b26)
REM AIRSS Version 0.9.1 bugfix July 2018 build 013d7b7c2542+ Fri, 06 Jul 2018 19:26:36 +0100
REM compiler GCC version 6.3.0
REM options -cpp -iprefix /gpfs/warwick/csc/orac/software/Core/GCCcore/6.3.0/bin/../lib/gcc/x86_64-pc-linux-gnu/6.3.0/ -mtune=generic -march=x86-64 -g -O0
REM seed -875296843 1453243767 1638680825 -1950933545 -1417790362 1577936871 -387085992 -246457077 -1971131155 -1300779170 757713476 553600396
REM
REM C.POTCAR (d86ddea03c3ceb6dc662c8ad6801f873)
REM 
CELL 1.54180   15.00000   15.00000   15.00000   90.00000   90.00000   90.00000
LATT -1
SFAC C  
C      1  0.3708942324687  0.4189671116813  0.4484372144101 1.0
C      1  0.3708492347591  0.4501759451558  0.5772247385192 1.0
C      1  0.3709321666694  0.5789667110702  0.5459484686298 1.0
C      1  0.3709358202349  0.5477116745886  0.4171980309313 1.0
C      1  0.6316801964348  0.4191066868636  0.4484725324229 1.0
C      1  0.6317411522956  0.4503151169408  0.5771724358018 1.0
C      1  0.6318753585038  0.5790646912288  0.5459681499009 1.0
C      1  0.6318082143792  0.5477931357117  0.4172379480577 1.0
C      1  0.5882784742817  0.4695408766559  0.3755113063813 1.0
C      1  0.5882140715215  0.3772896313959  0.5267182014294 1.0
C      1  0.5883124771314  0.5285568409746  0.6188104722046 1.0
C      1  0.5884318074070  0.6206882978399  0.4676886800829 1.0
C      1  0.4143839246888  0.4694514279065  0.3755301262803 1.0
C      1  0.4142892887136  0.3773108442587  0.5267083918060 1.0
C      1  0.4144384434777  0.5284758994233  0.6187782064295 1.0
C      1  0.4145160803852  0.6206267569407  0.4676839709512 1.0
C      1  0.5012860690410  0.3595869924931  0.5307123329455 1.0
C      1  0.5013182825323  0.4655539773828  0.3577495698393 1.0
C      1  0.5013285039704  0.5324923600710  0.6366336456370 1.0
C      1  0.5013713525725  0.6384031104931  0.4636421577309 1.0
C      1  0.3230543710822  0.4990366899097  0.4971871986154 1.0
C      1  0.6796556774492  0.4989376210138  0.4972216209932 1.0
END
