TITL C-6603-1109-115 -4.019 3375.00 -670.13634561 0 0 85 (D5) n - 1
REM
REM Run started: at 2020.12.18 16:26:04 in /gpfs/home/chem/mssmkc/CARBON/AIRSS/Generating-Clusters/Str-Search/Higher-Symm/C4-100
REM VASP from code version vasp.5.4.4.18Apr17-6-g9f103f2a35 (build Oct 11 2019 16:45:47) gamma-only
REM
REM
REM
REM
REM ./C.cell (6bd13a13d554368a30d355f37ece5b26)
REM AIRSS Version 0.9.1 bugfix July 2018 build 013d7b7c2542+ Fri, 06 Jul 2018 19:26:36 +0100
REM compiler GCC version 6.3.0
REM options -cpp -iprefix /gpfs/warwick/csc/orac/software/Core/GCCcore/6.3.0/bin/../lib/gcc/x86_64-pc-linux-gnu/6.3.0/ -mtune=generic -march=x86-64 -g -O0
REM seed 1180222692 1427151095 -897650219 1575340439 1008163213 910624426 919519310 -1996135601 -1952362216 -108113136 -1017146996 -1627621734
REM
REM C.POTCAR (d86ddea03c3ceb6dc662c8ad6801f873)
REM 
CELL 1.54180   15.00000   15.00000   15.00000   90.00000   90.00000   90.00000
LATT -1
SFAC C  
C      1  0.5485161316544  0.3470935064892  0.2414929480400 1.0
C      1  0.6601431199868  0.4991549741658  0.2416698071209 1.0
C      1  0.5503331449216  0.6522591507869  0.2415508881168 1.0
C      1  0.3709801319049  0.5948500760907  0.2415862083737 1.0
C      1  0.3698757974579  0.4066641028071  0.2414634019788 1.0
C      1  0.4513327239183  0.3473269146623  0.7629535436606 1.0
C      1  0.3401508446112  0.4993927936291  0.7627570497592 1.0
C      1  0.4500573637669  0.6520390633766  0.7629254312079 1.0
C      1  0.6290718948230  0.5945405236025  0.7627969087823 1.0
C      1  0.6298201945168  0.4065202077373  0.7628540969938 1.0
C      1  0.3872665031288  0.2641338782667  0.4489127109559 1.0
C      1  0.6894614196748  0.3198204145049  0.4486330199867 1.0
C      1  0.7301164998815  0.6246556318035  0.4490087161837 1.0
C      1  0.4525523953310  0.7573087305067  0.4489286480729 1.0
C      1  0.2404588683022  0.5338719219805  0.4489716981236 1.0
C      1  0.6128983953459  0.2641346533680  0.5551086334207 1.0
C      1  0.3107322528653  0.3196013792541  0.5556103731634 1.0
C      1  0.2696496770112  0.6244351054101  0.5550690251360 1.0
C      1  0.5471892029844  0.7573717761118  0.5552127038943 1.0
C      1  0.7594421753889  0.5342048493849  0.5551906071957 1.0
C      1  0.6964959551921  0.4565426113367  0.7227769475171 1.0
C      1  0.6020017815998  0.6732368220159  0.7226003296497 1.0
C      1  0.3667533415052  0.6506063354770  0.7227664977949 1.0
C      1  0.3157552806422  0.4197129227328  0.7227805515482 1.0
C      1  0.5195886793492  0.2996290102123  0.7227664113310 1.0
C      1  0.3031309366661  0.4568728183992  0.2812342508175 1.0
C      1  0.3982008385695  0.6736350818633  0.2814634467404 1.0
C      1  0.6338162460186  0.6506922747038  0.2813691640329 1.0
C      1  0.6843735676165  0.4193046932366  0.2814705446883 1.0
C      1  0.4800232991691  0.2994953516898  0.2814002124659 1.0
C      1  0.5875469329671  0.6267469524807  0.4472660074228 1.0
C      1  0.4065126364423  0.6223760088614  0.4472454849876 1.0
C      1  0.3546672386374  0.4488216973196  0.4473476886125 1.0
C      1  0.5035440043684  0.3462037757543  0.4471792761169 1.0
C      1  0.6473521148371  0.4559860385879  0.4471321703815 1.0
C      1  0.4123027631479  0.6267451925073  0.5567720378832 1.0
C      1  0.5933996720664  0.6224608892765  0.5568069062016 1.0
C      1  0.6453309383708  0.4488940492800  0.5567452039766 1.0
C      1  0.4964586058529  0.3460865621650  0.5568732733630 1.0
C      1  0.3526065636854  0.4558545061432  0.5569566021861 1.0
C      1  0.5677202625543  0.5462940671006  0.8193261681076 1.0
C      1  0.4770327240037  0.5786428263780  0.8192812331170 1.0
C      1  0.4181937345782  0.5023100386764  0.8191754438525 1.0
C      1  0.4724435153528  0.4226846736942  0.8192392877410 1.0
C      1  0.5648921699258  0.4499382266256  0.8192557229005 1.0
C      1  0.4324954663053  0.5464315534074  0.1853897229916 1.0
C      1  0.5232213026182  0.5786213983444  0.1855305465464 1.0
C      1  0.5818861942404  0.5021789907221  0.1855668318295 1.0
C      1  0.5274561522774  0.4226663677094  0.1854498368271 1.0
C      1  0.4350829671265  0.4500979669675  0.1853970515407 1.0
C      1  0.2511145721951  0.4417167731186  0.4568770061097 1.0
C      1  0.4782449760610  0.2457131100567  0.4565544503824 1.0
C      1  0.7350865166845  0.4007761618193  0.4563440975000 1.0
C      1  0.6673009289441  0.6930129944650  0.4568320580171 1.0
C      1  0.3680708167193  0.7187547530225  0.4565335941909 1.0
C      1  0.7488368444383  0.4420960018846  0.5467668442503 1.0
C      1  0.5220198298550  0.2457580285111  0.5468025393343 1.0
C      1  0.2650741078821  0.4004604415772  0.5473020619898 1.0
C      1  0.3324588189385  0.6927192358305  0.5466736271696 1.0
C      1  0.6316074584032  0.7188200997507  0.5470153813205 1.0
C      1  0.3252630776295  0.5408725413383  0.3082833825331 1.0
C      1  0.4068187405939  0.3463421208909  0.3081467620033 1.0
C      1  0.6172033400859  0.3640579785737  0.3081395047405 1.0
C      1  0.6655098301752  0.5698166682045  0.3082181281946 1.0
C      1  0.4849349594332  0.6789092198985  0.3082819638715 1.0
C      1  0.6745296563573  0.5406314738206  0.6958965787844 1.0
C      1  0.5928708812120  0.3463414843434  0.6960175088093 1.0
C      1  0.3828086400623  0.3643142885692  0.6961301646057 1.0
C      1  0.3349214918194  0.5698197361942  0.6958908921278 1.0
C      1  0.5152275514235  0.6786278616177  0.6959348174373 1.0
C      1  0.6576532311251  0.5472467749055  0.5962132139563 1.0
C      1  0.5035648073528  0.6647669315335  0.5961666181515 1.0
C      1  0.3445692886723  0.5544147605401  0.5961836295389 1.0
C      1  0.4005008688218  0.3690942165264  0.5964003609240 1.0
C      1  0.5938862348642  0.3645364555198  0.5962381031149 1.0
C      1  0.3423627182718  0.5471672300091  0.4078358385800 1.0
C      1  0.4963608007295  0.6646299289414  0.4078942204177 1.0
C      1  0.6553368645138  0.5544502413448  0.4078170682776 1.0
C      1  0.5994124223901  0.3692615397789  0.4077165332104 1.0
C      1  0.4061128868047  0.3646745290544  0.4078016071977 1.0
C      1  0.7993498193326  0.5972366914941  0.5020964178126 1.0
C      1  0.2005547543704  0.5972303656075  0.5014931055959 1.0
C      1  0.4999801832810  0.8149929025480  0.5018349167125 1.0
C      1  0.3147659630453  0.2457925245938  0.5016557064284 1.0
C      1  0.6853514943488  0.2457953765077  0.5020620233712 1.0
END
