TITL C-6603-1109-203 -1.123 3375.00 -183.82032408 0 0 23 (C1) n - 1
REM
REM Run started: at 2020.12.19 10:20:14 in /gpfs/home/chem/mssmkc/CARBON/AIRSS/Generating-Clusters/Str-Search/Higher-Symm/C4-100
REM VASP from code version vasp.5.4.4.18Apr17-6-g9f103f2a35 (build Oct 11 2019 16:45:47) gamma-only
REM
REM
REM
REM
REM ./C.cell (6bd13a13d554368a30d355f37ece5b26)
REM AIRSS Version 0.9.1 bugfix July 2018 build 013d7b7c2542+ Fri, 06 Jul 2018 19:26:36 +0100
REM compiler GCC version 6.3.0
REM options -cpp -iprefix /gpfs/warwick/csc/orac/software/Core/GCCcore/6.3.0/bin/../lib/gcc/x86_64-pc-linux-gnu/6.3.0/ -mtune=generic -march=x86-64 -g -O0
REM seed 1778382486 -450182959 300307983 -1943525248 -1093418322 72461441 -349694968 -1865056952 -1089886578 544589481 1050335774 -1674814838
REM
REM C.POTCAR (d86ddea03c3ceb6dc662c8ad6801f873)
REM 
CELL 1.54180   15.00000   15.00000   15.00000   90.00000   90.00000   90.00000
LATT -1
SFAC C  
C      1  0.3995198564787  0.4251799024473  0.4123694651606 1.0
C      1  0.5633125258828  0.4744678334266  0.3790540824177 1.0
C      1  0.6128820706305  0.6076270713016  0.5676278932430 1.0
C      1  0.3491293876934  0.4952610784236  0.4543787797366 1.0
C      1  0.5014965253860  0.3384126715885  0.5208592162412 1.0
C      1  0.6678696079658  0.5081304047449  0.4811065663242 1.0
C      1  0.6212180919362  0.5949203738545  0.4664374305446 1.0
C      1  0.3521928673057  0.5152468883910  0.5493904951140 1.0
C      1  0.3838257436631  0.5854628009082  0.4348232444922 1.0
C      1  0.4700996292689  0.4726751433025  0.3636699528117 1.0
C      1  0.6216044102900  0.4330788968764  0.4435982727095 1.0
C      1  0.4202992732248  0.3564284606251  0.4723902071531 1.0
C      1  0.4633369346887  0.5698737608131  0.3854011671124 1.0
C      1  0.5810685690188  0.3851557174772  0.5219069861574 1.0
C      1  0.5211071787959  0.5979462746402  0.5994170784702 1.0
C      1  0.4496947214772  0.6497352525071  0.5711337236347 1.0
C      1  0.3803906858760  0.6096108851326  0.5313909776763 1.0
C      1  0.5594191458179  0.5765707757013  0.3986929641531 1.0
C      1  0.4172462732560  0.4609822905594  0.5970224556958 1.0
C      1  0.5038289825159  0.5008291738095  0.6141270160083 1.0
C      1  0.5851204681131  0.4527427337837  0.5937880815414 1.0
C      1  0.6527757107285  0.5189426142473  0.5750182779842 1.0
C      1  0.4225612399861  0.3707189954383  0.5663955656177 1.0
END
