TITL C-66338-4690-10 -6.649 3375.00 -1141.91270725 0 0 141 (C1) n - 1
REM
REM Run started: at 2020.12.07 08:04:36 in /rds/project/t2_vol4/rds-t2-cs072/BORA/CARBON/AIRSS/Generating-Clusters/Str-Search/Higher-Symm/C100-200
REM VASP from code version vasp.5.4.4.18Apr17-6-g9f103f2a35 (build Oct 11 2019 16:45:47) gamma-only
REM
REM
REM
REM
REM ./C.cell (533062f00bc710175b3da973d35f2034)
REM AIRSS Version 0.9.1 bugfix July 2018 build 013d7b7c2542+ Fri, 06 Jul 2018 19:26:36 +0100
REM compiler GCC version 4.8.5 20150623 (Red Hat 4.8.5-39)
REM options -cpp -mtune=generic -march=x86-64 -g -O0
REM seed -994437365 -1090185061 -1850624645 359684199 1225558805 1144419889 1826314892 371794978 -787031618 -1132563040 1025432885 489081464
REM
REM C.POTCAR (d86ddea03c3ceb6dc662c8ad6801f873)
REM 
CELL 1.54180   15.00000   15.00000   15.00000   90.00000   90.00000   90.00000
LATT -1
SFAC C  
C      1  0.7146897031103  0.6013863739311  0.4113530116180 1.0
C      1  0.7159274010963  0.3969505048887  0.5897389632464 1.0
C      1  0.7165513301188  0.6012103141695  0.5908083919190 1.0
C      1  0.7140588374483  0.3977311296979  0.4105552179071 1.0
C      1  0.3741840377686  0.6508828617872  0.2023396583880 1.0
C      1  0.3771333702285  0.3506518161786  0.7953258859554 1.0
C      1  0.3730182956404  0.6556412115541  0.7987336609138 1.0
C      1  0.3717394229401  0.3429158595477  0.1976262072802 1.0
C      1  0.6536137686247  0.7565703865020  0.2987843219156 1.0
C      1  0.6561600220392  0.2404532421434  0.7024952039620 1.0
C      1  0.6552086280815  0.7583353345554  0.7036204962018 1.0
C      1  0.6541325227081  0.2418488104386  0.2972624392397 1.0
C      1  0.6388627357029  0.5470446781342  0.5512044276042 1.0
C      1  0.6357375593698  0.4513997435083  0.4515990477944 1.0
C      1  0.6376215718307  0.5473586187920  0.4529480660598 1.0
C      1  0.6381817460576  0.4516366374908  0.5503237859130 1.0
C      1  0.4728885275744  0.5411483880633  0.4113140540972 1.0
C      1  0.4724273752020  0.4552027214200  0.6199962902782 1.0
C      1  0.4726776692305  0.5461973008681  0.6278184829982 1.0
C      1  0.4680369823962  0.4496615906052  0.3841481585046 1.0
C      1  0.4643966193437  0.1954377898003  0.3812364768300 1.0
C      1  0.4673783979733  0.8035752598706  0.6167584621110 1.0
C      1  0.4677321420898  0.1969859125277  0.6157662313600 1.0
C      1  0.4641417066938  0.8017940262882  0.3837687837033 1.0
C      1  0.2447915514048  0.4509742126726  0.2249635379403 1.0
C      1  0.2460657215433  0.5502328994678  0.7686401870982 1.0
C      1  0.2489267255141  0.4554584817733  0.7665295537782 1.0
C      1  0.2446467988340  0.5460896039172  0.2263222853423 1.0
C      1  0.3888926887244  0.5597171045030  0.5771111340195 1.0
C      1  0.3749650202431  0.4450033388673  0.3848794984395 1.0
C      1  0.3709350015180  0.5459495353594  0.4136441448955 1.0
C      1  0.3925737684288  0.4525232709455  0.5619390819396 1.0
C      1  0.5297124060909  0.8582559933771  0.5581966176979 1.0
C      1  0.5285112746415  0.1491194828631  0.4448517274925 1.0
C      1  0.5281341286917  0.8497101610910  0.4462204386835 1.0
C      1  0.5295402574326  0.1410876640538  0.5572029875303 1.0
C      1  0.3102407902513  0.3988155428081  0.8028744867468 1.0
C      1  0.3069365878224  0.6035378350088  0.1925678134474 1.0
C      1  0.3059133794863  0.3926576640230  0.1896889341192 1.0
C      1  0.3056718979349  0.6080482356639  0.8066427181695 1.0
C      1  0.7456161287523  0.2337087180403  0.6722995129307 1.0
C      1  0.7435713584679  0.7636763858192  0.3269430394294 1.0
C      1  0.7441648411258  0.2352695021499  0.3259644462192 1.0
C      1  0.7450089940081  0.7650354542423  0.6740282186313 1.0
C      1  0.1997127837527  0.3847320659156  0.6141272162522 1.0
C      1  0.1885856498022  0.6196038223933  0.3749835451174 1.0
C      1  0.1905170449482  0.3755234931250  0.3721356258422 1.0
C      1  0.1934555121648  0.6241540114493  0.6188114289791 1.0
C      1  0.8023370268512  0.6146100776159  0.5458060398036 1.0
C      1  0.8013349902756  0.3854413233910  0.4537142213366 1.0
C      1  0.8019107580796  0.6141142740416  0.4543338227025 1.0
C      1  0.8020045707378  0.3845035859316  0.5451225310769 1.0
C      1  0.6668856419120  0.2189638936013  0.6047924817747 1.0
C      1  0.6667624037356  0.7788734442777  0.3960080191447 1.0
C      1  0.6673161514929  0.2196442053742  0.3946712006846 1.0
C      1  0.6666342259526  0.7800820797132  0.6061287045218 1.0
C      1  0.5635988656090  0.3288752886941  0.4455075683630 1.0
C      1  0.5626516427413  0.6677549691747  0.5574405041611 1.0
C      1  0.5624462903043  0.3314349004147  0.5548022952390 1.0
C      1  0.5635414007800  0.6689425798580  0.4483293295101 1.0
C      1  0.5790193193356  0.2861570058637  0.7407067678448 1.0
C      1  0.5757280854695  0.7116260360919  0.2614733315908 1.0
C      1  0.5764081906958  0.2861978447537  0.2587187078110 1.0
C      1  0.5777017197513  0.7130336385457  0.7418359049901 1.0
C      1  0.6246860286314  0.1493781650306  0.5484593461036 1.0
C      1  0.6241637099139  0.8480100534909  0.4517904318710 1.0
C      1  0.6248043762856  0.1504839051420  0.4508549537822 1.0
C      1  0.6244913115812  0.8495510559092  0.5496088346211 1.0
C      1  0.4897770643433  0.2514406600415  0.2902461775995 1.0
C      1  0.4913669780238  0.7476318618646  0.7087438987485 1.0
C      1  0.4928931284951  0.2538028399825  0.7066368881446 1.0
C      1  0.4896004469219  0.7453017152376  0.2940266006547 1.0
C      1  0.6002843649145  0.5541829073084  0.3064370157076 1.0
C      1  0.6076715428837  0.4441081966762  0.6988554251729 1.0
C      1  0.6088001445975  0.5546288817925  0.7001079035796 1.0
C      1  0.6023460535799  0.4437469582837  0.3038700508324 1.0
C      1  0.7060667603371  0.5461048430012  0.6752420478874 1.0
C      1  0.7003385051851  0.4525593281058  0.3264811800661 1.0
C      1  0.6996003748729  0.5473163306431  0.3270633713976 1.0
C      1  0.7053382301697  0.4513505283462  0.6744449895039 1.0
C      1  0.1933040642984  0.5500910662575  0.3100240322009 1.0
C      1  0.2011447646848  0.4518624228503  0.6807365247634 1.0
C      1  0.1978960386404  0.5545658854788  0.6831835085808 1.0
C      1  0.1938145105205  0.4458341036541  0.3084163115394 1.0
C      1  0.5756873273894  0.3882583398847  0.2228986887969 1.0
C      1  0.5787033219533  0.6106461408826  0.7794470503104 1.0
C      1  0.5789138169006  0.3883772143382  0.7784513245223 1.0
C      1  0.5740443829621  0.6101636965456  0.2257124791610 1.0
C      1  0.3627242545898  0.1961320582651  0.3857583548273 1.0
C      1  0.3647824459771  0.8028990028040  0.6107258484013 1.0
C      1  0.3654161675015  0.2032206420865  0.6085795126607 1.0
C      1  0.3622947689337  0.7994612483750  0.3883833722092 1.0
C      1  0.2950315526381  0.2256500559268  0.4509122621083 1.0
C      1  0.2960567006300  0.7757347244532  0.5445324146600 1.0
C      1  0.2985188402610  0.2308771312362  0.5414260236451 1.0
C      1  0.2933982833540  0.7748501990028  0.4535862916782 1.0
C      1  0.4053201172850  0.2836658838135  0.2611485448622 1.0
C      1  0.4066792941114  0.7139529110571  0.7346222511255 1.0
C      1  0.4099181979235  0.2929665009056  0.7303577654859 1.0
C      1  0.4059816580877  0.7096662690153  0.2668033045688 1.0
C      1  0.4964702334021  0.7399529694843  0.4552115267606 1.0
C      1  0.4934558300968  0.2630628153605  0.5473021430246 1.0
C      1  0.4925962824931  0.7353907336644  0.5496099054761 1.0
C      1  0.4971980180194  0.2571541668179  0.4528023396595 1.0
C      1  0.5609014718004  0.5852033969484  0.6117070021116 1.0
C      1  0.5570911574976  0.4110075528048  0.3936613188884 1.0
C      1  0.5586933366011  0.5846165729119  0.3994407850850 1.0
C      1  0.5600519380997  0.4144839544357  0.6085486193892 1.0
C      1  0.6628207739974  0.6936360964110  0.4487894181166 1.0
C      1  0.6624464830560  0.3048606703616  0.5531400033201 1.0
C      1  0.6625545578150  0.6941114324909  0.5545390808605 1.0
C      1  0.6629999919570  0.3051338076896  0.4472025918302 1.0
C      1  0.1426359389122  0.6126179970868  0.4562574622850 1.0
C      1  0.1498999267043  0.3901494827785  0.5357817894277 1.0
C      1  0.1464287821149  0.6153544607612  0.5387387142540 1.0
C      1  0.1464030590710  0.3855928570073  0.4535399544091 1.0
C      1  0.2748726800182  0.6913087208198  0.6045101538535 1.0
C      1  0.2721817648392  0.3075580526735  0.3871993643522 1.0
C      1  0.2700268832713  0.6885388753903  0.3923534100485 1.0
C      1  0.2814610610332  0.3197025504310  0.5965608622956 1.0
C      1  0.3362896052421  0.7350474929249  0.3283371390598 1.0
C      1  0.3421785629055  0.2715988971213  0.6651637024318 1.0
C      1  0.3381422296890  0.7390332771033  0.6710475045302 1.0
C      1  0.3357561403797  0.2574321976314  0.3228859627922 1.0
C      1  0.5611807006068  0.4550636097654  0.8388323845867 1.0
C      1  0.5586297740264  0.5439529546444  0.1644080274729 1.0
C      1  0.5588235075803  0.4558190343609  0.1634883742263 1.0
C      1  0.5607925296990  0.5433251035873  0.8390276744704 1.0
C      1  0.3271181570674  0.3771867546960  0.4379838323052 1.0
C      1  0.3259407490436  0.6261838060710  0.5438035912230 1.0
C      1  0.3333639644712  0.3820611888456  0.5302908598540 1.0
C      1  0.3190930837711  0.6214285945600  0.4507268404601 1.0
C      1  0.8428615005832  0.2915983561079  0.5493355159939 1.0
C      1  0.8422113292076  0.7075437907911  0.4493221579757 1.0
C      1  0.8424316936448  0.2924220037045  0.4481637961843 1.0
C      1  0.8424716515915  0.7079232083729  0.5504798881934 1.0
C      1  0.8181841399890  0.2435635174710  0.3748279786247 1.0
C      1  0.8180608182824  0.7570980798416  0.6236921967793 1.0
C      1  0.8188670729967  0.2418043992321  0.6222628365096 1.0
C      1  0.8174443224556  0.7564683111005  0.3762069105519 1.0
C      1  0.4211048980102  0.5196977884130  0.4942995614482 1.0
END
