TITL C-6662-7152-20 -6.937 3375.00 -1193.82957717 0 0 146 (C1) n - 1
REM
REM Run started: at 2020.12.18 08:00:23 in /gpfs/home/chem/mssmkc/CARBON/AIRSS/Generating-Clusters/Str-Search/Higher-Symm
REM VASP from code version vasp.5.4.4.18Apr17-6-g9f103f2a35 (build Oct 11 2019 16:45:47) gamma-only
REM
REM
REM
REM
REM ./C.cell (533062f00bc710175b3da973d35f2034)
REM AIRSS Version 0.9.1 bugfix July 2018 build 013d7b7c2542+ Fri, 06 Jul 2018 19:26:36 +0100
REM compiler GCC version 6.3.0
REM options -cpp -iprefix /gpfs/warwick/csc/orac/software/Core/GCCcore/6.3.0/bin/../lib/gcc/x86_64-pc-linux-gnu/6.3.0/ -mtune=generic -march=x86-64 -g -O0
REM seed -82054048 1887424372 1133245083 1904866481 -780465698 -115900465 -506141442 -313397241 182345005 2100564203 2072077478 -682132336
REM
REM C.POTCAR (d86ddea03c3ceb6dc662c8ad6801f873)
REM 
CELL 1.54180   15.00000   15.00000   15.00000   90.00000   90.00000   90.00000
LATT -1
SFAC C  
C      1  0.2713891788435  0.7399813455490  0.3132723232905 1.0
C      1  0.2689655455314  0.2252377863165  0.3717782200924 1.0
C      1  0.2605796194329  0.4865020572706  0.8249923770955 1.0
C      1  0.1396514909812  0.5695539288192  0.4686567664971 1.0
C      1  0.1491594330301  0.4102414457665  0.4624927565413 1.0
C      1  0.1637133814656  0.4996069919322  0.6156940517000 1.0
C      1  0.4287920639127  0.2417791951984  0.7110899116656 1.0
C      1  0.4132061770851  0.8122762025339  0.6203425648709 1.0
C      1  0.4328805415997  0.4497679464729  0.1805693245970 1.0
C      1  0.4270650722508  0.6739631294690  0.2564206290156 1.0
C      1  0.4242270518546  0.2086660616585  0.4675601920173 1.0
C      1  0.4252548210744  0.6249206384118  0.7776564196417 1.0
C      1  0.4634976811526  0.7735826829304  0.2593287072038 1.0
C      1  0.4703897832795  0.1604145542416  0.3847103450937 1.0
C      1  0.4695635922044  0.5518200185719  0.8548733002794 1.0
C      1  0.6285573094392  0.6644334144075  0.7790099413611 1.0
C      1  0.6234581724093  0.6500140289527  0.2119495834109 1.0
C      1  0.6155375157394  0.1885048601126  0.5165441408480 1.0
C      1  0.6964480786049  0.2014930216499  0.5623378159251 1.0
C      1  0.7034923933896  0.6985477699977  0.7296822088664 1.0
C      1  0.7017601758600  0.5971352094409  0.2083470065107 1.0
C      1  0.3679822755404  0.8488551612867  0.3519802616958 1.0
C      1  0.3881940026378  0.2380470280676  0.2757467275656 1.0
C      1  0.3288162505239  0.4709869263479  0.8887740693011 1.0
C      1  0.3175915731327  0.1394211765192  0.3649070967489 1.0
C      1  0.2644459855187  0.5812144296773  0.8087961557283 1.0
C      1  0.3088657018937  0.7779311515109  0.2331453325893 1.0
C      1  0.6831774882849  0.5045312397944  0.1855974747414 1.0
C      1  0.6812555643559  0.2250638325746  0.6546391939638 1.0
C      1  0.6773382155495  0.7710041659408  0.6677661063929 1.0
C      1  0.1851016895459  0.5923859272903  0.6292749787012 1.0
C      1  0.1731896956381  0.5853078814892  0.3826230800145 1.0
C      1  0.1650901572120  0.3292929082268  0.5066366959489 1.0
C      1  0.5500156902378  0.6524233560862  0.3669962797230 1.0
C      1  0.5459349387305  0.3190864229583  0.4338457005410 1.0
C      1  0.5468382555299  0.5467551744211  0.6887340512070 1.0
C      1  0.7529215893119  0.5570333865943  0.6649600884440 1.0
C      1  0.7669244928184  0.6401785282416  0.3502676227728 1.0
C      1  0.7640336340838  0.3039423966638  0.4516922621110 1.0
C      1  0.4731012867397  0.4773677133221  0.6815815813038 1.0
C      1  0.4774117138639  0.6845834331174  0.4303196738948 1.0
C      1  0.4755903232658  0.3577110205814  0.3674274308082 1.0
C      1  0.4330947014747  0.7812172455960  0.7066326520691 1.0
C      1  0.4012929965613  0.5381931192077  0.1698852806776 1.0
C      1  0.3932220267971  0.2006307876485  0.6342109285724 1.0
C      1  0.3004484884778  0.3720334046691  0.2706412578002 1.0
C      1  0.2899141531765  0.3480545086582  0.7241470719379 1.0
C      1  0.3019420820644  0.7677137759012  0.4851325022730 1.0
C      1  0.4280266145205  0.5324307943366  0.3727647963412 1.0
C      1  0.4228107896302  0.3807836930193  0.5347511459008 1.0
C      1  0.4254926823886  0.6107798669688  0.5878773425639 1.0
C      1  0.2161039071901  0.6615332420801  0.5958808228986 1.0
C      1  0.1936379598617  0.5090336514836  0.3325030911076 1.0
C      1  0.1994250628732  0.3001052055347  0.5764323273806 1.0
C      1  0.6930122991147  0.3097594470332  0.3086335999137 1.0
C      1  0.7055769029987  0.4304564441123  0.7472476916885 1.0
C      1  0.7051792000812  0.7606969294112  0.4265777511591 1.0
C      1  0.4609966052265  0.3877722693773  0.7194839556653 1.0
C      1  0.4682285900761  0.7668081485434  0.4871024398204 1.0
C      1  0.4509160175505  0.3182754621895  0.2653291714912 1.0
C      1  0.5794643678623  0.1990124281325  0.2701306071393 1.0
C      1  0.5703164239743  0.4184890592170  0.8425932955457 1.0
C      1  0.5681017771290  0.8415410474162  0.3692504799388 1.0
C      1  0.6133013383797  0.7102736149812  0.2928926339914 1.0
C      1  0.6082914749534  0.2309499712671  0.4262460275329 1.0
C      1  0.6116531221004  0.5643870270938  0.7731509890507 1.0
C      1  0.8423607934261  0.5496940504185  0.4715583524858 1.0
C      1  0.8455450381845  0.4538914532038  0.4544768825501 1.0
C      1  0.8463126166208  0.4866340756318  0.5458928995580 1.0
C      1  0.3066000671732  0.7881055591996  0.3905160022488 1.0
C      1  0.3053324989394  0.2803335194676  0.3025793655453 1.0
C      1  0.2455569496519  0.4302902210324  0.7546361027832 1.0
C      1  0.7518682999055  0.7043496518133  0.4940160538309 1.0
C      1  0.7452186650724  0.3951155552298  0.3240126682377 1.0
C      1  0.7571812199099  0.3997069197855  0.6690339917687 1.0
C      1  0.7386129808811  0.3088198726526  0.6303134993808 1.0
C      1  0.7352835904767  0.7188277244604  0.5966453738955 1.0
C      1  0.7373095536688  0.4794786761317  0.2687744607783 1.0
C      1  0.3301408382283  0.6278819135227  0.7934916362012 1.0
C      1  0.3263069894314  0.6880596927939  0.2474782671610 1.0
C      1  0.3255456474793  0.1882908822465  0.4425479605807 1.0
C      1  0.5553215732818  0.5912747975992  0.1796631038599 1.0
C      1  0.5463747543772  0.1869082145555  0.5828143073651 1.0
C      1  0.5610271957847  0.7274064992677  0.7624010107281 1.0
C      1  0.5299851274240  0.4252243191132  0.1810217572592 1.0
C      1  0.5234718562123  0.2503358397670  0.7345996722898 1.0
C      1  0.5017493386556  0.8254114301978  0.6574407231194 1.0
C      1  0.4481238958358  0.3143058251095  0.4594973326118 1.0
C      1  0.4499228022065  0.5767602547023  0.6827622931201 1.0
C      1  0.4532597758735  0.6294821557234  0.3486770893517 1.0
C      1  0.5926979795703  0.5747374883052  0.6095901746342 1.0
C      1  0.5969865711507  0.5725842626799  0.3811752627686 1.0
C      1  0.5912379107287  0.3738864663698  0.4982945637109 1.0
C      1  0.4531361879574  0.1893047802443  0.5637267308556 1.0
C      1  0.4671507014754  0.7158834705783  0.7660357514108 1.0
C      1  0.4619168441600  0.6042926706609  0.1913150111625 1.0
C      1  0.5747344251017  0.4880607153729  0.3415581176708 1.0
C      1  0.5730850464265  0.3767825464445  0.5894265248451 1.0
C      1  0.5772275127864  0.6452705931666  0.5547038815757 1.0
C      1  0.2225679370689  0.3401268274162  0.6558028149036 1.0
C      1  0.2328038163164  0.7067241729173  0.5132251888086 1.0
C      1  0.2334539460499  0.4275288557133  0.3004095774632 1.0
C      1  0.8034281194287  0.6310734458497  0.4403794305455 1.0
C      1  0.8017364067247  0.3844018313099  0.4089350121931 1.0
C      1  0.8094562115990  0.4777071810517  0.6307710065110 1.0
C      1  0.5395297484588  0.3442884605043  0.7720179139596 1.0
C      1  0.5422748932100  0.8262361205524  0.4583050234190 1.0
C      1  0.5408184222760  0.3398120282158  0.2191691550842 1.0
C      1  0.4006697747618  0.1534872833971  0.3177066131771 1.0
C      1  0.4047993225984  0.5019784310849  0.8981413319570 1.0
C      1  0.3857726210479  0.8313713901015  0.2602496033397 1.0
C      1  0.4873135665136  0.4577175163498  0.3566221837856 1.0
C      1  0.4814899660289  0.3962748602053  0.6171285798737 1.0
C      1  0.4878974832162  0.6716673102192  0.5304623944774 1.0
C      1  0.6144694569024  0.2855568037074  0.2546028408631 1.0
C      1  0.6313670974222  0.3844107357223  0.7870730130997 1.0
C      1  0.6326052508960  0.8207241535591  0.4369926982479 1.0
C      1  0.7637972485886  0.5785007679273  0.2777764400880 1.0
C      1  0.7619816597198  0.2686043496419  0.5404115531193 1.0
C      1  0.7651875058813  0.6568076372923  0.6735069981168 1.0
C      1  0.6864246280792  0.5650556736156  0.5824347923211 1.0
C      1  0.6693796887905  0.5301733903493  0.4190853966243 1.0
C      1  0.6747334119991  0.4165345989299  0.5173310611070 1.0
C      1  0.6987940297901  0.5209887775198  0.7441857852859 1.0
C      1  0.7046469282094  0.7161286392087  0.3446717677786 1.0
C      1  0.6976537693475  0.2659898320949  0.3913656920535 1.0
C      1  0.3802812544449  0.5502556892330  0.5359900376680 1.0
C      1  0.3702685167939  0.5215196841531  0.4450643538010 1.0
C      1  0.3754244243604  0.4565091121382  0.5141152460571 1.0
C      1  0.1707611357511  0.4276145965462  0.3723328133944 1.0
C      1  0.1904021145601  0.4320240193776  0.6741963920086 1.0
C      1  0.1836039279695  0.6519112222146  0.4527174506332 1.0
C      1  0.3823023344587  0.3242470873400  0.7304417539191 1.0
C      1  0.3821715783700  0.7942279104078  0.5322159513145 1.0
C      1  0.3858994652400  0.3858170185851  0.2277945817249 1.0
C      1  0.6749303635524  0.6581886404450  0.5439232501117 1.0
C      1  0.6706070871312  0.4624665078013  0.3466864875853 1.0
C      1  0.6721794809276  0.3837480803868  0.6084304455918 1.0
C      1  0.5540752178556  0.5156986014252  0.8421013794421 1.0
C      1  0.5507054633426  0.7906777270445  0.2919624101404 1.0
C      1  0.5574433767058  0.1785720087331  0.3586154657552 1.0
C      1  0.5875030065078  0.7921585605672  0.6890095653402 1.0
C      1  0.5916076530510  0.4984586338272  0.1671651442077 1.0
C      1  0.5850997440789  0.2148066813474  0.6709197122377 1.0
C      1  0.6912884550732  0.5053097400310  0.5050115283387 1.0
C      1  0.1402974528232  0.4900489121968  0.5192636239983 1.0
END
