TITL C-66864-9980-3 -9.589 3375.00 -1718.34227746 0 0 208 (C4) n - 1
REM
REM Run started: at 2020.12.13 10:01:42 in /rds/project/t2_vol4/rds-t2-cs072/BORA/CARBON/AIRSS/Generating-Clusters/Str-Search/Higher-Symm/C200-350
REM VASP from code version vasp.5.4.4.18Apr17-6-g9f103f2a35 (build Oct 11 2019 16:45:47) gamma-only
REM
REM
REM
REM
REM ./C.cell (8a36a0f86d45ee02852e7beefdfb7796)
REM AIRSS Version 0.9.1 bugfix July 2018 build 013d7b7c2542+ Fri, 06 Jul 2018 19:26:36 +0100
REM compiler GCC version 4.8.5 20150623 (Red Hat 4.8.5-39)
REM options -cpp -mtune=generic -march=x86-64 -g -O0
REM seed 2025087683 -1810122776 445752381 -762555508 -819444634 1226496588 1235868884 1277160494 429182165 2048202786 -1134232032 1910782095
REM
REM C.POTCAR (d86ddea03c3ceb6dc662c8ad6801f873)
REM 
CELL 1.54180   15.00000   15.00000   15.00000   90.00000   90.00000   90.00000
LATT -1
SFAC C  
C      1  0.5994185063449  0.4951818793974  0.6409486717507 1.0
C      1  0.5994176441233  0.6409465268848  0.5048170273438 1.0
C      1  0.5994187773689  0.5048170880157  0.3590516593119 1.0
C      1  0.5994180147385  0.3590529897002  0.4951828272913 1.0
C      1  0.6569070562105  0.1712558102611  0.3108658748077 1.0
C      1  0.6569049901678  0.3108693300288  0.8287459187515 1.0
C      1  0.6569051075230  0.8287452480498  0.6891323067276 1.0
C      1  0.6569053299916  0.6891297843528  0.1712540345233 1.0
C      1  0.7394392959336  0.3830360721003  0.2405070748801 1.0
C      1  0.7394336363411  0.2405082888281  0.6169632281012 1.0
C      1  0.7394373040589  0.6169644780994  0.7594940372367 1.0
C      1  0.7394342642817  0.7594910498391  0.3830364125780 1.0
C      1  0.3154740654276  0.7054789017440  0.2349463558897 1.0
C      1  0.3154776628153  0.2349463613525  0.2945215944050 1.0
C      1  0.3154755836920  0.2945207719805  0.7650537050981 1.0
C      1  0.3154763257260  0.7650535551364  0.7054781071192 1.0
C      1  0.3666090615398  0.6432126835338  0.4979828137271 1.0
C      1  0.3666087659001  0.4979820567968  0.3567855589406 1.0
C      1  0.3666089283909  0.3567871258950  0.5020168404835 1.0
C      1  0.3666091474051  0.5020175014777  0.6432136827898 1.0
C      1  0.5632213961459  0.6515976620369  0.4147583371916 1.0
C      1  0.5632237504717  0.4147582408298  0.3484012444983 1.0
C      1  0.5632217113556  0.3484017643797  0.5852413100999 1.0
C      1  0.5632224040779  0.5852405538211  0.6515984382226 1.0
C      1  0.5976226691319  0.7989780802279  0.7569789450092 1.0
C      1  0.5976217368037  0.7569755933393  0.2010227789259 1.0
C      1  0.5976236217860  0.2010224145869  0.2430196641560 1.0
C      1  0.5976218709726  0.2430234374900  0.7989770501113 1.0
C      1  0.8542189086703  0.6651913962264  0.3272849335494 1.0
C      1  0.8542252461022  0.3272811578519  0.3348035806663 1.0
C      1  0.8542175913071  0.3348106119387  0.6727143053115 1.0
C      1  0.8542243929565  0.6727191589978  0.6651948177185 1.0
C      1  0.4705539550233  0.1806178701486  0.3493731407118 1.0
C      1  0.4705532493757  0.3493758304596  0.8193852685241 1.0
C      1  0.4705531152192  0.8193808109440  0.6506242765922 1.0
C      1  0.4705526046255  0.6506232305858  0.1806130940398 1.0
C      1  0.7730523931014  0.2966201155833  0.6935417549000 1.0
C      1  0.7730539690906  0.6935449692377  0.7033840015368 1.0
C      1  0.7730529474673  0.7033804661819  0.3064578930913 1.0
C      1  0.7730582242548  0.3064568490915  0.2966166595049 1.0
C      1  0.4278696997014  0.4306754894148  0.6280184474586 1.0
C      1  0.4278685499413  0.6280183094217  0.5693262000538 1.0
C      1  0.4278692885825  0.5693238489119  0.3719812574620 1.0
C      1  0.4278685180536  0.3719816891903  0.4306735097288 1.0
C      1  0.4997338973399  0.8198939213242  0.7578134520012 1.0
C      1  0.4997334655677  0.7578143025859  0.1801047930439 1.0
C      1  0.4997342828674  0.1801061853214  0.2421882253864 1.0
C      1  0.4997340938205  0.2421855246835  0.8198936385418 1.0
C      1  0.6140921633831  0.3904493770287  0.8662598809850 1.0
C      1  0.6140919342416  0.8662576665271  0.6095514916950 1.0
C      1  0.6140925474805  0.6095497380796  0.1337401825782 1.0
C      1  0.6140931943582  0.1337446341973  0.3904469619795 1.0
C      1  0.5243129140307  0.6235665733896  0.5664454306346 1.0
C      1  0.5243129443047  0.5664447788125  0.3764314155066 1.0
C      1  0.5243130778975  0.3764322921266  0.4335540364632 1.0
C      1  0.5243131416751  0.4335541292546  0.6235688765757 1.0
C      1  0.4153760120995  0.1328805856241  0.5879260602905 1.0
C      1  0.4153795774999  0.5879225975295  0.8671130599011 1.0
C      1  0.4153762062632  0.8671182742627  0.4120742926224 1.0
C      1  0.4153803628602  0.4120792665896  0.1328897708887 1.0
C      1  0.2383194225536  0.2649259997919  0.3410309326398 1.0
C      1  0.2383183435109  0.3410305993739  0.7350737154165 1.0
C      1  0.2383185246984  0.7350737724973  0.6589690407032 1.0
C      1  0.2383151163642  0.6589707814960  0.2649238264511 1.0
C      1  0.4859693935679  0.7100137430036  0.3990491683436 1.0
C      1  0.4859723729157  0.3990495346762  0.2899844834781 1.0
C      1  0.4859694054198  0.2899854067127  0.6009501411647 1.0
C      1  0.4859715083775  0.6009498904534  0.7100154011588 1.0
C      1  0.8534608909238  0.3324577177821  0.5077766409195 1.0
C      1  0.8534613381219  0.5077811218000  0.6675417241396 1.0
C      1  0.8534606629583  0.6675414076144  0.4922222616565 1.0
C      1  0.8534630935776  0.4922197505923  0.3324596503350 1.0
C      1  0.3411994389804  0.3692795359523  0.1835239241052 1.0
C      1  0.3411966897397  0.1835173449777  0.6307234942263 1.0
C      1  0.3411986697187  0.6307214528679  0.8164778835897 1.0
C      1  0.3411970974219  0.8164815874904  0.3692763329204 1.0
C      1  0.5061792168463  0.2321328911797  0.6704407542103 1.0
C      1  0.5061810764833  0.6704414318124  0.7678663459896 1.0
C      1  0.5061796549607  0.7678654591614  0.3295582541814 1.0
C      1  0.5061816209189  0.3295585734569  0.2321323714670 1.0
C      1  0.4221748050137  0.1105095835610  0.4988314481843 1.0
C      1  0.4221745592956  0.4988304392003  0.8894894896221 1.0
C      1  0.4221740818791  0.8894908711315  0.5011690985081 1.0
C      1  0.4221746067420  0.5011707612430  0.1105104214139 1.0
C      1  0.2809358149218  0.6133486469782  0.5025597581422 1.0
C      1  0.2809372088659  0.5025604957030  0.3866508046854 1.0
C      1  0.2809360406896  0.3866520876282  0.4974399164844 1.0
C      1  0.2809372707099  0.4974399520684  0.6133486239004 1.0
C      1  0.5076471483674  0.8714057048204  0.4564518844515 1.0
C      1  0.5076503138531  0.4564620227078  0.1286067320062 1.0
C      1  0.5076472660720  0.1285908600163  0.5435502694148 1.0
C      1  0.5076496102158  0.5435415921667  0.8713984621077 1.0
C      1  0.6015375976364  0.3027273791739  0.2380855316702 1.0
C      1  0.6015357910954  0.2380872588449  0.6972719700430 1.0
C      1  0.6015370672139  0.6972729585451  0.7619134380599 1.0
C      1  0.6015358541486  0.7619111835306  0.3027275814372 1.0
C      1  0.4498194097439  0.7882723417121  0.2577441802559 1.0
C      1  0.4498204045408  0.2577445474178  0.2117284363773 1.0
C      1  0.4498195186716  0.2117269437452  0.7422556877888 1.0
C      1  0.4498197935770  0.7422552518395  0.7882710585668 1.0
C      1  0.6119241713903  0.3356836730286  0.6713383247873 1.0
C      1  0.6119266086430  0.6713376948215  0.6643165324260 1.0
C      1  0.6119235798713  0.6643146907755  0.3286609110117 1.0
C      1  0.6119275241094  0.3286605392964  0.3356834644323 1.0
C      1  0.7726400840042  0.2618637838913  0.5193865724036 1.0
C      1  0.7726431443382  0.5193860460223  0.7381369770017 1.0
C      1  0.7726404823786  0.7381368529039  0.4806139052437 1.0
C      1  0.7726450415131  0.4806139722769  0.2618632882697 1.0
C      1  0.1387686770859  0.5411821408704  0.4413316192915 1.0
C      1  0.1387689969365  0.4413319708531  0.4588181659893 1.0
C      1  0.1387687250829  0.4588183138685  0.5586682726630 1.0
C      1  0.1387691641559  0.5586683289111  0.5411814394462 1.0
C      1  0.2654180338679  0.4294171482583  0.2002794002912 1.0
C      1  0.2654177144245  0.2002762792371  0.5705837896564 1.0
C      1  0.2654180246275  0.5705832778363  0.7997216561604 1.0
C      1  0.2654175756390  0.7997234190621  0.4294160214347 1.0
C      1  0.2364466250410  0.4189472058581  0.5794405277650 1.0
C      1  0.2364462465576  0.5794399553786  0.5810519883899 1.0
C      1  0.2364476181178  0.5810549950260  0.4205579635354 1.0
C      1  0.2364461742411  0.4205608235002  0.4189478973278 1.0
C      1  0.6562964106009  0.6249023151978  0.8073291093547 1.0
C      1  0.6562942800525  0.8073290610504  0.3750972159484 1.0
C      1  0.6562979473457  0.3750982654433  0.1926720258579 1.0
C      1  0.6562936647303  0.1926684783141  0.6249024495819 1.0
C      1  0.7389311082881  0.5566664986213  0.2049511460868 1.0
C      1  0.7389262144297  0.2049524571140  0.4433346093788 1.0
C      1  0.7389292593300  0.4433334381221  0.7950491408246 1.0
C      1  0.7389265419081  0.7950485704515  0.5566656281252 1.0
C      1  0.4068163251820  0.4107287752275  0.3457938434838 1.0
C      1  0.4068149914357  0.3457978631925  0.5892697729166 1.0
C      1  0.4068157828059  0.5892710442222  0.6542059572334 1.0
C      1  0.4068146374616  0.6542018263152  0.4107296216401 1.0
C      1  0.5800274987009  0.4191429825862  0.7109671715669 1.0
C      1  0.5800278537264  0.7109657822442  0.5808557557322 1.0
C      1  0.5800267354611  0.5808558939792  0.2890321764216 1.0
C      1  0.5800270282056  0.2890338549400  0.4191441285147 1.0
C      1  0.6661057494475  0.5317955078677  0.1461417849496 1.0
C      1  0.6661018785829  0.1461414248815  0.4682058454269 1.0
C      1  0.6661036997862  0.4682054023693  0.8538576440361 1.0
C      1  0.6661028647912  0.8538595959472  0.5317940745684 1.0
C      1  0.3576979066494  0.7778689159994  0.2810202967543 1.0
C      1  0.3577003991052  0.2810215751795  0.2221333068033 1.0
C      1  0.3576986995524  0.2221307409366  0.7189794286193 1.0
C      1  0.3576998588547  0.7189784741764  0.7778667142146 1.0
C      1  0.1284922047896  0.4221389571041  0.6492385502500 1.0
C      1  0.1284914564455  0.6492386857921  0.5778609616303 1.0
C      1  0.1284923349554  0.5778613549473  0.3507619745013 1.0
C      1  0.1284918124542  0.3507608894188  0.4221397403022 1.0
C      1  0.8916565027987  0.4186652928229  0.6588599992480 1.0
C      1  0.8916592952093  0.6588642767154  0.5813407545389 1.0
C      1  0.8916582339738  0.5813362947443  0.3411390148328 1.0
C      1  0.8916595926116  0.3411350857096  0.4186643434585 1.0
C      1  0.7299549175727  0.3446082303273  0.7734843321052 1.0
C      1  0.7299520454204  0.7734816522344  0.6553927553153 1.0
C      1  0.7299555568616  0.6553909729005  0.2265162713807 1.0
C      1  0.7299533323364  0.2265198802669  0.3446064562901 1.0
C      1  0.2169444988472  0.7747671038800  0.5763342098522 1.0
C      1  0.2169439145160  0.5763340478951  0.2252328801277 1.0
C      1  0.2169461463777  0.2252331227121  0.4236658955848 1.0
C      1  0.2169449534123  0.4236658285740  0.7747671012258 1.0
C      1  0.2773579731937  0.1734524235308  0.4765694140050 1.0
C      1  0.2773575099191  0.4765698051039  0.8265471417877 1.0
C      1  0.2773567684091  0.8265480951658  0.5234303467325 1.0
C      1  0.2773564721997  0.5234300230410  0.1734534538042 1.0
C      1  0.3724244748908  0.8337121054983  0.6582543203489 1.0
C      1  0.3724214724479  0.6582549751247  0.1662863266926 1.0
C      1  0.3724257443053  0.1662880902056  0.3417457910995 1.0
C      1  0.3724228701512  0.3417451505166  0.8337133691980 1.0
C      1  0.6840745859162  0.5027796413243  0.4209269972125 1.0
C      1  0.6840740614140  0.4209278045554  0.4972208300610 1.0
C      1  0.6840734385993  0.4972204094122  0.5790730780092 1.0
C      1  0.6840737869387  0.5790728023459  0.5027792577673 1.0
C      1  0.7597356993940  0.4986087973800  0.3586284321318 1.0
C      1  0.7597344078870  0.3586287194807  0.5013896765000 1.0
C      1  0.7597342331826  0.5013918828113  0.6413719383681 1.0
C      1  0.7597342630100  0.6413722657799  0.4986104956014 1.0
C      1  0.8993718360607  0.6475585968139  0.4076613904123 1.0
C      1  0.8993762097794  0.4076599227782  0.3524425888577 1.0
C      1  0.8993716123329  0.3524420183843  0.5923391537594 1.0
C      1  0.8993718612542  0.5923454467524  0.6475625216356 1.0
C      1  0.1605737989782  0.4801940721793  0.7204287027874 1.0
C      1  0.1605737441289  0.7204285089012  0.5198057850652 1.0
C      1  0.1605726318955  0.5198056478557  0.2795716736131 1.0
C      1  0.1605750026001  0.2795714661010  0.4801946095843 1.0
C      1  0.3536580752580  0.1377567545911  0.4353295435286 1.0
C      1  0.3536561920036  0.4353293732089  0.8622448284772 1.0
C      1  0.3536561014625  0.8622444761494  0.5646707568688 1.0
C      1  0.3536546424404  0.5646709299720  0.1377553985967 1.0
C      1  0.5400959464934  0.4103075302631  0.8022449754430 1.0
C      1  0.5400963143627  0.8022413820215  0.5896934001723 1.0
C      1  0.5400954017920  0.5896906015205  0.1977541358587 1.0
C      1  0.5400959818095  0.1977581445309  0.4103045179884 1.0
C      1  0.6119605897324  0.5509351283704  0.8512771924712 1.0
C      1  0.6119582293051  0.8512803858820  0.4490628718536 1.0
C      1  0.6119630854516  0.4490654487900  0.1487235731207 1.0
C      1  0.6119538038165  0.1487173823206  0.5509375102054 1.0
C      1  0.1924657564771  0.2652071860971  0.5748372146206 1.0
C      1  0.1924658210312  0.5748366581173  0.7347916742282 1.0
C      1  0.1924649646027  0.7347929956490  0.4251630601483 1.0
C      1  0.1924652623545  0.4251632506305  0.2652089677552 1.0
C      1  0.4505928237562  0.7076222007531  0.1065659992240 1.0
C      1  0.4505954841330  0.1065631434660  0.2923774174858 1.0
C      1  0.4505933039746  0.2923767067391  0.8934338434642 1.0
C      1  0.4505948966873  0.8934337164298  0.7076218519044 1.0
C      1  0.1944244448568  0.3410199855368  0.6444406136345 1.0
C      1  0.1944244208257  0.6444407349203  0.6589797130255 1.0
C      1  0.1944236041592  0.6589807697647  0.3555586377678 1.0
C      1  0.1944244480819  0.3555591246989  0.3410208507805 1.0
END
