TITL C-6660-8037-41 -8.869 3375.00 -1595.19943895 0 0 193 (C1) n - 1
REM
REM Run started: at 2020.12.19 05:17:06 in /gpfs/home/chem/mssmkc/CARBON/AIRSS/Generating-Clusters/Str-Search/Higher-Symm
REM VASP from code version vasp.5.4.4.18Apr17-6-g9f103f2a35 (build Oct 11 2019 16:45:47) gamma-only
REM
REM
REM
REM
REM ./C.cell (533062f00bc710175b3da973d35f2034)
REM AIRSS Version 0.9.1 bugfix July 2018 build 013d7b7c2542+ Fri, 06 Jul 2018 19:26:36 +0100
REM compiler GCC version 6.3.0
REM options -cpp -iprefix /gpfs/warwick/csc/orac/software/Core/GCCcore/6.3.0/bin/../lib/gcc/x86_64-pc-linux-gnu/6.3.0/ -mtune=generic -march=x86-64 -g -O0
REM seed 1886032878 -1379317538 -355852790 -969732303 1296216275 -4792880 546938335 1293120807 1486728901 484882643 -1183608461 45187551
REM
REM C.POTCAR (d86ddea03c3ceb6dc662c8ad6801f873)
REM 
CELL 1.54180   15.00000   15.00000   15.00000   90.00000   90.00000   90.00000
LATT -1
SFAC C  
C      1  0.5767291310432  0.8872604357285  0.6690730501837 1.0
C      1  0.5651466300238  0.7474818438251  0.2241651339730 1.0
C      1  0.5948260234194  0.2949025160649  0.1504683758041 1.0
C      1  0.5782109437946  0.1437734397108  0.5748415484356 1.0
C      1  0.5887554471144  0.4503596062831  0.8978821735678 1.0
C      1  0.5934094130413  0.1458712307148  0.4804617980334 1.0
C      1  0.5680943381811  0.3672925611452  0.8513700645834 1.0
C      1  0.5795913538221  0.8172683342842  0.7376904866581 1.0
C      1  0.5479099466353  0.8043619856411  0.2997862772423 1.0
C      1  0.5999402071079  0.3889776823153  0.1479878975081 1.0
C      1  0.7046634754796  0.2354595831775  0.7115270666444 1.0
C      1  0.7042505105518  0.6271631443298  0.8315601958855 1.0
C      1  0.6914680037773  0.8446143762638  0.4890698912089 1.0
C      1  0.7000835150194  0.5922363990282  0.1620488665276 1.0
C      1  0.7188028617166  0.2196679665841  0.3065927018112 1.0
C      1  0.6175930166488  0.3378963596723  0.7798661788251 1.0
C      1  0.6666471965088  0.7734755741168  0.7363886444463 1.0
C      1  0.5964596306744  0.7828408162881  0.3805784526764 1.0
C      1  0.6876095108898  0.4208514333953  0.1556220393568 1.0
C      1  0.6831180165646  0.1668354897743  0.4645064356683 1.0
C      1  0.2964273163674  0.5437965930593  0.8445949656381 1.0
C      1  0.3288516772928  0.7690084216460  0.5255260907589 1.0
C      1  0.2595361881970  0.6319271869552  0.1812111495492 1.0
C      1  0.2934104124611  0.2267309396474  0.3136970499134 1.0
C      1  0.2789789000332  0.2029896231042  0.6725235272991 1.0
C      1  0.4535018780864  0.8174584758047  0.3140898378349 1.0
C      1  0.5152441367793  0.4261739788826  0.1942625814038 1.0
C      1  0.5050407955558  0.1655757586466  0.4330647744592 1.0
C      1  0.4744786231336  0.3466567203491  0.8134135195585 1.0
C      1  0.4846447337850  0.7933215306509  0.7663903358329 1.0
C      1  0.5150417925771  0.2077873930576  0.6143734052421 1.0
C      1  0.5682110031335  0.5285831637589  0.8413040668289 1.0
C      1  0.4996032124911  0.9061992426608  0.6145792320321 1.0
C      1  0.5033267341453  0.6642977990364  0.2258913539464 1.0
C      1  0.5719400589990  0.2714145349001  0.2409580618688 1.0
C      1  0.7176990191818  0.6917565389496  0.7664535832025 1.0
C      1  0.6933786298191  0.7865424181099  0.4134790653848 1.0
C      1  0.7275111396171  0.5047518093660  0.1791106921600 1.0
C      1  0.7328659509293  0.2173359690925  0.3972333544344 1.0
C      1  0.7094890695991  0.3233951173397  0.7458524731117 1.0
C      1  0.4239708235843  0.7302541618221  0.8143610986896 1.0
C      1  0.4067524473255  0.8502763882239  0.3907764770214 1.0
C      1  0.4081670238525  0.5100916691642  0.1126825316575 1.0
C      1  0.4371843494412  0.1168069922365  0.3660671419734 1.0
C      1  0.4007049772317  0.2719236260850  0.8005820344494 1.0
C      1  0.3691671949484  0.2106875070148  0.2548115651462 1.0
C      1  0.3695983175143  0.1687502405139  0.6724026362859 1.0
C      1  0.3747230712960  0.5857083154714  0.8742996152780 1.0
C      1  0.3791531456340  0.8441419515574  0.5448475604212 1.0
C      1  0.3492091096847  0.6649614056376  0.1478510635941 1.0
C      1  0.4363152912810  0.6583432874755  0.8743259175844 1.0
C      1  0.4377645274836  0.8761726320919  0.4742774219152 1.0
C      1  0.4082009081030  0.6087815365055  0.1029220628192 1.0
C      1  0.4415639915407  0.1466812260609  0.2773145943561 1.0
C      1  0.4252731057099  0.1976309222701  0.7444298643641 1.0
C      1  0.8489135839249  0.5050152998738  0.4194193874215 1.0
C      1  0.8567588329657  0.4343612345391  0.4828076676101 1.0
C      1  0.8654208529415  0.4708728331637  0.5731694235795 1.0
C      1  0.8707971199173  0.5639533098078  0.5658422078522 1.0
C      1  0.8594795601927  0.5880942959391  0.4687564655954 1.0
C      1  0.3685068285804  0.5897050946705  0.2760243479986 1.0
C      1  0.4299330512582  0.3058044855286  0.3334922778990 1.0
C      1  0.3683630455212  0.2932303158635  0.5757066335827 1.0
C      1  0.4345098814271  0.5938074576264  0.7155287763828 1.0
C      1  0.4589337233106  0.6857077360615  0.4521206547407 1.0
C      1  0.7520755054574  0.3690168857337  0.2136883321955 1.0
C      1  0.7430387121217  0.2038435508154  0.5365217574975 1.0
C      1  0.7628178756191  0.4887331810422  0.7666765923841 1.0
C      1  0.7324445092100  0.7806940945506  0.6615568459025 1.0
C      1  0.7442912880588  0.6608007331146  0.3074019467231 1.0
C      1  0.3292021041856  0.6040797616861  0.4833517217420 1.0
C      1  0.3400584020597  0.5095257690203  0.4600011089315 1.0
C      1  0.3645241148067  0.4537883429316  0.5344592459150 1.0
C      1  0.3812124373995  0.5097812783207  0.6029903819730 1.0
C      1  0.3695613398796  0.6058823928839  0.5768497623561 1.0
C      1  0.4059839604513  0.3639103934234  0.5339314630306 1.0
C      1  0.4401358531716  0.5080940110974  0.6747722501500 1.0
C      1  0.4561876166186  0.6414219925678  0.5425735354987 1.0
C      1  0.4159817645970  0.5578156630490  0.3436652960818 1.0
C      1  0.4311913235033  0.4027258519207  0.3508404518940 1.0
C      1  0.4112772077914  0.8166831868097  0.7081536941759 1.0
C      1  0.3847123299513  0.7594070848197  0.2890275454915 1.0
C      1  0.4271593379919  0.3691762444584  0.1792073960294 1.0
C      1  0.4224265795951  0.1614858917187  0.4949218705812 1.0
C      1  0.3957099879889  0.4074519973103  0.8291552261287 1.0
C      1  0.2159513168402  0.7043790190341  0.6261728985496 1.0
C      1  0.1802682185326  0.6980179980856  0.3361961627172 1.0
C      1  0.2360584687535  0.4024175555835  0.2839367931396 1.0
C      1  0.1766511640712  0.2490020186362  0.5278650315359 1.0
C      1  0.2060413760474  0.4472920835328  0.7464766447895 1.0
C      1  0.2297830565456  0.7663032013958  0.3816443050335 1.0
C      1  0.2870139927880  0.4463441462804  0.2116979289610 1.0
C      1  0.2109832352485  0.2121153728794  0.4437861754592 1.0
C      1  0.2439002015239  0.3605696747947  0.7638677954681 1.0
C      1  0.2732238690456  0.6862757492756  0.7073834338624 1.0
C      1  0.4181894074518  0.2036928817114  0.5839358720949 1.0
C      1  0.3722832548498  0.4902127370315  0.8615013367276 1.0
C      1  0.4152799350123  0.8681008606116  0.6311598501829 1.0
C      1  0.4009391584930  0.6782705178737  0.2365374706071 1.0
C      1  0.4110999909259  0.2974064423842  0.2377329142378 1.0
C      1  0.6190496073486  0.5901187700422  0.5902654629841 1.0
C      1  0.5515590156796  0.5378444920271  0.4355937702680 1.0
C      1  0.5783975097148  0.4763553477317  0.3604003319437 1.0
C      1  0.5810392878093  0.3703803679591  0.4892001665788 1.0
C      1  0.6024033979109  0.4470168464209  0.6383454261137 1.0
C      1  0.1719674144542  0.4232444647263  0.6588479992689 1.0
C      1  0.1676043934906  0.6225598748547  0.6371701922302 1.0
C      1  0.1487316575493  0.6624307756317  0.4254246014945 1.0
C      1  0.1854578807839  0.4775072000439  0.3353044999254 1.0
C      1  0.1514660556832  0.3308171151708  0.4783985886771 1.0
C      1  0.7781231844617  0.6957299871125  0.6900961139256 1.0
C      1  0.7529624317911  0.7128204457324  0.3910411190059 1.0
C      1  0.7790868995872  0.4552251343637  0.2503491931987 1.0
C      1  0.7745573974395  0.2675401648087  0.4688194724306 1.0
C      1  0.7661795230790  0.4006036249044  0.7275888036558 1.0
C      1  0.6585802606536  0.5123194870141  0.9030169238648 1.0
C      1  0.6466856484808  0.8998963079798  0.6079586281298 1.0
C      1  0.6396102712575  0.7164324304903  0.1780848408382 1.0
C      1  0.6647237381309  0.2401535686815  0.1815872077060 1.0
C      1  0.6454059866180  0.1362443181709  0.6394399340151 1.0
C      1  0.3643896790818  0.1335266178884  0.4262968851794 1.0
C      1  0.3310821682908  0.3395214879069  0.8012853092541 1.0
C      1  0.3568142905845  0.7378668392360  0.7365756963543 1.0
C      1  0.3300484444835  0.7749234833979  0.3719047173563 1.0
C      1  0.3600490560094  0.4305845211847  0.1519187719458 1.0
C      1  0.7373472062559  0.5361503767781  0.8429843925386 1.0
C      1  0.7181122009227  0.8410554826417  0.5897517815365 1.0
C      1  0.7201837370641  0.6732976626337  0.2182140912734 1.0
C      1  0.7417259550360  0.2779641656906  0.2307219323178 1.0
C      1  0.7283875398956  0.1866764648478  0.6258907851365 1.0
C      1  0.6253345986133  0.6131749480677  0.8872535780741 1.0
C      1  0.6148463242829  0.9033754486793  0.5151469214245 1.0
C      1  0.6181608225794  0.6337517144961  0.1307531650829 1.0
C      1  0.6378342485481  0.1818813551048  0.2602526578514 1.0
C      1  0.6227774791479  0.1776592407125  0.7217174114352 1.0
C      1  0.2366764114219  0.7484194088946  0.5482326967169 1.0
C      1  0.2005070589777  0.6464243438595  0.2592513368543 1.0
C      1  0.2340203281953  0.3104721538047  0.3188891487602 1.0
C      1  0.2009515106717  0.2405462617760  0.6222512540168 1.0
C      1  0.2268755310747  0.5360377238038  0.7798717260983 1.0
C      1  0.5373317863106  0.3118340497962  0.7220545817373 1.0
C      1  0.5181393135013  0.6156580111098  0.7551425236475 1.0
C      1  0.5462246906843  0.7422245607759  0.4500925925460 1.0
C      1  0.4923972464626  0.5106034202064  0.1483339624436 1.0
C      1  0.5109744781104  0.2483967095190  0.3628322470339 1.0
C      1  0.5184981342746  0.6071247037541  0.1412253841667 1.0
C      1  0.5346326902353  0.1915109238156  0.2799555089940 1.0
C      1  0.5239990343400  0.2098989225912  0.7166679330055 1.0
C      1  0.5301186069073  0.6239412579033  0.8545263881065 1.0
C      1  0.5197771210992  0.9101670060913  0.5187193581770 1.0
C      1  0.2112398715954  0.3319235888295  0.6712465266525 1.0
C      1  0.2089472649031  0.6090230465419  0.7254311980977 1.0
C      1  0.1896943488942  0.7421836957929  0.4669773462959 1.0
C      1  0.2076055481531  0.5549436435420  0.2883704708178 1.0
C      1  0.1828455313003  0.2914261490291  0.3957302302703 1.0
C      1  0.7591827391565  0.6607810641139  0.5463240594125 1.0
C      1  0.7154599367338  0.5681804515958  0.3292448397090 1.0
C      1  0.7185572707584  0.4227229015825  0.4133948867942 1.0
C      1  0.7268908501686  0.4055334414747  0.5582652616257 1.0
C      1  0.7533437620437  0.5297837968645  0.6729806392272 1.0
C      1  0.8020249993924  0.6145840017185  0.6262507307552 1.0
C      1  0.8031084120654  0.6664899745238  0.4614783662125 1.0
C      1  0.7731818302434  0.4865986062812  0.3485883769688 1.0
C      1  0.7802315061950  0.3668866574378  0.4766245757033 1.0
C      1  0.7872634387275  0.4397613735831  0.6326335597842 1.0
C      1  0.5896589904531  0.7068669465798  0.5249486964085 1.0
C      1  0.5481322671178  0.6214490126076  0.3077198407412 1.0
C      1  0.5714152707091  0.3303308408122  0.3265093282815 1.0
C      1  0.5473232337383  0.3098271087586  0.6153317092846 1.0
C      1  0.5776172448923  0.5383754287907  0.7405328018943 1.0
C      1  0.5377278042912  0.6476410868337  0.5798839131100 1.0
C      1  0.4908948709622  0.6064584818328  0.3891003079128 1.0
C      1  0.5178001990660  0.4189927188484  0.3016035579245 1.0
C      1  0.5020221223024  0.3521478197825  0.5313931289270 1.0
C      1  0.5269070021333  0.4734195179690  0.6851301293781 1.0
C      1  0.3645248869968  0.6497830165276  0.6773098164010 1.0
C      1  0.3587152796962  0.7071119256543  0.4483234850035 1.0
C      1  0.2852225984082  0.5447484868436  0.2306964176668 1.0
C      1  0.2812110138806  0.1729031213785  0.3962422933364 1.0
C      1  0.2924012828499  0.2915576500337  0.6317861158789 1.0
C      1  0.6509474800713  0.5310997517275  0.6655446912088 1.0
C      1  0.6695900580264  0.6690139337171  0.5547976720753 1.0
C      1  0.6236177436910  0.5573152152290  0.3212301058774 1.0
C      1  0.6235504175480  0.3908205625530  0.3965260580175 1.0
C      1  0.6299832293185  0.3724833439525  0.5781536594089 1.0
C      1  0.1389957055354  0.5782642781148  0.4678400936708 1.0
C      1  0.1469864345747  0.4882567043236  0.4243955210876 1.0
C      1  0.1417931964355  0.4227944997600  0.4942674990359 1.0
C      1  0.1441154260163  0.4671902970664  0.5812472597714 1.0
C      1  0.1416761407111  0.5626980712997  0.5666906280277 1.0
C      1  0.3856923478958  0.4753501102254  0.3815671193508 1.0
C      1  0.6178611041189  0.5340265856211  0.5041071757202 1.0
C      1  0.6936264777856  0.4787743144615  0.4943588251852 1.0
END
