TITL C-6603-1109-223 -4.248 3375.00 -739.32280703 0 0 88 (C1) n - 1
REM
REM Run started: at 2020.12.19 14:02:34 in /gpfs/home/chem/mssmkc/CARBON/AIRSS/Generating-Clusters/Str-Search/Higher-Symm/C4-100
REM VASP from code version vasp.5.4.4.18Apr17-6-g9f103f2a35 (build Oct 11 2019 16:45:47) gamma-only
REM
REM
REM
REM
REM ./C.cell (6bd13a13d554368a30d355f37ece5b26)
REM AIRSS Version 0.9.1 bugfix July 2018 build 013d7b7c2542+ Fri, 06 Jul 2018 19:26:36 +0100
REM compiler GCC version 6.3.0
REM options -cpp -iprefix /gpfs/warwick/csc/orac/software/Core/GCCcore/6.3.0/bin/../lib/gcc/x86_64-pc-linux-gnu/6.3.0/ -mtune=generic -march=x86-64 -g -O0
REM seed 2038173904 54318328 -869173374 -548777539 397659035 342135127 1950172943 -1995203651 424404000 -1313300782 -1348699059 693546396
REM
REM C.POTCAR (d86ddea03c3ceb6dc662c8ad6801f873)
REM 
CELL 1.54180   15.00000   15.00000   15.00000   90.00000   90.00000   90.00000
LATT -1
SFAC C  
C      1  0.4801749473814  0.6433127984365  0.4975470907099 1.0
C      1  0.3940317227760  0.6296097954778  0.5218698744117 1.0
C      1  0.3689488784526  0.5458140156793  0.5078185763964 1.0
C      1  0.3567796488286  0.4664815032250  0.4965633538807 1.0
C      1  0.3868423735867  0.3827176879985  0.5034743570864 1.0
C      1  0.4737573916127  0.3795881100477  0.4882771226835 1.0
C      1  0.5536436907725  0.3682067475922  0.4927685486274 1.0
C      1  0.6390739648929  0.3842740452890  0.5100492043559 1.0
C      1  0.6530973900387  0.4731416809986  0.5040925027156 1.0
C      1  0.6108263339590  0.5421640879583  0.4869776612844 1.0
C      1  0.5472633863478  0.5981518675999  0.4801228541022 1.0
C      1  0.4080219527575  0.3894042855756  0.6886783962916 1.0
C      1  0.4931915995644  0.3424413342499  0.6902246619445 1.0
C      1  0.5949161544043  0.3580199589001  0.6967797125429 1.0
C      1  0.6648861003998  0.4195288602596  0.7049337090500 1.0
C      1  0.6831834433620  0.5188467236954  0.7014005427560 1.0
C      1  0.6233993838289  0.5918352577621  0.7014327238879 1.0
C      1  0.5390417223151  0.5709092752759  0.7325901271415 1.0
C      1  0.4538824755259  0.5571831224117  0.7385999908141 1.0
C      1  0.3756724920563  0.6149556782377  0.7074111517248 1.0
C      1  0.3214127971914  0.5352040968832  0.7014512189270 1.0
C      1  0.3953557277853  0.4775725435718  0.7223767376055 1.0
C      1  0.6340384713938  0.6699503192214  0.6451131847303 1.0
C      1  0.5616765690514  0.7343677225659  0.6256583845477 1.0
C      1  0.4624715622930  0.7444425651368  0.6319538321402 1.0
C      1  0.3824840261135  0.6883457586063  0.6497275244129 1.0
C      1  0.2484173366971  0.5058684576633  0.6520153179126 1.0
C      1  0.2531822568478  0.4110531491868  0.6287222075750 1.0
C      1  0.3298904114966  0.3557291014400  0.6359796016827 1.0
C      1  0.5093214868618  0.2583645565979  0.6484012563028 1.0
C      1  0.6053123674181  0.2719969018405  0.6467245556113 1.0
C      1  0.7503417928179  0.4076858932507  0.6561677419887 1.0
C      1  0.7635833803069  0.5033427783715  0.6504756750180 1.0
C      1  0.3577082380609  0.7032898373980  0.3579927101690 1.0
C      1  0.2908985880163  0.6350233401807  0.3666450237043 1.0
C      1  0.2457238559263  0.4538779475396  0.3706885234308 1.0
C      1  0.3250868803398  0.3280617171835  0.3430172777447 1.0
C      1  0.4041003942084  0.2746868801134  0.3522868936746 1.0
C      1  0.5867539511962  0.2624790463813  0.3570324436391 1.0
C      1  0.6713940314366  0.3097323296677  0.3554129140625 1.0
C      1  0.7542970251889  0.4748895601490  0.3558703221843 1.0
C      1  0.7394836486935  0.5694934583410  0.3613373882172 1.0
C      1  0.6237710011381  0.7121607055408  0.3512242789747 1.0
C      1  0.5347663023284  0.7462741562449  0.3458013447016 1.0
C      1  0.7895660016976  0.5293022706338  0.5611703566885 1.0
C      1  0.7015709853702  0.6758860282633  0.5731915470896 1.0
C      1  0.5887410762684  0.7809686952229  0.5432068654438 1.0
C      1  0.4374772106644  0.8011079460353  0.5567982190252 1.0
C      1  0.3250193392772  0.6920299399639  0.5593495582471 1.0
C      1  0.2068187656533  0.5548082713810  0.5794850195463 1.0
C      1  0.2059037473768  0.3987937383113  0.5449771534635 1.0
C      1  0.3353570540138  0.3045554963079  0.5398695899900 1.0
C      1  0.4813018856313  0.2141191733531  0.5686722332996 1.0
C      1  0.6419886424476  0.2436939964415  0.5644510945960 1.0
C      1  0.7727293824420  0.3690391324500  0.5743379052447 1.0
C      1  0.4828351554548  0.7933801978731  0.4095203507718 1.0
C      1  0.3869773606459  0.7707770327762  0.4155630526137 1.0
C      1  0.2331196587697  0.6082644693378  0.4367914571166 1.0
C      1  0.2021215318629  0.5160171523248  0.4282479874763 1.0
C      1  0.2539409892769  0.3600919143944  0.3968971051826 1.0
C      1  0.4396456891753  0.2247133981618  0.4226788626901 1.0
C      1  0.5390058715934  0.2145763232690  0.4237644499264 1.0
C      1  0.7350225773959  0.3270536992487  0.4230934708258 1.0
C      1  0.7815302599038  0.4131653654737  0.4226122665614 1.0
C      1  0.7473523495952  0.6342331341008  0.4295995273160 1.0
C      1  0.6879093539859  0.7106197624203  0.4211526169457 1.0
C      1  0.2449706343456  0.3335700253747  0.4897442216300 1.0
C      1  0.4050169361339  0.2287236229969  0.5145308960432 1.0
C      1  0.5652433706573  0.2044930982721  0.5154913917842 1.0
C      1  0.7084479899689  0.3110222351066  0.5217036223054 1.0
C      1  0.8010589131078  0.4407586371307  0.5143859734182 1.0
C      1  0.7618171714936  0.6146612953730  0.5262765453540 1.0
C      1  0.6671172584111  0.7406234537286  0.5097335412877 1.0
C      1  0.5129315462668  0.8164820552459  0.4977953501882 1.0
C      1  0.3600015651108  0.7750964261509  0.5100460232442 1.0
C      1  0.2396064995099  0.6325546090456  0.5322814807391 1.0
C      1  0.1784407026014  0.4859836178946  0.5151893812600 1.0
C      1  0.3420908747393  0.5731239355654  0.3100646420380 1.0
C      1  0.3238252803907  0.4799558111198  0.3110114169781 1.0
C      1  0.3705594808668  0.3965926201087  0.2937537099761 1.0
C      1  0.4548273444709  0.3391073107365  0.2958328982900 1.0
C      1  0.5465716757084  0.3314181196745  0.2969515196858 1.0
C      1  0.6342001454610  0.3800409847676  0.2968420313058 1.0
C      1  0.6752747320572  0.4630432124765  0.2976563193483 1.0
C      1  0.6605517039003  0.5624161184571  0.2992690862378 1.0
C      1  0.6004737150147  0.6322638885643  0.2969784514094 1.0
C      1  0.5043663925702  0.6663842215236  0.2939650011218 1.0
C      1  0.4145644230398  0.6440079031953  0.3013772849289 1.0
END
