TITL C-6662-7152-48 -5.723 3375.00 -955.11851818 0 0 119 (C1) n - 1
REM
REM Run started: at 2020.12.19 05:21:54 in /gpfs/home/chem/mssmkc/CARBON/AIRSS/Generating-Clusters/Str-Search/Higher-Symm
REM VASP from code version vasp.5.4.4.18Apr17-6-g9f103f2a35 (build Oct 11 2019 16:45:47) gamma-only
REM
REM
REM
REM
REM ./C.cell (533062f00bc710175b3da973d35f2034)
REM AIRSS Version 0.9.1 bugfix July 2018 build 013d7b7c2542+ Fri, 06 Jul 2018 19:26:36 +0100
REM compiler GCC version 6.3.0
REM options -cpp -iprefix /gpfs/warwick/csc/orac/software/Core/GCCcore/6.3.0/bin/../lib/gcc/x86_64-pc-linux-gnu/6.3.0/ -mtune=generic -march=x86-64 -g -O0
REM seed 1914962233 -969103111 -1214008105 2108875439 1753041403 562759411 -1426332257 1193125136 695268830 1015445231 560794475 1903882396
REM
REM C.POTCAR (d86ddea03c3ceb6dc662c8ad6801f873)
REM 
CELL 1.54180   15.00000   15.00000   15.00000   90.00000   90.00000   90.00000
LATT -1
SFAC C  
C      1  0.2223865157312  0.3757129613421  0.5308710746351 1.0
C      1  0.2416673739280  0.5477653211357  0.6178543689376 1.0
C      1  0.2378611269217  0.6264844096093  0.4589973233199 1.0
C      1  0.2179398954976  0.4660164083222  0.3673922315809 1.0
C      1  0.7652893348433  0.3843209087304  0.4648016098939 1.0
C      1  0.7489366109785  0.5462598114149  0.3774304660756 1.0
C      1  0.7676107542235  0.6271015242267  0.5356735656062 1.0
C      1  0.7823643692527  0.4700435968685  0.6289613275151 1.0
C      1  0.5531380028033  0.6801461069087  0.1630683916032 1.0
C      1  0.6252274615008  0.1507735815591  0.3138107174803 1.0
C      1  0.6425715860221  0.3276688180550  0.8575626850458 1.0
C      1  0.5926075497562  0.8493232242560  0.6781595957606 1.0
C      1  0.3783954536656  0.6779789111811  0.8580511131328 1.0
C      1  0.3750787451566  0.1429019083120  0.6598229089063 1.0
C      1  0.4090315716031  0.3323840710678  0.1445929872913 1.0
C      1  0.3936637742330  0.8449339807720  0.2960922364988 1.0
C      1  0.3205820743119  0.3948078688625  0.2330368722689 1.0
C      1  0.3379443549685  0.2526815225294  0.5931239463222 1.0
C      1  0.3498351033126  0.6005654133788  0.7530526849512 1.0
C      1  0.3577873575449  0.7458986735011  0.3881876576964 1.0
C      1  0.6686202659852  0.4015309941872  0.7527541899338 1.0
C      1  0.6536141366678  0.2628637016068  0.4054934904044 1.0
C      1  0.6480125738324  0.6039265344550  0.2347795377990 1.0
C      1  0.6440615057466  0.7486281579148  0.5989311618383 1.0
C      1  0.4953829728342  0.1793970036162  0.4291107479221 1.0
C      1  0.4636841575660  0.3895274711596  0.8589796768923 1.0
C      1  0.4393395431724  0.8685818325032  0.5906588794300 1.0
C      1  0.4951853868879  0.5498622043017  0.1491792306618 1.0
C      1  0.5467357110640  0.1509657262070  0.5858030116788 1.0
C      1  0.4994369912715  0.3689986064197  0.1357159031592 1.0
C      1  0.4975701397794  0.8387261536722  0.4375976224233 1.0
C      1  0.5028022637270  0.5519553611037  0.8361670077038 1.0
C      1  0.5881986255870  0.4299539018259  0.5444312221575 1.0
C      1  0.5994309362044  0.5351799541805  0.5546212834696 1.0
C      1  0.5787523983270  0.5509488849017  0.4640880738689 1.0
C      1  0.5460355974573  0.4569958740936  0.4555786081959 1.0
C      1  0.3814654116253  0.4428703956467  0.4644113430607 1.0
C      1  0.4010754301842  0.5421590773761  0.4459006483700 1.0
C      1  0.4176351067541  0.5587874126771  0.5422210092566 1.0
C      1  0.4024081867951  0.4619441367390  0.5643328084696 1.0
C      1  0.6253240478919  0.2527355657960  0.6918362973895 1.0
C      1  0.5935397973805  0.6857753039653  0.7509014270566 1.0
C      1  0.5952668508800  0.7466338188215  0.3139669160411 1.0
C      1  0.6046211802141  0.3153313372675  0.2535249578970 1.0
C      1  0.3883400584281  0.2519525412586  0.3006707214987 1.0
C      1  0.4009975756482  0.6744460101076  0.2380829746869 1.0
C      1  0.3845952725840  0.7482024902997  0.6892853850994 1.0
C      1  0.3760274828085  0.3000505132450  0.7503060485637 1.0
C      1  0.6940433945700  0.3196654548756  0.4670128209573 1.0
C      1  0.7203571475622  0.4684236707738  0.7021851991220 1.0
C      1  0.7014668725761  0.6998369747260  0.5421621040223 1.0
C      1  0.6830910118738  0.5385486021755  0.3010122140546 1.0
C      1  0.2787505428330  0.2995283550370  0.5323620418141 1.0
C      1  0.2823216838431  0.4610822221040  0.2944142788524 1.0
C      1  0.3064773818135  0.6988126477880  0.4533541589448 1.0
C      1  0.2941960746011  0.5377173424984  0.7021947150958 1.0
C      1  0.6438518224118  0.3462232340665  0.5459986049908 1.0
C      1  0.6836360740465  0.5495366987026  0.7264813297312 1.0
C      1  0.6846586228242  0.6895519943828  0.4473614359093 1.0
C      1  0.6350339882193  0.4627892103241  0.3025409409126 1.0
C      1  0.2983323190547  0.2631253800877  0.4452304573802 1.0
C      1  0.3304049620666  0.5368393753195  0.2859378557236 1.0
C      1  0.3211549303807  0.6869399356976  0.5494356930002 1.0
C      1  0.3197006068019  0.4531609329966  0.7178907574841 1.0
C      1  0.5892990699697  0.1879110427693  0.3961931374214 1.0
C      1  0.6107249943484  0.4140494030640  0.8294602302409 1.0
C      1  0.5860684538482  0.8260503804699  0.5843116687425 1.0
C      1  0.5836963765607  0.5865885906740  0.1644819418280 1.0
C      1  0.3963799444226  0.1772068209497  0.5727437116176 1.0
C      1  0.3741424396832  0.4215002775844  0.1547635287372 1.0
C      1  0.4139795589550  0.8271523885423  0.3889441856449 1.0
C      1  0.4131822012589  0.5936019475102  0.8268432496687 1.0
C      1  0.5376781603180  0.6195839537542  0.4105353725840 1.0
C      1  0.5128701123107  0.3978299516910  0.3827234056110 1.0
C      1  0.5305788574047  0.3836567164990  0.6156632938321 1.0
C      1  0.5548215209247  0.5879979828813  0.6224609273639 1.0
C      1  0.4656988368932  0.6243767703264  0.5963068483108 1.0
C      1  0.4416067843046  0.4045497038639  0.6325511968128 1.0
C      1  0.4244209204357  0.3729429775381  0.4071356500681 1.0
C      1  0.4501725698391  0.5930301077623  0.3778591507903 1.0
C      1  0.5872268526219  0.1740062408876  0.6554241659608 1.0
C      1  0.5624319596628  0.6171693257938  0.7996525542381 1.0
C      1  0.5622245233952  0.7908280366716  0.3854307492441 1.0
C      1  0.5683399890939  0.3236837376203  0.1719777786864 1.0
C      1  0.4287686284585  0.2072305736893  0.3661132728877 1.0
C      1  0.4638167444442  0.6480382013626  0.1691935084417 1.0
C      1  0.4090827698430  0.8346754880410  0.6612093033158 1.0
C      1  0.4237033329268  0.3222022941066  0.8290620835186 1.0
C      1  0.6031359770443  0.3180866821515  0.6232212493795 1.0
C      1  0.6073536762111  0.5943811249564  0.7043896061343 1.0
C      1  0.5985102778582  0.6992549821890  0.4025919635054 1.0
C      1  0.5809719885123  0.3933480943634  0.3119684565044 1.0
C      1  0.3692265915206  0.2929063487518  0.3939636572658 1.0
C      1  0.3924148428561  0.5976317134089  0.2985546450551 1.0
C      1  0.3989792353901  0.6900708577421  0.6104982160716 1.0
C      1  0.3739324002070  0.3863999117241  0.7024026708752 1.0
C      1  0.3567214581625  0.2347482084847  0.6886597520713 1.0
C      1  0.3608891754622  0.6964403066499  0.7615194402846 1.0
C      1  0.3768213311332  0.7491214868163  0.2897874456989 1.0
C      1  0.3627236447185  0.3063549579054  0.2294538977938 1.0
C      1  0.6441828442299  0.2466730969424  0.3094740635582 1.0
C      1  0.6138006292963  0.6988339519985  0.2369457554345 1.0
C      1  0.6149449366823  0.7551327927570  0.6931899399396 1.0
C      1  0.6548806574848  0.3042062789238  0.7622389096606 1.0
C      1  0.2496305438510  0.6228427323673  0.5600562187616 1.0
C      1  0.1971256542193  0.5519306673466  0.4210249265233 1.0
C      1  0.1892633165619  0.4121252553960  0.4419196344185 1.0
C      1  0.2014636494449  0.4691065218285  0.5718440968148 1.0
C      1  0.7499440429130  0.6228817647209  0.4343299351581 1.0
C      1  0.8072812846715  0.5522030793639  0.5732580066928 1.0
C      1  0.8070343495257  0.4159875409361  0.5512227367835 1.0
C      1  0.7901623995749  0.4715825038944  0.4238419070463 1.0
C      1  0.5111249321868  0.8539730119650  0.5293425285469 1.0
C      1  0.4598070241617  0.4644195016760  0.1372386612196 1.0
C      1  0.4776492350358  0.1614833051767  0.5212578764581 1.0
C      1  0.5268458627459  0.4596701642918  0.8511471488326 1.0
C      1  0.1640787527555  0.4918346277417  0.4889813788198 1.0
C      1  0.8406187744126  0.4927134114071  0.5043043024108 1.0
C      1  0.4657766502088  0.4856003831325  0.4941723992674 1.0
END
