TITL C-66178-373-35 -3.007 3375.00 -492.62071943 0 0 60 (D2h) n - 1
REM
REM Run started: at 2020.12.15 15:28:51 in /rds/project/t2_vol4/rds-t2-cs072/BORA/CARBON/AIRSS/Generating-Clusters/Str-Search/Higher-Symm/Only-C60
REM VASP from code version vasp.5.4.4.18Apr17-6-g9f103f2a35 (build Oct 11 2019 16:45:47) gamma-only
REM
REM
REM
REM
REM ./C.cell (5f7b7a0d59291d2373303da1f58b8d66)
REM AIRSS Version 0.9.1 bugfix July 2018 build 013d7b7c2542+ Fri, 06 Jul 2018 19:26:36 +0100
REM compiler GCC version 4.8.5 20150623 (Red Hat 4.8.5-39)
REM options -cpp -mtune=generic -march=x86-64 -g -O0
REM seed 529306371 773840814 -641819461 914239177 -10781957 1343837135 1518677801 -1459097097 1964548615 -2051828712 1538010389 724745270
REM
REM C.POTCAR (d86ddea03c3ceb6dc662c8ad6801f873)
REM 
CELL 1.54180   15.00000   15.00000   15.00000   90.00000   90.00000   90.00000
LATT -1
SFAC C  
C      1  0.4508087231071  0.3356801215453  0.6971727574816 1.0
C      1  0.5491910017685  0.3356738163730  0.3028276346015 1.0
C      1  0.4508085306972  0.6643235560109  0.6971724320872 1.0
C      1  0.5491914463497  0.6643236193600  0.3028277723149 1.0
C      1  0.5491916945331  0.3356802305587  0.6971726134916 1.0
C      1  0.4508088723176  0.3356748848906  0.3028281212220 1.0
C      1  0.5491911097710  0.6643227362384  0.6971722922590 1.0
C      1  0.4508089992062  0.6643227471551  0.3028278336607 1.0
C      1  0.6982007357657  0.6290243919251  0.3104434110144 1.0
C      1  0.3017992971220  0.6290241549394  0.6895566543934 1.0
C      1  0.6981995367154  0.3709752735555  0.3104426944897 1.0
C      1  0.3018000782228  0.3709770519147  0.6895563697349 1.0
C      1  0.3017996497490  0.6290237445034  0.3104436045443 1.0
C      1  0.6982005571447  0.6290234581089  0.6895562598960 1.0
C      1  0.3017998836794  0.3709757306277  0.3104434485665 1.0
C      1  0.6982004154226  0.3709773427610  0.6895559140951 1.0
C      1  0.3730870659378  0.3476936783006  0.4506319303204 1.0
C      1  0.6269129040726  0.3476941568326  0.5493678662545 1.0
C      1  0.3730871199143  0.6523052603206  0.4506317806351 1.0
C      1  0.6269129354908  0.6523050911371  0.5493683274216 1.0
C      1  0.6269130423098  0.3476927699620  0.4506312774495 1.0
C      1  0.3730871573061  0.3476947947975  0.5493685201962 1.0
C      1  0.6269128500738  0.6523056271237  0.4506316900566 1.0
C      1  0.3730871930789  0.6523054864522  0.5493684939710 1.0
C      1  0.5510298138479  0.6690180072688  0.3994144333447 1.0
C      1  0.4489701408867  0.6690180010557  0.6005858031137 1.0
C      1  0.5510297243996  0.3309800852014  0.3994143039106 1.0
C      1  0.4489705787300  0.3309840173915  0.6005861382922 1.0
C      1  0.4489705057812  0.6690177976943  0.3994144393791 1.0
C      1  0.5510295724526  0.6690178336486  0.6005858866989 1.0
C      1  0.4489702161613  0.3309803735263  0.3994146084383 1.0
C      1  0.5510296461576  0.3309838704823  0.6005858516392 1.0
C      1  0.7810559889717  0.4138885909323  0.5487907454508 1.0
C      1  0.2189444779858  0.4138887336613  0.4512087949324 1.0
C      1  0.7810557869499  0.5861107087717  0.5487908685451 1.0
C      1  0.2189442651367  0.5861109374442  0.4512087899955 1.0
C      1  0.2189439633429  0.4138886580375  0.5487908488759 1.0
C      1  0.7810555858071  0.4138883769312  0.4512085319966 1.0
C      1  0.2189439381431  0.5861112897196  0.5487907871751 1.0
C      1  0.7810557759412  0.5861112750045  0.4512091392164 1.0
C      1  0.3705831195280  0.6439425712910  0.2641579111243 1.0
C      1  0.6294167410640  0.6439426913258  0.7358423364019 1.0
C      1  0.3705828754107  0.3560565696988  0.2641581018362 1.0
C      1  0.6294178866520  0.3560598187178  0.7358434653352 1.0
C      1  0.6294176948350  0.6439431795053  0.2641578911324 1.0
C      1  0.3705820290923  0.6439431639776  0.7358420031689 1.0
C      1  0.6294167829913  0.3560560662272  0.2641576644191 1.0
C      1  0.3705824481334  0.3560597399526  0.7358437766914 1.0
C      1  0.7091884248022  0.6252777043025  0.4017926666536 1.0
C      1  0.2908114065673  0.6252771760152  0.5982072935088 1.0
C      1  0.7091882579097  0.3747221860874  0.4017920862231 1.0
C      1  0.2908115719514  0.3747229956585  0.5982074306499 1.0
C      1  0.2908118619721  0.6252770049907  0.4017924320771 1.0
C      1  0.7091881479827  0.6252764097725  0.5982077030101 1.0
C      1  0.2908118149373  0.3747223975421  0.4017925469801 1.0
C      1  0.7091884895485  0.3747226582321  0.5982069165645 1.0
C      1  0.1786344772258  0.4999999882798  0.5516564387524 1.0
C      1  0.8213648091439  0.4999998858736  0.4483426633512 1.0
C      1  0.8213661020633  0.4999996839514  0.5516565975950 1.0
C      1  0.1786342777374  0.4999998264330  0.4483424033626 1.0
END
