TITL C-6603-1109-77 -1.128 3375.00 -179.76829889 0 0 24 (C1) n - 1
REM
REM Run started: at 2020.12.18 07:43:31 in /gpfs/home/chem/mssmkc/CARBON/AIRSS/Generating-Clusters/Str-Search/Higher-Symm/C4-100
REM VASP from code version vasp.5.4.4.18Apr17-6-g9f103f2a35 (build Oct 11 2019 16:45:47) gamma-only
REM
REM
REM
REM
REM ./C.cell (6bd13a13d554368a30d355f37ece5b26)
REM AIRSS Version 0.9.1 bugfix July 2018 build 013d7b7c2542+ Fri, 06 Jul 2018 19:26:36 +0100
REM compiler GCC version 6.3.0
REM options -cpp -iprefix /gpfs/warwick/csc/orac/software/Core/GCCcore/6.3.0/bin/../lib/gcc/x86_64-pc-linux-gnu/6.3.0/ -mtune=generic -march=x86-64 -g -O0
REM seed -974673628 634123183 1159744358 163298861 1737684147 -2068392664 1157076275 -1433738114 1290858793 1979109434 1975551427 1347270813
REM
REM C.POTCAR (d86ddea03c3ceb6dc662c8ad6801f873)
REM 
CELL 1.54180   15.00000   15.00000   15.00000   90.00000   90.00000   90.00000
LATT -1
SFAC C  
C      1  0.5823141806442  0.4805478807828  0.4196780064572 1.0
C      1  0.3878282374819  0.5078914352449  0.5995292940226 1.0
C      1  0.5825307673629  0.4753180320997  0.5796671924658 1.0
C      1  0.3857847054757  0.5070697751213  0.3971899738905 1.0
C      1  0.5443932610920  0.5671462679421  0.5528731262429 1.0
C      1  0.4383079176356  0.5782070042822  0.4455305175075 1.0
C      1  0.5409985579746  0.5682022044051  0.4499192998156 1.0
C      1  0.4412106787471  0.5762850420803  0.5506240957013 1.0
C      1  0.5325570126037  0.4546161549396  0.3382616429226 1.0
C      1  0.4409060361616  0.4657134140620  0.6662987803869 1.0
C      1  0.5326280986244  0.4512957719464  0.6611622509583 1.0
C      1  0.4404229269725  0.4650273069149  0.3321338288315 1.0
C      1  0.5462406567777  0.6696712571444  0.4633012733359 1.0
C      1  0.4650453249410  0.6764815990755  0.5447511358497 1.0
C      1  0.5625635691748  0.6719941113208  0.5620936774159 1.0
C      1  0.4508778945711  0.6864161243809  0.4479739976825 1.0
C      1  0.6782511041667  0.4800062886027  0.4558848920320 1.0
C      1  0.3227520971531  0.4768192894704  0.5417678577118 1.0
C      1  0.6787537955343  0.4758587614649  0.5402748780485 1.0
C      1  0.3219481461834  0.4770428639011  0.4564008554760 1.0
C      1  0.4886362927682  0.4308970418521  0.7421715026636 1.0
C      1  0.4905823058438  0.4293679636065  0.2577596372957 1.0
C      1  0.5449888596116  0.4204726211146  0.5011394780575 1.0
C      1  0.5060833724983  0.3418873882448  0.4912191052281 1.0
END
