TITL C-66325-4908-8 -5.254 3375.00 -878.59442815 0 0 109 (C1) n - 1
REM
REM Run started: at 2020.11.23 02:14:15 in /rds/project/t2_vol4/rds-t2-cs072/BORA/CARBON/AIRSS/Generating-Clusters/Str-Search/Higher-Symm
REM VASP from code version vasp.5.4.4.18Apr17-6-g9f103f2a35 (build Oct 11 2019 16:45:47) gamma-only
REM
REM
REM
REM
REM ./C.cell (e5ae0387ce4d49c7c0135a1433873289)
REM AIRSS Version 0.9.1 bugfix July 2018 build 013d7b7c2542+ Fri, 06 Jul 2018 19:26:36 +0100
REM compiler GCC version 4.8.5 20150623 (Red Hat 4.8.5-39)
REM options -cpp -mtune=generic -march=x86-64 -g -O0
REM seed 1619093744 -751429411 750493482 928281260 -2052816944 -525742289 -1951715563 992517653 430738853 482527094 -980888229 -345970080
REM
REM C.POTCAR (d86ddea03c3ceb6dc662c8ad6801f873)
REM 
CELL 1.54180   15.00000   15.00000   15.00000   90.00000   90.00000   90.00000
LATT -1
SFAC C  
C      1  0.4402237992441  0.5447845239220  0.8239717015618 1.0
C      1  0.5489822242684  0.8094185523067  0.4497952547030 1.0
C      1  0.8164669213159  0.4517222678433  0.5525865774196 1.0
C      1  0.5420900834608  0.4450390233429  0.8184471297935 1.0
C      1  0.4486029726470  0.4443947621608  0.1792449742166 1.0
C      1  0.5441641715379  0.5454923455939  0.1893954191646 1.0
C      1  0.4508756815816  0.1854516522243  0.4543601607280 1.0
C      1  0.5483103957490  0.1738405515038  0.5534720022851 1.0
C      1  0.4497679805395  0.8101665515788  0.5502720776195 1.0
C      1  0.1871219595600  0.5482142711348  0.5494200010749 1.0
C      1  0.8165633343969  0.5513104533195  0.4515392467818 1.0
C      1  0.1902375534684  0.4484102872880  0.4511686479876 1.0
C      1  0.4434540605215  0.5437836944478  0.1851460426283 1.0
C      1  0.5480809358402  0.8076354966227  0.5497929536909 1.0
C      1  0.8130980946335  0.4520870017610  0.4536616373262 1.0
C      1  0.5466560627779  0.4470155481900  0.1822929561780 1.0
C      1  0.4439208161848  0.4458897692024  0.8230580655491 1.0
C      1  0.5436140508767  0.5437140336296  0.8170907838114 1.0
C      1  0.4506870338466  0.1812566059798  0.5550912377253 1.0
C      1  0.5468682014242  0.1790698825993  0.4513182777678 1.0
C      1  0.4493740276273  0.8134005455576  0.4496434895524 1.0
C      1  0.1872267566529  0.5504139600110  0.4513493549546 1.0
C      1  0.8208738395289  0.5549406265541  0.5518124564915 1.0
C      1  0.1896880109525  0.4490753974105  0.5496707266160 1.0
C      1  0.6628922929281  0.7234218809180  0.6598910124726 1.0
C      1  0.7304828110078  0.6589798574020  0.6733190640461 1.0
C      1  0.6513425296086  0.6610052791613  0.7307926890247 1.0
C      1  0.3316371606974  0.2726735068417  0.6636022085777 1.0
C      1  0.6626243548422  0.2746906288642  0.3450576660755 1.0
C      1  0.3267461741869  0.7345187795683  0.3373964061946 1.0
C      1  0.2702834888655  0.3451062629915  0.6723378508048 1.0
C      1  0.7246500439744  0.3471949317148  0.3351027760898 1.0
C      1  0.2635769929023  0.6625604505861  0.3295072737726 1.0
C      1  0.3389447188154  0.3308950071117  0.7370410811810 1.0
C      1  0.6539537965378  0.3323621235947  0.2715837819042 1.0
C      1  0.3322132902489  0.6681204022146  0.2649088948636 1.0
C      1  0.6676800620240  0.7223261686504  0.3416200095538 1.0
C      1  0.7325194376497  0.6532603247377  0.3263024848725 1.0
C      1  0.6538411731318  0.6599966484197  0.2720130500064 1.0
C      1  0.3403784213659  0.2762095924426  0.3470182920883 1.0
C      1  0.6614082414148  0.2635064938653  0.6647063728279 1.0
C      1  0.3318701274993  0.7224186207965  0.6585534817498 1.0
C      1  0.2776623254028  0.3447844791634  0.3333241869337 1.0
C      1  0.7014052723018  0.3542951954200  0.6542526734248 1.0
C      1  0.2657812115113  0.6541101622676  0.6701073460750 1.0
C      1  0.3462860914568  0.3293985188148  0.2691455267584 1.0
C      1  0.6461136606293  0.3245334050552  0.7325717518474 1.0
C      1  0.3332470673012  0.6637311354809  0.7350027298145 1.0
C      1  0.2199779079513  0.4193379855768  0.6369174360150 1.0
C      1  0.4065561776908  0.6241627896911  0.2216974036324 1.0
C      1  0.6235780551268  0.2260728990255  0.4191459546077 1.0
C      1  0.7842894830701  0.5880822506226  0.6352138431130 1.0
C      1  0.2239869897448  0.5848798729112  0.3705871870907 1.0
C      1  0.7798752849494  0.4203449598369  0.3671762896877 1.0
C      1  0.5786084997723  0.3630825642259  0.2203347202637 1.0
C      1  0.4122972699572  0.3606874787251  0.7897017392178 1.0
C      1  0.5762201628012  0.6208659341045  0.7718394204812 1.0
C      1  0.3675070586725  0.7763093791260  0.4142046374576 1.0
C      1  0.6264148088520  0.7663803933790  0.5830349687429 1.0
C      1  0.3759167808452  0.2318451494252  0.5887468150697 1.0
C      1  0.2313082183985  0.4187858779544  0.3714134589646 1.0
C      1  0.4042427035761  0.6230262788700  0.7841387963688 1.0
C      1  0.6246644395795  0.2201207807404  0.5871119898839 1.0
C      1  0.7859413759178  0.5800328507564  0.3615467743675 1.0
C      1  0.2165415249368  0.5791185146798  0.6362471706737 1.0
C      1  0.7803898120818  0.4182542744090  0.6339806443646 1.0
C      1  0.5715436145178  0.3584919482227  0.7835316593326 1.0
C      1  0.4204228201080  0.3598001894810  0.2172562589668 1.0
C      1  0.5754482154007  0.6232138144637  0.2325560969379 1.0
C      1  0.3705042398560  0.7692759544021  0.5842209492664 1.0
C      1  0.6288987469231  0.7680500106481  0.4175123617513 1.0
C      1  0.3785650591050  0.2397487317131  0.4248175780105 1.0
C      1  0.3683982314857  0.5102199994911  0.3773382024927 1.0
C      1  0.4494200154999  0.4473829766516  0.3715964162641 1.0
C      1  0.3908675255528  0.4292417984777  0.4344954375076 1.0
C      1  0.6193755389959  0.5906045649876  0.4278257466595 1.0
C      1  0.4036077481145  0.5190486491817  0.6248041983771 1.0
C      1  0.6376719739498  0.4061365987374  0.5958291081189 1.0
C      1  0.5294056634077  0.6223829240155  0.4274736035887 1.0
C      1  0.4783253653596  0.5858152448952  0.6457160251652 1.0
C      1  0.5549136020868  0.3703367178351  0.5671111052983 1.0
C      1  0.6691573364371  0.6361298837744  0.4968054393677 1.0
C      1  0.4114357463395  0.5930888724618  0.5628631771250 1.0
C      1  0.6324121133436  0.3614321196821  0.5042328261808 1.0
C      1  0.4014201746194  0.4319252380781  0.6003993748389 1.0
C      1  0.4685290634792  0.3762268924899  0.5725396575290 1.0
C      1  0.3807318518859  0.3796753938573  0.5167684222634 1.0
C      1  0.6470102847424  0.5007358406595  0.6222756477368 1.0
C      1  0.3938110322453  0.6002038038137  0.4141513772197 1.0
C      1  0.6164198774013  0.5041097597595  0.3983027060369 1.0
C      1  0.5681194253525  0.5617509351780  0.6181095552954 1.0
C      1  0.4708377150914  0.6461308563449  0.3584869237584 1.0
C      1  0.5439448459130  0.4464716875170  0.3739805088666 1.0
C      1  0.6335750369572  0.5787764231307  0.5628956779763 1.0
C      1  0.3488389283606  0.6430487284279  0.4946724277595 1.0
C      1  0.6123675159285  0.4151021303469  0.4261022238798 1.0
C      1  0.6522019908383  0.2632823725629  0.5032785321921 1.0
C      1  0.2307743557562  0.4998741555241  0.6886092285863 1.0
C      1  0.4877392192713  0.6543528160976  0.2687390535646 1.0
C      1  0.3358422890446  0.7342484459200  0.4984669125268 1.0
C      1  0.3531478951030  0.2820413379406  0.5088898898905 1.0
C      1  0.2719884750764  0.5039634473638  0.3456376986745 1.0
C      1  0.4911728980057  0.3086196069371  0.7740103766109 1.0
C      1  0.6638422716933  0.7288757524878  0.5002750842532 1.0
C      1  0.7683706759754  0.4993544205506  0.3130618364627 1.0
C      1  0.7420218015064  0.5038953519804  0.6601872181088 1.0
C      1  0.5003183654425  0.3098690164944  0.2372622568097 1.0
C      1  0.4861307119722  0.6345235728019  0.7322351613347 1.0
C      1  0.4640114729908  0.5870159202862  0.4826514208236 1.0
END
