TITL C-66248-7283-23 -0.555 3375.00 -78.70822123 0 0 10 (D10) n - 1
REM
REM Run started: at 2020.12.12 14:59:33 in /rds/project/t2_vol4/rds-t2-cs072/BORA/CARBON/AIRSS/Generating-Clusters/Str-Search/Higher-Symm/C10-100
REM VASP from code version vasp.5.4.4.18Apr17-6-g9f103f2a35 (build Oct 11 2019 16:45:47) gamma-only
REM
REM
REM
REM
REM ./C.cell (f39ce9773e2efe3fa5bbdf770a4156b8)
REM AIRSS Version 0.9.1 bugfix July 2018 build 013d7b7c2542+ Fri, 06 Jul 2018 19:26:36 +0100
REM compiler GCC version 4.8.5 20150623 (Red Hat 4.8.5-39)
REM options -cpp -mtune=generic -march=x86-64 -g -O0
REM seed 269531551 -1283806478 -330621910 -520918175 1232049991 725689614 313407541 -2006705303 62805557 956250983 1857354685 524009284
REM
REM C.POTCAR (d86ddea03c3ceb6dc662c8ad6801f873)
REM 
CELL 1.54180   15.00000   15.00000   15.00000   90.00000   90.00000   90.00000
LATT -1
SFAC C  
C      1  0.5000000007497  0.3604546981666  0.5000000109236 1.0
C      1  0.4999999993865  0.4568989668721  0.6325888567398 1.0
C      1  0.5000000004882  0.6129228216259  0.5819982889521 1.0
C      1  0.4999999997810  0.6129228335258  0.4180017057183 1.0
C      1  0.5000000000571  0.4568989634044  0.3674111497597 1.0
C      1  0.4999999994134  0.6395453006314  0.4999999892722 1.0
C      1  0.4999999999843  0.5431010382506  0.6325888507144 1.0
C      1  0.5000000000336  0.3870771664762  0.5819982922074 1.0
C      1  0.4999999995906  0.3870771763465  0.4180017117960 1.0
C      1  0.5000000005156  0.5431010347006  0.3674111439166 1.0
END
