TITL C-6662-7152-11 -6.163 3375.00 -1019.36901923 0 0 126 (C1) n - 1
REM
REM Run started: at 2020.12.18 00:24:30 in /gpfs/home/chem/mssmkc/CARBON/AIRSS/Generating-Clusters/Str-Search/Higher-Symm
REM VASP from code version vasp.5.4.4.18Apr17-6-g9f103f2a35 (build Oct 11 2019 16:45:47) gamma-only
REM
REM
REM
REM
REM ./C.cell (533062f00bc710175b3da973d35f2034)
REM AIRSS Version 0.9.1 bugfix July 2018 build 013d7b7c2542+ Fri, 06 Jul 2018 19:26:36 +0100
REM compiler GCC version 6.3.0
REM options -cpp -iprefix /gpfs/warwick/csc/orac/software/Core/GCCcore/6.3.0/bin/../lib/gcc/x86_64-pc-linux-gnu/6.3.0/ -mtune=generic -march=x86-64 -g -O0
REM seed -1099694058 840295823 -1514723418 1911946298 1434050923 -1808484196 -616140643 -1002077988 1994439402 1548886606 466000759 -174506124
REM
REM C.POTCAR (d86ddea03c3ceb6dc662c8ad6801f873)
REM 
CELL 1.54180   15.00000   15.00000   15.00000   90.00000   90.00000   90.00000
LATT -1
SFAC C  
C      1  0.5735998916023  0.3196327786521  0.5672876820044 1.0
C      1  0.6307981378778  0.6190484660387  0.3025012804430 1.0
C      1  0.3124227201683  0.6342941328456  0.6470460388913 1.0
C      1  0.6017779137020  0.6743281628835  0.3831096782251 1.0
C      1  0.3782447496837  0.6991376532993  0.6631282406816 1.0
C      1  0.4351268016129  0.3201720861101  0.4119158766680 1.0
C      1  0.5786877972341  0.3941092232300  0.6451657055520 1.0
C      1  0.4234028827771  0.3931760315079  0.3335291662874 1.0
C      1  0.3665145779502  0.6277860222859  0.7226917466904 1.0
C      1  0.3572484425890  0.3915183304388  0.4081841093951 1.0
C      1  0.6525426312878  0.3877446048791  0.5772420651757 1.0
C      1  0.6887256903827  0.6278089746197  0.3699216383207 1.0
C      1  0.3959668738587  0.3564683258151  0.6046701314985 1.0
C      1  0.4349724806060  0.5536020986378  0.3414396147294 1.0
C      1  0.6501618688549  0.5526624407109  0.5464812564574 1.0
C      1  0.4443373590761  0.6318550137832  0.4078051562568 1.0
C      1  0.5668806333355  0.6020698954350  0.5269521588925 1.0
C      1  0.5948608849524  0.3429334386995  0.4011883120927 1.0
C      1  0.4289224169557  0.4408994456381  0.6212437496501 1.0
C      1  0.5880891732585  0.4266244252119  0.3401732556886 1.0
C      1  0.5655391376550  0.5566450875225  0.6154981121197 1.0
C      1  0.6634570848163  0.4157533588114  0.4188268528869 1.0
C      1  0.3432639568394  0.4328309512561  0.5631292364120 1.0
C      1  0.3660535752326  0.5597508005138  0.4253287218829 1.0
C      1  0.2843422562066  0.7728978350668  0.4658831913889 1.0
C      1  0.4462249643825  0.2541572472929  0.7977294360169 1.0
C      1  0.7907931743325  0.4593649132908  0.2561572001169 1.0
C      1  0.2507022834459  0.2241007353663  0.5598761569357 1.0
C      1  0.7521572905022  0.2104751632314  0.4455035585357 1.0
C      1  0.7195227864170  0.7836787971301  0.5508241431233 1.0
C      1  0.4581568283875  0.7284018298286  0.2044443125562 1.0
C      1  0.5344295975186  0.7397556386151  0.7860151097467 1.0
C      1  0.5504371073796  0.2619113233742  0.2071360757406 1.0
C      1  0.7606740698027  0.5516483065565  0.7280678731106 1.0
C      1  0.2307768909099  0.5454265582368  0.2620079465260 1.0
C      1  0.2191331814769  0.4559493822712  0.7548038822725 1.0
C      1  0.7357410840791  0.7988132841675  0.4538471179575 1.0
C      1  0.5444264170792  0.2438466797259  0.7837904291395 1.0
C      1  0.2197417007559  0.4466987761352  0.2544912234306 1.0
C      1  0.7429647158222  0.2038573711759  0.5444668001606 1.0
C      1  0.2612169588984  0.2107255325880  0.4614829780864 1.0
C      1  0.2563502321228  0.7887182941499  0.5591333517382 1.0
C      1  0.5531593987733  0.7557711190250  0.1971984322231 1.0
C      1  0.4414560390868  0.7555330709068  0.8155070099510 1.0
C      1  0.4532143973343  0.2386307691315  0.2106370494922 1.0
C      1  0.2070051813896  0.5532970479392  0.7672470509454 1.0
C      1  0.8024141412016  0.5571991452789  0.2420847232534 1.0
C      1  0.7665889613562  0.4535941595794  0.7422741429476 1.0
C      1  0.5900224520554  0.2257106116148  0.6141743405659 1.0
C      1  0.6499999715154  0.6252535846628  0.2066878031873 1.0
C      1  0.2168324279822  0.6400765164472  0.6310995529006 1.0
C      1  0.6056929428822  0.7773271745362  0.3596865383703 1.0
C      1  0.3759424339829  0.7976189496585  0.6733031009717 1.0
C      1  0.4097188257476  0.2237591757328  0.3782962745991 1.0
C      1  0.6113691325335  0.3839782237403  0.7445840141141 1.0
C      1  0.3763519977873  0.3780768110708  0.2376606033218 1.0
C      1  0.3501059704518  0.6208850102343  0.8185812407129 1.0
C      1  0.2584290363721  0.3622916447926  0.3914122408299 1.0
C      1  0.7501078613134  0.3596440311020  0.6066417614192 1.0
C      1  0.7830426661174  0.6528279374350  0.3731110784912 1.0
C      1  0.3858338908252  0.2681192614661  0.6379263551927 1.0
C      1  0.3970529967361  0.5775826606821  0.2475556984829 1.0
C      1  0.7352753103386  0.6109172078308  0.5739356429398 1.0
C      1  0.4158224513085  0.7271126269760  0.3731619496429 1.0
C      1  0.5943192882798  0.8331239713724  0.6608609670669 1.0
C      1  0.6157859378434  0.2486092472046  0.3612866078024 1.0
C      1  0.3472682923269  0.3886309409242  0.8443145043821 1.0
C      1  0.6259967774409  0.4120891623662  0.2406331168737 1.0
C      1  0.5937666605121  0.5946603823800  0.7083433065511 1.0
C      1  0.7621670032475  0.3783094151839  0.4003939381211 1.0
C      1  0.2440559901278  0.3975524085890  0.5940988141117 1.0
C      1  0.2683819212837  0.6096940985376  0.4148354511472 1.0
C      1  0.4447589427987  0.2297125268289  0.7039785009408 1.0
C      1  0.7042952904935  0.4647984357087  0.2087330311327 1.0
C      1  0.2366251613995  0.6862211047270  0.4686025460639 1.0
C      1  0.4551559591527  0.7698538844414  0.2935981429812 1.0
C      1  0.5331049517587  0.8202984845230  0.7261896673164 1.0
C      1  0.5568553204967  0.2157971055888  0.2934174137306 1.0
C      1  0.6654652286661  0.5456606263098  0.7550086068836 1.0
C      1  0.3171871004412  0.5332174000693  0.2160831422419 1.0
C      1  0.2882808147234  0.4558485645409  0.8281243614937 1.0
C      1  0.2129191511595  0.3169441759047  0.5446621789170 1.0
C      1  0.7917194181835  0.3008424427373  0.4549231688483 1.0
C      1  0.7608635344921  0.6963754525176  0.5332819353288 1.0
C      1  0.5340942848221  0.2045721406195  0.6924427808521 1.0
C      1  0.3076126363457  0.4411033506318  0.2100290085892 1.0
C      1  0.7923376269701  0.7172525809915  0.4469290298196 1.0
C      1  0.5439832980154  0.7985368964543  0.2872544812335 1.0
C      1  0.4372487988620  0.8260480525660  0.7460463384650 1.0
C      1  0.4654450108688  0.1966472715965  0.2999643660248 1.0
C      1  0.2791708225802  0.5522678540134  0.8335088175441 1.0
C      1  0.7176438856170  0.5562704171872  0.1892090178380 1.0
C      1  0.6721821623633  0.4545144017641  0.7713371997500 1.0
C      1  0.7859182363402  0.2925121410091  0.5481832440642 1.0
C      1  0.2222471072079  0.3002520886734  0.4538422900025 1.0
C      1  0.2050620704833  0.7025798173539  0.5556823389646 1.0
C      1  0.2182189745505  0.4169597333521  0.6760452105996 1.0
C      1  0.6847849681568  0.2029752625582  0.3897094022256 1.0
C      1  0.4260609852463  0.6470431127268  0.2029062957607 1.0
C      1  0.2297078732736  0.5892840890841  0.3386251696400 1.0
C      1  0.7724453671271  0.5914155379928  0.6508743324463 1.0
C      1  0.8010733847422  0.4103037233130  0.3285622195209 1.0
C      1  0.6582362940274  0.8132759094511  0.6098500085216 1.0
C      1  0.3600428749433  0.7751082863630  0.4217324603441 1.0
C      1  0.3179976344277  0.2138436035921  0.6142399550069 1.0
C      1  0.3957141534529  0.3214068121975  0.8318973706364 1.0
C      1  0.5925205730745  0.3400000245313  0.2011752374717 1.0
C      1  0.5635472845606  0.6638625077438  0.7524791806736 1.0
C      1  0.7861588471727  0.3958795017445  0.6780563880565 1.0
C      1  0.3343350863678  0.1923815509140  0.4133993016042 1.0
C      1  0.6165659796207  0.6994137041393  0.1699630359240 1.0
C      1  0.8276935354302  0.6167792570197  0.3039040875139 1.0
C      1  0.1737320300086  0.6110371574218  0.7048512472323 1.0
C      1  0.2119722245460  0.3944716985317  0.3246231451303 1.0
C      1  0.3067739055425  0.8250999331015  0.6233386448000 1.0
C      1  0.6738229910492  0.8220889069261  0.3941461237436 1.0
C      1  0.6678615367619  0.1907365938061  0.5898779766049 1.0
C      1  0.5989860279904  0.3128108132093  0.7958299220723 1.0
C      1  0.3939180619160  0.3021645687083  0.1975572594624 1.0
C      1  0.3831836044172  0.6974757469536  0.8541394966926 1.0
C      1  0.4889361012347  0.4662549066523  0.3486900912549 1.0
C      1  0.5165363288408  0.4700937985132  0.6280377067000 1.0
C      1  0.5253574410376  0.3362302165018  0.4704760044781 1.0
C      1  0.3634613154607  0.4682890973712  0.4692453992411 1.0
C      1  0.5346329524779  0.6365560882967  0.4495465043829 1.0
C      1  0.6508795683184  0.4577091570947  0.5084478291357 1.0
END
