TITL C-6603-1109-150 -2.696 3375.00 -442.32261614 0 0 55 (C1) n - 1
REM
REM Run started: at 2020.12.18 21:07:08 in /gpfs/home/chem/mssmkc/CARBON/AIRSS/Generating-Clusters/Str-Search/Higher-Symm/C4-100
REM VASP from code version vasp.5.4.4.18Apr17-6-g9f103f2a35 (build Oct 11 2019 16:45:47) gamma-only
REM
REM
REM
REM
REM ./C.cell (6bd13a13d554368a30d355f37ece5b26)
REM AIRSS Version 0.9.1 bugfix July 2018 build 013d7b7c2542+ Fri, 06 Jul 2018 19:26:36 +0100
REM compiler GCC version 6.3.0
REM options -cpp -iprefix /gpfs/warwick/csc/orac/software/Core/GCCcore/6.3.0/bin/../lib/gcc/x86_64-pc-linux-gnu/6.3.0/ -mtune=generic -march=x86-64 -g -O0
REM seed -272547918 -1330117106 -205722087 -1626061281 1253047284 -1358425964 -2047282260 -2108466426 -1945349705 -473057784 -1124300087 832792815
REM
REM C.POTCAR (d86ddea03c3ceb6dc662c8ad6801f873)
REM 
CELL 1.54180   15.00000   15.00000   15.00000   90.00000   90.00000   90.00000
LATT -1
SFAC C  
C      1  0.4210925659582  0.7571904985660  0.5031802469061 1.0
C      1  0.4453663095863  0.4505259799392  0.7240740158610 1.0
C      1  0.7302484289650  0.4761902642641  0.4247846568209 1.0
C      1  0.5695820283389  0.2395786566460  0.4924849447626 1.0
C      1  0.5776591584433  0.7571386843061  0.5293283730611 1.0
C      1  0.4095249785532  0.2516788653352  0.5097426163466 1.0
C      1  0.5367930113022  0.5836167631730  0.7618829758825 1.0
C      1  0.5437346974310  0.3953693061823  0.2472786584790 1.0
C      1  0.4299230860720  0.5675108775042  0.3122225909461 1.0
C      1  0.3545330574144  0.5396662899862  0.3765909929842 1.0
C      1  0.2811242657521  0.4712905549955  0.5786478853936 1.0
C      1  0.7381873307581  0.5183709291957  0.5725301040266 1.0
C      1  0.7104323276597  0.3931140820098  0.4530116285366 1.0
C      1  0.4663725058144  0.4743495651321  0.8097870596172 1.0
C      1  0.4432197315971  0.7211461636830  0.4236905213446 1.0
C      1  0.3135011240980  0.5709581079340  0.4575004899873 1.0
C      1  0.7381016673888  0.5996392736008  0.5234295740109 1.0
C      1  0.2772080263320  0.4135370716897  0.4969418018692 1.0
C      1  0.6014810954731  0.5440262958087  0.7144972655281 1.0
C      1  0.4331686331606  0.5018563961584  0.2436677405157 1.0
C      1  0.5905280502543  0.4805945864116  0.2649824983215 1.0
C      1  0.5205159813424  0.2288888937301  0.4093167659340 1.0
C      1  0.4386328783862  0.2971383119256  0.5820843828487 1.0
C      1  0.5246896029735  0.7554544141410  0.6108345433858 1.0
C      1  0.5921213861622  0.5435476749135  0.3340773767932 1.0
C      1  0.3502794545888  0.6071237452869  0.5421667603698 1.0
C      1  0.5162420179488  0.3355448961344  0.6116306895294 1.0
C      1  0.3984890661474  0.4207337434383  0.2846600610603 1.0
C      1  0.4098947690778  0.5345789867909  0.6791748721150 1.0
C      1  0.5947422318020  0.4732302120230  0.6574176335822 1.0
C      1  0.6528574293170  0.3801566975592  0.5218532271940 1.0
C      1  0.6502381759822  0.6146888266022  0.4820685103163 1.0
C      1  0.3290472943365  0.3778426750496  0.4268262278179 1.0
C      1  0.4630126727184  0.6833877265223  0.6366596781577 1.0
C      1  0.4609481216048  0.2934900296812  0.3671952482195 1.0
C      1  0.5213390637102  0.6808081254533  0.3969711307429 1.0
C      1  0.5175434619725  0.6069279304523  0.3369255472728 1.0
C      1  0.5897485361576  0.3127734622104  0.5461695543885 1.0
C      1  0.3478790783987  0.5350902569556  0.6090087382342 1.0
C      1  0.4682429293943  0.3554753439737  0.2952162708851 1.0
C      1  0.5184552736738  0.4128082596973  0.6687820629865 1.0
C      1  0.4656397662501  0.6108389732789  0.6958508347553 1.0
C      1  0.3977101672752  0.6844468831194  0.5642659494779 1.0
C      1  0.5934688727258  0.6922930701427  0.4652711434472 1.0
C      1  0.3878424265940  0.3035989424061  0.4295157326864 1.0
C      1  0.6472488636130  0.4694382101576  0.5722674125593 1.0
C      1  0.3426999124428  0.4435254078491  0.3575172755697 1.0
C      1  0.6463674416751  0.5338829576391  0.4152155814553 1.0
C      1  0.2548419304687  0.5026452207903  0.4933373280478 1.0
C      1  0.4844479791664  0.1918900270979  0.4886781181594 1.0
C      1  0.5167172646886  0.4772273430641  0.2066459182431 1.0
C      1  0.7898496542579  0.5252665472250  0.4888073887091 1.0
C      1  0.4943776317292  0.8100967126802  0.5401722352612 1.0
C      1  0.5040156599212  0.5442836907162  0.8475071205172 1.0
C      1  0.6000290231440  0.5279384887712  0.5044912380762 1.0
END
