TITL C-6603-1109-64 -1.515 3375.00 -248.05878736 0 0 32 (C1) n - 1
REM
REM Run started: at 2020.12.18 05:30:35 in /gpfs/home/chem/mssmkc/CARBON/AIRSS/Generating-Clusters/Str-Search/Higher-Symm/C4-100
REM VASP from code version vasp.5.4.4.18Apr17-6-g9f103f2a35 (build Oct 11 2019 16:45:47) gamma-only
REM
REM
REM
REM
REM ./C.cell (6bd13a13d554368a30d355f37ece5b26)
REM AIRSS Version 0.9.1 bugfix July 2018 build 013d7b7c2542+ Fri, 06 Jul 2018 19:26:36 +0100
REM compiler GCC version 6.3.0
REM options -cpp -iprefix /gpfs/warwick/csc/orac/software/Core/GCCcore/6.3.0/bin/../lib/gcc/x86_64-pc-linux-gnu/6.3.0/ -mtune=generic -march=x86-64 -g -O0
REM seed 808643915 -566528825 -819540314 1763050006 1374064828 -603154237 -87161488 -1902221143 -2010218458 -1549326808 -655813128 -809817570
REM
REM C.POTCAR (d86ddea03c3ceb6dc662c8ad6801f873)
REM 
CELL 1.54180   15.00000   15.00000   15.00000   90.00000   90.00000   90.00000
LATT -1
SFAC C  
C      1  0.5159511125913  0.5432375581544  0.3795030697116 1.0
C      1  0.3700074376257  0.5478872937889  0.5513620887473 1.0
C      1  0.6019976835789  0.5528775809591  0.5890108697192 1.0
C      1  0.5173815032056  0.5785750545118  0.6467923178409 1.0
C      1  0.6145225117754  0.5798242974235  0.4119328505373 1.0
C      1  0.3571167914489  0.5756888021704  0.4501049219613 1.0
C      1  0.3273641062911  0.4070776657680  0.4290774661319 1.0
C      1  0.5084738882733  0.4109015148958  0.6584980443552 1.0
C      1  0.6401207224217  0.4132194383970  0.4164037685492 1.0
C      1  0.6821811808182  0.4513557977070  0.4931581311379 1.0
C      1  0.3964840365259  0.4364927506652  0.3661471996598 1.0
C      1  0.4191954632055  0.4412814495029  0.6553006221139 1.0
C      1  0.4883984212341  0.4466448549908  0.3700617954826 1.0
C      1  0.3590284250722  0.4546946440503  0.5852647882920 1.0
C      1  0.6359379160555  0.4597612356852  0.5742320486842 1.0
C      1  0.6311779588607  0.6569388169351  0.5784708013659 1.0
C      1  0.4896870354662  0.6436405048353  0.3452660025785 1.0
C      1  0.3619724167658  0.6536242933366  0.5818412120439 1.0
C      1  0.5756435826299  0.6120254872659  0.3247193013169 1.0
C      1  0.2999238662326  0.6220078424811  0.5196771653739 1.0
C      1  0.6065831370939  0.6254516658861  0.6642494067075 1.0
C      1  0.4879085750344  0.4960889757596  0.6940743001154 1.0
C      1  0.6761653926833  0.5028895674792  0.4150408075070 1.0
C      1  0.3285384426771  0.4963932833687  0.3975476362858 1.0
C      1  0.4430305092811  0.6075820302389  0.4133747818643 1.0
C      1  0.4402878592637  0.6090829723412  0.5939816173270 1.0
C      1  0.6068636182972  0.6157498392204  0.5031554610076 1.0
C      1  0.3576469408422  0.3842203403320  0.5170287774369 1.0
C      1  0.5696433174369  0.3904407253523  0.5869844410309 1.0
C      1  0.5511112513674  0.3874915419579  0.4174675068915 1.0
C      1  0.5234037714888  0.3548778725232  0.5067666514468 1.0
C      1  0.4345066244553  0.3341500020164  0.5186116467757 1.0
END
