TITL C-6660-8037-48 -8.497 3375.00 -1504.23209004 0 0 183 (C1) n - 1
REM
REM Run started: at 2020.12.19 10:06:09 in /gpfs/home/chem/mssmkc/CARBON/AIRSS/Generating-Clusters/Str-Search/Higher-Symm
REM VASP from code version vasp.5.4.4.18Apr17-6-g9f103f2a35 (build Oct 11 2019 16:45:47) gamma-only
REM
REM
REM
REM
REM ./C.cell (533062f00bc710175b3da973d35f2034)
REM AIRSS Version 0.9.1 bugfix July 2018 build 013d7b7c2542+ Fri, 06 Jul 2018 19:26:36 +0100
REM compiler GCC version 6.3.0
REM options -cpp -iprefix /gpfs/warwick/csc/orac/software/Core/GCCcore/6.3.0/bin/../lib/gcc/x86_64-pc-linux-gnu/6.3.0/ -mtune=generic -march=x86-64 -g -O0
REM seed 419574376 86249755 1223383185 -1271830279 -52352371 1171501825 -1648144712 476586049 -896989449 -905474875 1221686730 947057748
REM
REM C.POTCAR (d86ddea03c3ceb6dc662c8ad6801f873)
REM 
CELL 1.54180   15.00000   15.00000   15.00000   90.00000   90.00000   90.00000
LATT -1
SFAC C  
C      1  0.5158743026341  0.4463355490580  0.6031634507810 1.0
C      1  0.6048611130007  0.4529455852654  0.4261881396544 1.0
C      1  0.3951386524681  0.4542548612050  0.4652234492777 1.0
C      1  0.5222437645517  0.5334605934818  0.6209610043303 1.0
C      1  0.6042984988443  0.5442338458860  0.4180147358352 1.0
C      1  0.3821759325550  0.5506285030108  0.4615273524815 1.0
C      1  0.4922844988424  0.4423843469138  0.8332633324107 1.0
C      1  0.7998882255652  0.4550135292467  0.3250595300490 1.0
C      1  0.2005784493078  0.4485203647839  0.3182043295722 1.0
C      1  0.4915976945346  0.5421545762226  0.8358440518891 1.0
C      1  0.7961450149882  0.5562214715286  0.3236718610625 1.0
C      1  0.1959639569242  0.5552021757163  0.3176741287831 1.0
C      1  0.7011356610741  0.6758050712120  0.3788074927974 1.0
C      1  0.2988004325265  0.6639633114636  0.3794058503804 1.0
C      1  0.5008196985597  0.6514028286634  0.7174138693424 1.0
C      1  0.7113212920691  0.3286533540519  0.3821807052930 1.0
C      1  0.3040205155999  0.3302622506322  0.3772188389498 1.0
C      1  0.5049158818533  0.3283904575093  0.7148818465607 1.0
C      1  0.5326391039206  0.1382311465358  0.3780614463217 1.0
C      1  0.3586739537554  0.1293202928721  0.5834708495959 1.0
C      1  0.5964152777218  0.1222746027347  0.6035602202062 1.0
C      1  0.5332935816910  0.8615787635358  0.3651051926963 1.0
C      1  0.3849818701552  0.8606280573826  0.5858303864585 1.0
C      1  0.6135302534232  0.8758786561226  0.5815326112698 1.0
C      1  0.6929192972855  0.1621454237987  0.6116213251571 1.0
C      1  0.5039647124202  0.1741486170878  0.2867169980762 1.0
C      1  0.2850939516951  0.1822212643255  0.6269912787321 1.0
C      1  0.7045543885899  0.8402498508964  0.6031948905648 1.0
C      1  0.4956334918738  0.8330519774517  0.2761648447273 1.0
C      1  0.3176387979244  0.8035414419313  0.6318522873625 1.0
C      1  0.3803496005973  0.3149233255624  0.2223960001985 1.0
C      1  0.2803443887543  0.2979165573366  0.7361381656289 1.0
C      1  0.8101106211562  0.3206308839766  0.5326238024917 1.0
C      1  0.3751646460917  0.6910447758693  0.2275754810856 1.0
C      1  0.2966821824811  0.6900610462897  0.7469310464595 1.0
C      1  0.7976486167276  0.6909182116018  0.5333226500780 1.0
C      1  0.6566909920434  0.2782487640214  0.7233814819201 1.0
C      1  0.6244758137029  0.2816569195573  0.2546566547532 1.0
C      1  0.2146977348648  0.2789951161698  0.5040502240589 1.0
C      1  0.6334407365494  0.7345770472387  0.7231016066739 1.0
C      1  0.6164086729005  0.7266856643603  0.2497726010786 1.0
C      1  0.2250443081368  0.7182527606143  0.5153654726152 1.0
C      1  0.6128535306645  0.1133053812004  0.4306847271814 1.0
C      1  0.3882145898665  0.1292316417032  0.4917104812650 1.0
C      1  0.5232046406855  0.1175380525538  0.6652817397621 1.0
C      1  0.6197598265579  0.8801136613329  0.4061074127775 1.0
C      1  0.3992086795592  0.8695235712898  0.4880422509537 1.0
C      1  0.5524821619211  0.8694214193274  0.6521405863157 1.0
C      1  0.4538052830402  0.8065299820746  0.7187548072708 1.0
C      1  0.7556147342463  0.8287162760948  0.4581165218864 1.0
C      1  0.3565402884964  0.8276899257269  0.3378643509170 1.0
C      1  0.4088642409033  0.1789296373535  0.7260619233970 1.0
C      1  0.7723579443213  0.1799763626488  0.4586591077807 1.0
C      1  0.3601320826252  0.1791723209405  0.3390530999335 1.0
C      1  0.1897082459815  0.4074122060531  0.6687039690796 1.0
C      1  0.8056059440329  0.4067162070052  0.6620205811051 1.0
C      1  0.4862615663976  0.4070138893272  0.1558304277670 1.0
C      1  0.1871134964982  0.5996588378230  0.6768184016634 1.0
C      1  0.8037568725726  0.6096011064687  0.6662987606576 1.0
C      1  0.4829537798093  0.6083602862125  0.1484101069577 1.0
C      1  0.3834249657688  0.6408587010895  0.5238403190713 1.0
C      1  0.5921406534158  0.6865949142824  0.5714810674357 1.0
C      1  0.5317342828110  0.6608079310487  0.3502178281649 1.0
C      1  0.3498252699668  0.3227193569494  0.5371523905648 1.0
C      1  0.6107044722391  0.3229150025988  0.5825683416961 1.0
C      1  0.5371742632001  0.3270314431254  0.3636669807889 1.0
C      1  0.7041160970858  0.1162232425686  0.4457864991083 1.0
C      1  0.3370181213614  0.1788842829993  0.4284812859972 1.0
C      1  0.4822454689520  0.1108925370023  0.7536893535323 1.0
C      1  0.7102098737310  0.8894662298438  0.4050124040383 1.0
C      1  0.3371388821157  0.8590478794482  0.4213820259057 1.0
C      1  0.5608430354970  0.8118933746071  0.7264182037605 1.0
C      1  0.4227046796072  0.6594133279549  0.6017647996022 1.0
C      1  0.6508546355456  0.6872192252784  0.5083501500448 1.0
C      1  0.4423435670884  0.6760174507769  0.3606900905002 1.0
C      1  0.4077647162672  0.3108103070477  0.6083276686560 1.0
C      1  0.6626541792837  0.3117852306759  0.5109823008258 1.0
C      1  0.4468036202578  0.3179189243829  0.3642642115803 1.0
C      1  0.2977286011984  0.5659158774889  0.5078629783802 1.0
C      1  0.6087714727459  0.5617686830017  0.6485215692368 1.0
C      1  0.5600719406589  0.5674805528821  0.3394912717953 1.0
C      1  0.3317219469123  0.4193293994648  0.5243118800370 1.0
C      1  0.6048942425373  0.4155120864910  0.6103933094885 1.0
C      1  0.5587445256298  0.4198359792207  0.3533786226490 1.0
C      1  0.7636891793052  0.5657109593071  0.7395199880428 1.0
C      1  0.5666632631279  0.5655304236556  0.1453900074533 1.0
C      1  0.1430715394399  0.5631933998244  0.6033858741736 1.0
C      1  0.7426874072359  0.4627121253766  0.7212021610256 1.0
C      1  0.5653644093763  0.4662734723806  0.1793469522538 1.0
C      1  0.1706329371378  0.4645319131259  0.5872756835334 1.0
C      1  0.2501134988758  0.5519454544308  0.2358272111032 1.0
C      1  0.3928259430115  0.5424824202087  0.8144038073324 1.0
C      1  0.8305947951532  0.5581198762009  0.4199506392152 1.0
C      1  0.2548184507562  0.4538213434885  0.2380094184039 1.0
C      1  0.3930061829556  0.4385273118975  0.8128105026525 1.0
C      1  0.8345565638923  0.4560328950915  0.4195498938742 1.0
C      1  0.7643019059008  0.8746701643367  0.5367220872949 1.0
C      1  0.4073828860366  0.8664740554931  0.2701226105014 1.0
C      1  0.3567298614154  0.7642801722726  0.7188120084037 1.0
C      1  0.7376072564557  0.1348028598488  0.5332227677909 1.0
C      1  0.4197494289777  0.1305473478275  0.2869479004725 1.0
C      1  0.3137364111339  0.2093430870689  0.7179707384752 1.0
C      1  0.3831686851507  0.5389088979064  0.7091005359905 1.0
C      1  0.7446881096653  0.5523089970704  0.4806026267942 1.0
C      1  0.3788164866937  0.5435433335835  0.2978062311183 1.0
C      1  0.3838847419812  0.4401213297666  0.7086761304120 1.0
C      1  0.7493131274786  0.4544175996019  0.4805470025108 1.0
C      1  0.3787572686398  0.4532244710296  0.3005925582221 1.0
C      1  0.6762322994404  0.3944906069604  0.4557364499860 1.0
C      1  0.3881032437993  0.3982424619578  0.3818932210736 1.0
C      1  0.4505895266140  0.3912044126256  0.6518522806361 1.0
C      1  0.6690890355872  0.6068515975895  0.4502794797494 1.0
C      1  0.3804984335568  0.5980773763914  0.3749454416363 1.0
C      1  0.4528573495156  0.5850573020523  0.6596641069861 1.0
C      1  0.1605022366400  0.6648297406937  0.4666028041824 1.0
C      1  0.6325607026961  0.6613111671074  0.8010123238491 1.0
C      1  0.6816587178726  0.6608424108647  0.2205789765507 1.0
C      1  0.1708222385430  0.3503488457490  0.4627376159414 1.0
C      1  0.6404474560825  0.3465833754913  0.7909713024440 1.0
C      1  0.6852131748942  0.3534701573199  0.2296292278592 1.0
C      1  0.3042188571080  0.2689045887016  0.4597096166987 1.0
C      1  0.5814781414888  0.2869399080361  0.6669652879669 1.0
C      1  0.6259209574263  0.2819491171557  0.3492102066934 1.0
C      1  0.3024134734184  0.6715325797754  0.4803624790716 1.0
C      1  0.5885520704026  0.6623705576039  0.6637749479945 1.0
C      1  0.6142810032984  0.7180286806606  0.3445440476514 1.0
C      1  0.3601181110668  0.7279175994802  0.3234049219039 1.0
C      1  0.4375585039085  0.7180309861130  0.6779963744955 1.0
C      1  0.7368243547989  0.7316718035660  0.4636938650343 1.0
C      1  0.3649497601684  0.2761915284192  0.3123568184354 1.0
C      1  0.4377816213038  0.2609164478848  0.6838156069103 1.0
C      1  0.7516277535788  0.2751788632014  0.4634944818234 1.0
C      1  0.0476250554569  0.4639693608624  0.4851136406290 1.0
C      1  0.7187665292352  0.4647708048713  0.8803046816977 1.0
C      1  0.7097947093753  0.4651280068726  0.1077024244557 1.0
C      1  0.0419238786328  0.5493310302897  0.4873517118514 1.0
C      1  0.7218463389701  0.5500445871576  0.8890262196520 1.0
C      1  0.7128045498349  0.5505583504403  0.0960053268998 1.0
C      1  0.7804759166307  0.6986857838104  0.6276404241042 1.0
C      1  0.4607897016750  0.6990461126373  0.1845246507162 1.0
C      1  0.2272332222243  0.6879108938233  0.6829062838166 1.0
C      1  0.7900828881879  0.3129027998150  0.6269028249413 1.0
C      1  0.4699096687644  0.3130147896966  0.1889866403533 1.0
C      1  0.2141291136221  0.3159360523713  0.6683872143990 1.0
C      1  0.5349987335907  0.2474899205143  0.2267418927294 1.0
C      1  0.2226350022896  0.2496533077331  0.5967384218010 1.0
C      1  0.7267347448043  0.2427461060075  0.6628741496976 1.0
C      1  0.5284180976830  0.7616927818606  0.2186804627711 1.0
C      1  0.2432642262233  0.7494192676997  0.6082335840046 1.0
C      1  0.7168643466095  0.7662903541747  0.6630492209127 1.0
C      1  0.7087474998113  0.4126515384380  0.8082869436368 1.0
C      1  0.6577355193937  0.4184425451358  0.1633965081273 1.0
C      1  0.1172821844787  0.4144651431456  0.5121742904119 1.0
C      1  0.7117115765203  0.6056790012033  0.8160404142385 1.0
C      1  0.6578207589587  0.6059879352007  0.1440791319383 1.0
C      1  0.1028775774765  0.6080390168324  0.5211750757231 1.0
C      1  0.8380610857122  0.4122644107576  0.5111116675486 1.0
C      1  0.3431212159557  0.4092873941631  0.2139352369988 1.0
C      1  0.3112103909240  0.3924080920929  0.7678433031334 1.0
C      1  0.8301618755215  0.6012435157464  0.5118765716478 1.0
C      1  0.3406301230115  0.5947990965356  0.2163751882365 1.0
C      1  0.3160935325192  0.5928925273502  0.7711896813600 1.0
C      1  0.4301268181929  0.1234042310605  0.6457642388028 1.0
C      1  0.5640495936922  0.1069266188016  0.5135503535074 1.0
C      1  0.4788828003102  0.1189945682404  0.4635960054235 1.0
C      1  0.4556050183442  0.8713125545759  0.6454062976274 1.0
C      1  0.5773355702043  0.8864635024232  0.4960360709792 1.0
C      1  0.4907439132762  0.8754985399088  0.4537346615112 1.0
C      1  0.2124365741679  0.3763767832376  0.3780676241509 1.0
C      1  0.5470806127575  0.3704507027616  0.7967079829665 1.0
C      1  0.7451214664472  0.3786349557535  0.3007400153173 1.0
C      1  0.2008402940435  0.6297147511973  0.3792364488447 1.0
C      1  0.5444213119518  0.6208422278985  0.8041581465024 1.0
C      1  0.7379780600235  0.6294228200162  0.2954229749422 1.0
C      1  0.8496095698354  0.4604042141370  0.5978135148149 1.0
C      1  0.4065658238012  0.4563953371827  0.1514970916667 1.0
C      1  0.2321227388879  0.4511541651451  0.7417830243750 1.0
C      1  0.8454589260426  0.5545612204037  0.5981793264693 1.0
C      1  0.4059927409750  0.5512171551161  0.1538646172418 1.0
C      1  0.2343532573354  0.5435403359049  0.7418279598493 1.0
C      1  0.5483135119467  0.4858794095366  0.2861019026333 1.0
C      1  0.2657841891162  0.4843622328913  0.5476330650475 1.0
C      1  0.6604360791314  0.4801497718829  0.6564814690775 1.0
END
