TITL C-6603-1109-46 -1.909 3375.00 -311.13435975 0 0 39 (C1) n - 1
REM
REM Run started: at 2020.12.18 02:13:56 in /gpfs/home/chem/mssmkc/CARBON/AIRSS/Generating-Clusters/Str-Search/Higher-Symm/C4-100
REM VASP from code version vasp.5.4.4.18Apr17-6-g9f103f2a35 (build Oct 11 2019 16:45:47) gamma-only
REM
REM
REM
REM
REM ./C.cell (6bd13a13d554368a30d355f37ece5b26)
REM AIRSS Version 0.9.1 bugfix July 2018 build 013d7b7c2542+ Fri, 06 Jul 2018 19:26:36 +0100
REM compiler GCC version 6.3.0
REM options -cpp -iprefix /gpfs/warwick/csc/orac/software/Core/GCCcore/6.3.0/bin/../lib/gcc/x86_64-pc-linux-gnu/6.3.0/ -mtune=generic -march=x86-64 -g -O0
REM seed 1241062382 1986252572 -1116159775 1960125794 -1464981087 -2050727989 -1224140498 718682220 75437213 -654262433 171603851 520100905
REM
REM C.POTCAR (d86ddea03c3ceb6dc662c8ad6801f873)
REM 
CELL 1.54180   15.00000   15.00000   15.00000   90.00000   90.00000   90.00000
LATT -1
SFAC C  
C      1  0.6060038723670  0.5457078796835  0.3839081659983 1.0
C      1  0.6612878813883  0.5567246261480  0.6185282767725 1.0
C      1  0.4222227452476  0.6424456284873  0.6345478608704 1.0
C      1  0.3428475481873  0.6060958760956  0.4838613005950 1.0
C      1  0.4531568314568  0.6218710589860  0.3415957579702 1.0
C      1  0.4936047263088  0.2628126815933  0.4045785878075 1.0
C      1  0.5811462852414  0.2847071920760  0.4359531631480 1.0
C      1  0.5844101173645  0.2849735453488  0.5323445409729 1.0
C      1  0.4944658271604  0.2634428017165  0.5621984075602 1.0
C      1  0.4399513627635  0.2470255601718  0.4843735529880 1.0
C      1  0.3821459666948  0.6061642091408  0.3961158482101 1.0
C      1  0.5499493286677  0.6236015949359  0.3387144883671 1.0
C      1  0.7048829187356  0.5558071155478  0.5456808612395 1.0
C      1  0.5165301356330  0.6328608693726  0.6110720448709 1.0
C      1  0.3516147751285  0.6212931187715  0.5734109815297 1.0
C      1  0.5380630072506  0.3992614478309  0.3362406545294 1.0
C      1  0.6168381885188  0.4330281185795  0.4825809578616 1.0
C      1  0.5470353203642  0.3932798805210  0.6366266472957 1.0
C      1  0.3949059565667  0.3924122764730  0.6091115764688 1.0
C      1  0.3787625297188  0.3614346557224  0.3928515681616 1.0
C      1  0.6072816583864  0.3720407336610  0.5646456927759 1.0
C      1  0.4695613174611  0.3333684646405  0.6221484764723 1.0
C      1  0.3644982696534  0.3024207504478  0.4726786835564 1.0
C      1  0.4594915738718  0.3385144304989  0.3496378608212 1.0
C      1  0.5992284955285  0.3705514788367  0.4053095320323 1.0
C      1  0.6701986213920  0.5192918142150  0.4648625084126 1.0
C      1  0.5180844658481  0.4795441347610  0.6612787870970 1.0
C      1  0.4208347230914  0.4784381878571  0.6483429224397 1.0
C      1  0.3411868085963  0.4377096980166  0.4425228752130 1.0
C      1  0.5562818820485  0.4864308848340  0.3134823295653 1.0
C      1  0.5617705251977  0.5221792810229  0.4716117386691 1.0
C      1  0.5739767529805  0.5604176544973  0.6504891793348 1.0
C      1  0.3771497241900  0.5606919034861  0.6429438670124 1.0
C      1  0.3366012728390  0.5278772182816  0.4307015645655 1.0
C      1  0.5077960674276  0.5635023276347  0.2812225450814 1.0
C      1  0.5266642004841  0.5967593381193  0.5159894479845 1.0
C      1  0.5557003659973  0.6850141859990  0.5245093869649 1.0
C      1  0.3461059890565  0.3790018915253  0.5261520898353 1.0
C      1  0.5724719611857  0.7476123844628  0.5830222689493 1.0
END
