TITL C-6603-1109-51 -2.879 3375.00 -487.07316826 0 0 59 (C1) n - 1
REM
REM Run started: at 2020.12.18 03:00:28 in /gpfs/home/chem/mssmkc/CARBON/AIRSS/Generating-Clusters/Str-Search/Higher-Symm/C4-100
REM VASP from code version vasp.5.4.4.18Apr17-6-g9f103f2a35 (build Oct 11 2019 16:45:47) gamma-only
REM
REM
REM
REM
REM ./C.cell (6bd13a13d554368a30d355f37ece5b26)
REM AIRSS Version 0.9.1 bugfix July 2018 build 013d7b7c2542+ Fri, 06 Jul 2018 19:26:36 +0100
REM compiler GCC version 6.3.0
REM options -cpp -iprefix /gpfs/warwick/csc/orac/software/Core/GCCcore/6.3.0/bin/../lib/gcc/x86_64-pc-linux-gnu/6.3.0/ -mtune=generic -march=x86-64 -g -O0
REM seed 642645663 1937130455 50699761 785690197 -1316712160 -748940506 -422513808 740511163 571685692 162651699 -883698661 1965118752
REM
REM C.POTCAR (d86ddea03c3ceb6dc662c8ad6801f873)
REM 
CELL 1.54180   15.00000   15.00000   15.00000   90.00000   90.00000   90.00000
LATT -1
SFAC C  
C      1  0.8476477804622  0.4921575036565  0.4980690571773 1.0
C      1  0.9310320784840  0.4984580016118  0.5020658741251 1.0
C      1  0.5009703598752  0.3410632013090  0.6387312249789 1.0
C      1  0.4909047306299  0.3343681943878  0.3538928721243 1.0
C      1  0.3324788287345  0.3779429737358  0.3865102531557 1.0
C      1  0.3411552691546  0.3854314575038  0.6128026951519 1.0
C      1  0.3562268796835  0.4539552902023  0.6802078186735 1.0
C      1  0.3434615495640  0.4436571612137  0.3155249692078 1.0
C      1  0.5716703139733  0.3052025337592  0.5815024310380 1.0
C      1  0.5655329734277  0.3307729515197  0.4237912241859 1.0
C      1  0.5799849285847  0.4402180416574  0.2626520353478 1.0
C      1  0.5951816671983  0.4528999538158  0.7210394703006 1.0
C      1  0.6335867008643  0.6946464676371  0.4363473231401 1.0
C      1  0.6344306340941  0.6954184453991  0.5346175603803 1.0
C      1  0.2740450450195  0.4176375782020  0.4536522136386 1.0
C      1  0.2762697051098  0.4198146092616  0.5494163688550 1.0
C      1  0.6592679015062  0.3283645904749  0.5485528462482 1.0
C      1  0.6636969029619  0.3297694362099  0.4522484392304 1.0
C      1  0.3012686265031  0.5251166189565  0.3439558439286 1.0
C      1  0.3109191639111  0.5331893827419  0.6518479876867 1.0
C      1  0.5426871609028  0.7279925611243  0.5366447077496 1.0
C      1  0.5411517176648  0.7252345331122  0.4370606880606 1.0
C      1  0.2620477895488  0.5143540687060  0.5754453846102 1.0
C      1  0.2586931849198  0.5106240845783  0.4246613716750 1.0
C      1  0.4420212640040  0.4782358096078  0.7125328376838 1.0
C      1  0.4276082758788  0.4660555894607  0.2763933936418 1.0
C      1  0.4506075043142  0.5774112353987  0.7051987467463 1.0
C      1  0.4398169186259  0.5645805979127  0.2828106177950 1.0
C      1  0.3909861959127  0.6649095112793  0.5870180656892 1.0
C      1  0.3880003173984  0.6565197179295  0.4008782015564 1.0
C      1  0.5134208210940  0.6224453114634  0.3099988462276 1.0
C      1  0.5211861966749  0.6340989261383  0.6717413649161 1.0
C      1  0.4982356852252  0.4005537475753  0.2847216696566 1.0
C      1  0.5128685311375  0.4130045767617  0.7016478353952 1.0
C      1  0.6867487149527  0.5451475943552  0.4405127829807 1.0
C      1  0.6878900829453  0.5455851479386  0.5384529263945 1.0
C      1  0.4098612843740  0.3257919288079  0.4088606040400 1.0
C      1  0.4153541328611  0.3311556180683  0.5898790081552 1.0
C      1  0.6060155380335  0.5968975282491  0.3092291373224 1.0
C      1  0.6136832372706  0.6077290846747  0.6692659792483 1.0
C      1  0.6623268207125  0.6231800298399  0.3840574865055 1.0
C      1  0.6655785097188  0.6273262344688  0.5905144490058 1.0
C      1  0.3697437104455  0.6071648119608  0.6598289854881 1.0
C      1  0.3617659696379  0.5969902964353  0.3315579731125 1.0
C      1  0.6287483141720  0.5283647106081  0.7166213827522 1.0
C      1  0.6172240509017  0.5139139355465  0.2673148240338 1.0
C      1  0.4832816057713  0.6921243118385  0.6003123715142 1.0
C      1  0.4795359224923  0.6837748524314  0.3798214046227 1.0
C      1  0.7164566544363  0.3882514888610  0.5008027781395 1.0
C      1  0.4334157499724  0.2959291870310  0.5001676037289 1.0
C      1  0.2742134781190  0.5680283928767  0.4986218919442 1.0
C      1  0.4662958009890  0.4673214994935  0.4703973435775 1.0
C      1  0.4350203776355  0.5506260852599  0.4971101700954 1.0
C      1  0.5489799396153  0.4297345025459  0.4608234729485 1.0
C      1  0.7541532320695  0.4809955400745  0.4966156209903 1.0
C      1  0.5255387741777  0.2820502022216  0.5004887693349 1.0
C      1  0.6034870367268  0.5068121671253  0.4866758260548 1.0
C      1  0.3588639115055  0.6265638076394  0.4957402486292 1.0
C      1  0.5228934474200  0.5591106773441  0.5012955194023 1.0
END
