TITL C-6603-1109-178 -4.142 3375.00 -712.45105053 0 0 86 (C1) n - 1
REM
REM Run started: at 2020.12.19 04:27:26 in /gpfs/home/chem/mssmkc/CARBON/AIRSS/Generating-Clusters/Str-Search/Higher-Symm/C4-100
REM VASP from code version vasp.5.4.4.18Apr17-6-g9f103f2a35 (build Oct 11 2019 16:45:47) gamma-only
REM
REM
REM
REM
REM ./C.cell (6bd13a13d554368a30d355f37ece5b26)
REM AIRSS Version 0.9.1 bugfix July 2018 build 013d7b7c2542+ Fri, 06 Jul 2018 19:26:36 +0100
REM compiler GCC version 6.3.0
REM options -cpp -iprefix /gpfs/warwick/csc/orac/software/Core/GCCcore/6.3.0/bin/../lib/gcc/x86_64-pc-linux-gnu/6.3.0/ -mtune=generic -march=x86-64 -g -O0
REM seed 57856852 -1764331515 561478 -223397255 768044306 965857012 -2063487205 709871661 1439612553 -1163043103 -1063133832 1915888129
REM
REM C.POTCAR (d86ddea03c3ceb6dc662c8ad6801f873)
REM 
CELL 1.54180   15.00000   15.00000   15.00000   90.00000   90.00000   90.00000
LATT -1
SFAC C  
C      1  0.7896257647903  0.5937469088194  0.4710237902966 1.0
C      1  0.6866988496872  0.2509474767939  0.4701710762525 1.0
C      1  0.3166539916798  0.2529479666306  0.4694645329346 1.0
C      1  0.2101703487181  0.5950539470632  0.4689799755648 1.0
C      1  0.4958068343148  0.8105503177923  0.4619724106142 1.0
C      1  0.4994685502289  0.6664608765524  0.4940827486277 1.0
C      1  0.6553188958199  0.5409138558398  0.5038876454506 1.0
C      1  0.5908074370344  0.3567228176173  0.5015099851071 1.0
C      1  0.3921673593071  0.3549208332488  0.4620327894426 1.0
C      1  0.3318704909892  0.5510833272562  0.4602266828743 1.0
C      1  0.2311563526979  0.5037901663809  0.5770326929220 1.0
C      1  0.4300974655737  0.7112362578691  0.5440806819435 1.0
C      1  0.6735924655445  0.6251879714099  0.5470074158041 1.0
C      1  0.6733800491274  0.3716818982398  0.5516922847047 1.0
C      1  0.4061150839738  0.2435993072741  0.5785961861043 1.0
C      1  0.4656715484499  0.4236436079022  0.2405605386522 1.0
C      1  0.4179812127066  0.5088181208721  0.2382283301668 1.0
C      1  0.4839116910331  0.5794958899660  0.2384076665593 1.0
C      1  0.5715133367795  0.5381284621644  0.2414724648934 1.0
C      1  0.5600699547137  0.4423930406531  0.2420159869465 1.0
C      1  0.3447489662604  0.5471366559139  0.6887699448889 1.0
C      1  0.4949528897443  0.6668105292989  0.6831857516262 1.0
C      1  0.6572665106487  0.5683840834950  0.6946802497006 1.0
C      1  0.5965306406868  0.3601912764827  0.6890277373728 1.0
C      1  0.4064886168833  0.3632969554412  0.6861328399378 1.0
C      1  0.6036661313826  0.2160774480711  0.6105700323065 1.0
C      1  0.2643118180832  0.3201969035807  0.6142938438413 1.0
C      1  0.2523136236760  0.6626959706102  0.6166856719451 1.0
C      1  0.5748711021409  0.7946002689197  0.6106072515400 1.0
C      1  0.7936965331551  0.5161383298052  0.6201646141944 1.0
C      1  0.6640615457733  0.2110516624437  0.5517491490389 1.0
C      1  0.3101644800485  0.2554662839614  0.5668699356429 1.0
C      1  0.2096607730332  0.5986193315324  0.5663119852739 1.0
C      1  0.5333806736804  0.8282815080337  0.5452025232873 1.0
C      1  0.8177157693404  0.5645847688046  0.5549721610292 1.0
C      1  0.5299393327556  0.4256295683030  0.5028131292214 1.0
C      1  0.4368641186623  0.4291895768476  0.4883028739337 1.0
C      1  0.4140104332968  0.5234284540406  0.4850598923524 1.0
C      1  0.4952338675959  0.5728077081007  0.4960499027673 1.0
C      1  0.5652019535538  0.5126618338661  0.5056419518162 1.0
C      1  0.6467303621770  0.6423820121619  0.6362822052738 1.0
C      1  0.6692678013304  0.4023006458351  0.6434049391263 1.0
C      1  0.4530997660392  0.2869937301083  0.6477258866258 1.0
C      1  0.2896577332351  0.4787906323548  0.6485020416248 1.0
C      1  0.4149880105344  0.6864033319720  0.6359973108961 1.0
C      1  0.6234307538649  0.3855577476922  0.2879706158685 1.0
C      1  0.4285443079052  0.3469636480988  0.2850936979437 1.0
C      1  0.3330166201243  0.5211732442312  0.2811226614533 1.0
C      1  0.4669972249064  0.6630950968271  0.2821871389737 1.0
C      1  0.6438366171810  0.5793707702954  0.2885335410486 1.0
C      1  0.3074654880496  0.3392702577125  0.4138955495848 1.0
C      1  0.2922264328206  0.6316666360455  0.4153597324674 1.0
C      1  0.5490242524686  0.7292167771119  0.4247170361246 1.0
C      1  0.7301128531600  0.5184924566435  0.4322356084496 1.0
C      1  0.5956526114895  0.2819912284564  0.4300956342119 1.0
C      1  0.3165963593688  0.3856670151284  0.6551591118727 1.0
C      1  0.3329842394288  0.6389357839277  0.6562782534414 1.0
C      1  0.5775324605668  0.7101991867694  0.6506938434894 1.0
C      1  0.7143414653296  0.4915015439949  0.6630045399077 1.0
C      1  0.5510521131637  0.2821526570033  0.6512298967555 1.0
C      1  0.2945894860287  0.4408491260440  0.3197156554651 1.0
C      1  0.3781395972125  0.6787862935327  0.3151757887260 1.0
C      1  0.6279219405905  0.6667868274364  0.3243567394837 1.0
C      1  0.6997965675555  0.4276419745764  0.3279490042484 1.0
C      1  0.4940875138122  0.2902679719762  0.3303862274209 1.0
C      1  0.3155973478842  0.6074529798840  0.3172466379094 1.0
C      1  0.5401873799354  0.7007590707989  0.3279583235577 1.0
C      1  0.7021082730629  0.5211321230106  0.3345616618059 1.0
C      1  0.5855882623295  0.3135734978984  0.3333706953969 1.0
C      1  0.3405882736504  0.3569880346608  0.3176725622617 1.0
C      1  0.4028892057865  0.7654298088387  0.4654432501541 1.0
C      1  0.7185290429628  0.6691742692149  0.4715748475956 1.0
C      1  0.7327945355035  0.3426850622456  0.4773743024220 1.0
C      1  0.4221839441058  0.2559267442550  0.4792580342881 1.0
C      1  0.2469702165630  0.4960768590002  0.4748515009341 1.0
C      1  0.2535556932694  0.4249700796325  0.4056491230706 1.0
C      1  0.3543465507765  0.7159290926168  0.4016458155548 1.0
C      1  0.6547846605077  0.6997676514755  0.4106596860843 1.0
C      1  0.7382832540101  0.4122894895183  0.4156519856584 1.0
C      1  0.4970255842227  0.2467280011383  0.4160348890187 1.0
C      1  0.4274017452432  0.5224193511978  0.7321171760976 1.0
C      1  0.4992930846127  0.5871103010210  0.7353969655206 1.0
C      1  0.5871618187683  0.5538964491886  0.7583190256815 1.0
C      1  0.5477752549035  0.4114156224042  0.7556018115828 1.0
C      1  0.4544909652065  0.4291854087143  0.7347591255770 1.0
C      1  0.5993719647808  0.4720527394511  0.8028694917655 1.0
END
