TITL C-6603-1109-14 -0.406 3375.00 -59.52316844 0 0 8 (D(inf)h) n - 1
REM
REM Run started: at 2020.12.17 19:48:17 in /gpfs/home/chem/mssmkc/CARBON/AIRSS/Generating-Clusters/Str-Search/Higher-Symm/C4-100
REM VASP from code version vasp.5.4.4.18Apr17-6-g9f103f2a35 (build Oct 11 2019 16:45:47) gamma-only
REM
REM
REM
REM
REM ./C.cell (6bd13a13d554368a30d355f37ece5b26)
REM AIRSS Version 0.9.1 bugfix July 2018 build 013d7b7c2542+ Fri, 06 Jul 2018 19:26:36 +0100
REM compiler GCC version 6.3.0
REM options -cpp -iprefix /gpfs/warwick/csc/orac/software/Core/GCCcore/6.3.0/bin/../lib/gcc/x86_64-pc-linux-gnu/6.3.0/ -mtune=generic -march=x86-64 -g -O0
REM seed -30665872 1588703740 -1212977984 544355126 1476407268 611385739 -1801656183 1388863806 1713220660 -1270513187 -1770170019 -333346422
REM
REM C.POTCAR (d86ddea03c3ceb6dc662c8ad6801f873)
REM 
CELL 1.54180   15.00000   15.00000   15.00000   90.00000   90.00000   90.00000
LATT -1
SFAC C  
C      1  0.4999475093708  0.5029478663509  0.2853621312305 1.0
C      1  0.4999578874920  0.5029203537066  0.4570862856839 1.0
C      1  0.4999501332898  0.5029387407472  0.6281195134291 1.0
C      1  0.4999504687899  0.5031134351858  0.8018343322869 1.0
C      1  0.4999578878723  0.5029203548626  0.5429137003346 1.0
C      1  0.4999475098685  0.5029478656752  0.7146378416036 1.0
C      1  0.4999504706043  0.5031134468825  0.1981656265673 1.0
C      1  0.4999501327124  0.5029387365892  0.3718804688640 1.0
END
