TITL C-6603-1109-182 -2 3375.00 -337.03466757 0 0 43 (C1) n - 1
REM
REM Run started: at 2020.12.19 05:02:13 in /gpfs/home/chem/mssmkc/CARBON/AIRSS/Generating-Clusters/Str-Search/Higher-Symm/C4-100
REM VASP from code version vasp.5.4.4.18Apr17-6-g9f103f2a35 (build Oct 11 2019 16:45:47) gamma-only
REM
REM
REM
REM
REM ./C.cell (6bd13a13d554368a30d355f37ece5b26)
REM AIRSS Version 0.9.1 bugfix July 2018 build 013d7b7c2542+ Fri, 06 Jul 2018 19:26:36 +0100
REM compiler GCC version 6.3.0
REM options -cpp -iprefix /gpfs/warwick/csc/orac/software/Core/GCCcore/6.3.0/bin/../lib/gcc/x86_64-pc-linux-gnu/6.3.0/ -mtune=generic -march=x86-64 -g -O0
REM seed -1815337642 -261770197 1247518954 1640295265 -1474389166 -1281927300 -757975925 1141265042 2133621290 -619647823 1655673032 882165783
REM
REM C.POTCAR (d86ddea03c3ceb6dc662c8ad6801f873)
REM 
CELL 1.54180   15.00000   15.00000   15.00000   90.00000   90.00000   90.00000
LATT -1
SFAC C  
C      1  0.5639970369066  0.5180094148992  0.4247425818519 1.0
C      1  0.4083137185639  0.5171462862096  0.4789361868903 1.0
C      1  0.5303257325169  0.5369776840504  0.5734189379678 1.0
C      1  0.4238274927116  0.6499396092218  0.5701824714738 1.0
C      1  0.6018288507870  0.6477712050036  0.5211768892365 1.0
C      1  0.4697936266218  0.6452307514772  0.4008231397155 1.0
C      1  0.3490981415610  0.4529183688811  0.3151776010901 1.0
C      1  0.4261148048626  0.4576214925117  0.7215211098599 1.0
C      1  0.7309608367343  0.4479858901737  0.4585406976743 1.0
C      1  0.3004774567980  0.4581415017560  0.3941999697582 1.0
C      1  0.5205555309277  0.4666659388531  0.7218988374640 1.0
C      1  0.6947586493563  0.4645278340490  0.3735497882857 1.0
C      1  0.5146843533095  0.4732176618093  0.3087293494740 1.0
C      1  0.3376885305429  0.4660699092153  0.5787197125165 1.0
C      1  0.6514805874709  0.4629360714681  0.6036569229289 1.0
C      1  0.6254645639082  0.5571541002069  0.5711242634763 1.0
C      1  0.5037370720924  0.5630289345780  0.3562040830076 1.0
C      1  0.3764601024173  0.5596035311543  0.5646791642068 1.0
C      1  0.5978661550288  0.4402506888823  0.3630029639185 1.0
C      1  0.3464137606518  0.4306336058958  0.4793551511597 1.0
C      1  0.5825218573306  0.4214901018678  0.6655245174907 1.0
C      1  0.4635588648927  0.5442844677387  0.7165700792677 1.0
C      1  0.7209109391272  0.5391907174013  0.4287512364719 1.0
C      1  0.3266391887798  0.5407294872051  0.3466383458098 1.0
C      1  0.3819628501681  0.4134825374962  0.6482733536294 1.0
C      1  0.6832283886897  0.4061655703697  0.5304267248727 1.0
C      1  0.4360999489197  0.4153905106548  0.3097910413824 1.0
C      1  0.6376657648043  0.5762505395516  0.4672352032974 1.0
C      1  0.4038892272488  0.5770894625064  0.3973317180976 1.0
C      1  0.4617964552385  0.5830001324648  0.6268620537552 1.0
C      1  0.4385949485360  0.3422673830702  0.6220596078896 1.0
C      1  0.6231582612215  0.3368338442261  0.4949453532455 1.0
C      1  0.4460110663263  0.3408674542653  0.3710087230907 1.0
C      1  0.4522775412715  0.3121965950881  0.5322082247615 1.0
C      1  0.5519078692099  0.3047581595262  0.5482322684958 1.0
C      1  0.5252574810190  0.2925874276266  0.3744503010693 1.0
C      1  0.5945251462788  0.3446439226674  0.4020147037690 1.0
C      1  0.4038892653751  0.3469617648873  0.4599864750006 1.0
C      1  0.5378744140019  0.3420427797690  0.6354255290373 1.0
C      1  0.4988529358170  0.6794935528891  0.4957443586557 1.0
C      1  0.5018210474460  0.4965870396942  0.4969581322164 1.0
C      1  0.5033575569164  0.7762224512573  0.4965682712982 1.0
C      1  0.5047091776116  0.8604565174807  0.4998876554395 1.0
END
