TITL C-6620-4778-51 -4.866 3375.00 -1643.32218428 0 0 200 (Th) n - 1
REM
REM Run started: at 2020.12.19 15:33:05 in /gpfs/home/chem/mssmkc/CARBON/AIRSS/Generating-Clusters/Str-Search/Higher-Symm
REM VASP from code version vasp.5.4.4.18Apr17-6-g9f103f2a35 (build Oct 11 2019 16:45:47) gamma-only
REM
REM
REM
REM
REM ./C.cell (533062f00bc710175b3da973d35f2034)
REM AIRSS Version 0.9.1 bugfix July 2018 build 013d7b7c2542+ Fri, 06 Jul 2018 19:26:36 +0100
REM compiler GCC version 6.3.0
REM options -cpp -iprefix /gpfs/warwick/csc/orac/software/Core/GCCcore/6.3.0/bin/../lib/gcc/x86_64-pc-linux-gnu/6.3.0/ -mtune=generic -march=x86-64 -g -O0
REM seed -864570577 -1922285102 935917966 -1994032980 1511411626 -358824348 -1509383543 1878551345 -1274251529 -298917541 -1347343168 -914683100
REM
REM C.POTCAR (d86ddea03c3ceb6dc662c8ad6801f873)
REM 
CELL 1.54180   15.00000   15.00000   15.00000   90.00000   90.00000   90.00000
LATT -1
SFAC C  
C      1  0.7511170349940  0.5428012796032  0.8653989305302 1.0
C      1  0.5417920724360  0.8664883860367  0.7511073702935 1.0
C      1  0.8657149979455  0.7519039514054  0.5418064296964 1.0
C      1  0.7510500404625  0.4571539370414  0.1324214711267 1.0
C      1  0.2473640404611  0.5427954433464  0.1317248187190 1.0
C      1  0.2473379699785  0.4571772252738  0.8660716138368 1.0
C      1  0.5417863592302  0.1327908239602  0.2473712349094 1.0
C      1  0.4561622991285  0.8670805710731  0.2473255562382 1.0
C      1  0.4561600600772  0.1335100062474  0.7510833039399 1.0
C      1  0.8657041844003  0.2480812996013  0.4561971804975 1.0
C      1  0.1320814376141  0.7518678195411  0.4561680579567 1.0
C      1  0.1319897166725  0.2481498691770  0.5418035801650 1.0
C      1  0.2473398384514  0.5427868692637  0.8660733585829 1.0
C      1  0.4561625544632  0.8664439110845  0.7510840922687 1.0
C      1  0.1320054424329  0.7518189572826  0.5418024153334 1.0
C      1  0.2473657437682  0.4571605226430  0.1317279963479 1.0
C      1  0.7510515838685  0.5427967533594  0.1324168829336 1.0
C      1  0.7511158724726  0.4571695672004  0.8653943736926 1.0
C      1  0.4561634846467  0.1328727242922  0.2473232518444 1.0
C      1  0.5417855780653  0.8671554610473  0.2473680910634 1.0
C      1  0.5417905874248  0.1334712047731  0.7511081524533 1.0
C      1  0.1320662867145  0.2480938843257  0.4561716006160 1.0
C      1  0.8656949796418  0.7518835243520  0.4561937155683 1.0
C      1  0.8657243207840  0.2480666487909  0.5418118783003 1.0
C      1  0.6636924193958  0.6527328030677  0.2321273761817 1.0
C      1  0.6515377328961  0.2331964185826  0.6636732713309 1.0
C      1  0.2319926021954  0.6646822377875  0.6515621220038 1.0
C      1  0.6638192796335  0.3473328089163  0.7657323966491 1.0
C      1  0.3340278221464  0.6525406170220  0.7659385323063 1.0
C      1  0.3340940503775  0.3473559058896  0.2319516145310 1.0
C      1  0.6514363443140  0.7669831309274  0.3342017698748 1.0
C      1  0.3462779691289  0.2330274067471  0.3340026003753 1.0
C      1  0.3461669224266  0.7667425783918  0.6638666614841 1.0
C      1  0.2320208173394  0.3350794372117  0.3462187754993 1.0
C      1  0.7657872271333  0.6649841202543  0.3462587983704 1.0
C      1  0.7658427997357  0.3352037678667  0.6514637575385 1.0
C      1  0.3341005021568  0.6525911748410  0.2319484532443 1.0
C      1  0.3461653944440  0.2332106540147  0.6638670080065 1.0
C      1  0.7658378606631  0.6647541460142  0.6514618275551 1.0
C      1  0.3340227391185  0.3474120874535  0.7659390570197 1.0
C      1  0.6638157557271  0.6526280178238  0.7657333551069 1.0
C      1  0.6636963819571  0.3472209991245  0.2321316896117 1.0
C      1  0.3462767245446  0.7669248262732  0.3339957447087 1.0
C      1  0.6514360808353  0.2329715089803  0.3342013663488 1.0
C      1  0.6515371205350  0.7667650564990  0.6636741566649 1.0
C      1  0.7657882350634  0.3349681505353  0.3462645412762 1.0
C      1  0.2320225906655  0.6648723255945  0.3462148160503 1.0
C      1  0.2319848620826  0.3352643052880  0.6515619695268 1.0
C      1  0.6884890332246  0.6054163199693  0.8485200747435 1.0
C      1  0.6043347160500  0.8495277220831  0.6884287538196 1.0
C      1  0.8487081519741  0.6892920403906  0.6043872198065 1.0
C      1  0.6884598015782  0.3945222557959  0.1493691741264 1.0
C      1  0.3097477567143  0.6055705307404  0.1489217956378 1.0
C      1  0.3097592077444  0.3944171311405  0.8489400936751 1.0
C      1  0.6044382192068  0.1499779908280  0.3098626698447 1.0
C      1  0.3933680862824  0.8499031085083  0.3097191645014 1.0
C      1  0.3934681062786  0.1504358295512  0.6885389246827 1.0
C      1  0.8486879254780  0.3105523190270  0.3934336107410 1.0
C      1  0.1491398695624  0.6893928801308  0.3934203442176 1.0
C      1  0.1490862914371  0.3106948359903  0.6044212149503 1.0
C      1  0.3097639022947  0.6055433089677  0.8489423043412 1.0
C      1  0.3934690956790  0.8495154052574  0.6885382951365 1.0
C      1  0.1490998136515  0.6892669926800  0.6044132865825 1.0
C      1  0.3097432252459  0.3943793604077  0.1489243015645 1.0
C      1  0.6884591560377  0.6054304960324  0.1493687553057 1.0
C      1  0.6884903929582  0.3945488149048  0.8485197247465 1.0
C      1  0.3933703000284  0.1500530145859  0.3097208478312 1.0
C      1  0.6044413598597  0.8499758716504  0.3098609838508 1.0
C      1  0.6043347242903  0.1504312470491  0.6884300459009 1.0
C      1  0.1491348376896  0.3105667736568  0.3934222405285 1.0
C      1  0.8486825171646  0.6894066307732  0.3934320403785 1.0
C      1  0.8487174933239  0.3106741591086  0.6043943790651 1.0
C      1  0.5493895826199  0.4454414475350  0.8004082255050 1.0
C      1  0.4441954756060  0.8014458525265  0.5493948895195 1.0
C      1  0.8004001284703  0.5503282993125  0.4441984966392 1.0
C      1  0.5493461225827  0.5545093878567  0.1973846298642 1.0
C      1  0.4486698632015  0.4454055619067  0.1972837579627 1.0
C      1  0.4487027136429  0.5545484838074  0.8004707933249 1.0
C      1  0.4441756549397  0.1984318221985  0.4487162248324 1.0
C      1  0.5533230122860  0.8015384009351  0.4487368352208 1.0
C      1  0.5532801222593  0.1985024660838  0.5493965914491 1.0
C      1  0.8004204372300  0.4496470758323  0.5532921828860 1.0
C      1  0.1973271235227  0.5503009326750  0.5533266140987 1.0
C      1  0.1973271017569  0.4496427294237  0.4442223233965 1.0
C      1  0.4487008247201  0.4454082652410  0.8004712620247 1.0
C      1  0.5532795861798  0.8014556361214  0.5493953294284 1.0
C      1  0.1973288891965  0.5503150119370  0.4442226131782 1.0
C      1  0.4486695764481  0.5545389437050  0.1972858559682 1.0
C      1  0.5493433196769  0.4454324155863  0.1973826510990 1.0
C      1  0.5493924376148  0.5545059411184  0.8004046444731 1.0
C      1  0.5533207515286  0.1984202929304  0.4487376415801 1.0
C      1  0.4441759934929  0.8015209039695  0.4487157444437 1.0
C      1  0.4441961875097  0.1985077890983  0.5493959132723 1.0
C      1  0.1973225447129  0.4496544128320  0.5533292114626 1.0
C      1  0.8004200681368  0.5503125679063  0.5532904053175 1.0
C      1  0.8003993779915  0.4496298448092  0.4441984924661 1.0
C      1  0.4451735003044  0.5973722437144  0.6382622041710 1.0
C      1  0.5962504994095  0.6392759479417  0.4452060481515 1.0
C      1  0.6382168221566  0.4463175682440  0.5962752352234 1.0
C      1  0.4451759001771  0.4025748886095  0.3595740016124 1.0
C      1  0.5524934514321  0.5973983140118  0.3596207442797 1.0
C      1  0.5525302791282  0.4025826643810  0.6382274107215 1.0
C      1  0.5962686917374  0.3607450047778  0.5525196995493 1.0
C      1  0.4014068502862  0.6392676883161  0.5525477490899 1.0
C      1  0.4014078239358  0.3606475572728  0.4451982575242 1.0
C      1  0.6382316985155  0.5536546284750  0.4014106720004 1.0
C      1  0.3595568704291  0.4463060373756  0.4014234252137 1.0
C      1  0.3595914758441  0.5536157974810  0.5962845007450 1.0
C      1  0.5525313183846  0.5973717077256  0.6382270016941 1.0
C      1  0.4014074244774  0.6393076459705  0.4451932312769 1.0
C      1  0.3595891053899  0.4463315970105  0.5962843818967 1.0
C      1  0.5524927185740  0.4025573098528  0.3596215601221 1.0
C      1  0.4451774575188  0.5973770678991  0.3595748587332 1.0
C      1  0.4451721597944  0.4025775165288  0.6382651894511 1.0
C      1  0.4014068025119  0.3606842696998  0.5525489565453 1.0
C      1  0.5962666489148  0.6392088845938  0.5525214238224 1.0
C      1  0.5962484309555  0.3606813752874  0.4452058714125 1.0
C      1  0.3595577258692  0.5536418253385  0.4014196710114 1.0
C      1  0.6382319499575  0.4463003825243  0.4014114850230 1.0
C      1  0.6382146069344  0.5536345235586  0.5962771826868 1.0
C      1  0.6143283048713  0.7331258724362  0.4124761243199 1.0
C      1  0.7320297655429  0.4134934379592  0.6143410805503 1.0
C      1  0.4123416879959  0.6154804389295  0.7320670099589 1.0
C      1  0.6143813565154  0.2669408470267  0.5853523747527 1.0
C      1  0.3831580267238  0.7330158163464  0.5854315003001 1.0
C      1  0.3832318125181  0.2668483951966  0.4123941596778 1.0
C      1  0.7319919299475  0.5865683424689  0.3832256308290 1.0
C      1  0.2657560424574  0.4135165758452  0.3831821136994 1.0
C      1  0.2657573857095  0.5863679611503  0.6144294563759 1.0
C      1  0.4124424327549  0.3843965228569  0.2657416266581 1.0
C      1  0.5853023204400  0.6156361843683  0.2658212643307 1.0
C      1  0.5854337500072  0.3844097435381  0.7319859249169 1.0
C      1  0.3832320961931  0.7331065885927  0.4123905680157 1.0
C      1  0.2657531749305  0.4135767168401  0.6144260333774 1.0
C      1  0.5854341598514  0.6155461226044  0.7319855955514 1.0
C      1  0.3831559955791  0.2669357128568  0.5854346566958 1.0
C      1  0.6143815819580  0.7330183374892  0.5853524020287 1.0
C      1  0.6143251163422  0.2668317070356  0.4124735251455 1.0
C      1  0.2657573834092  0.5864342491205  0.3831765543565 1.0
C      1  0.7319929559095  0.4133853616648  0.3832298669114 1.0
C      1  0.7320271910499  0.5864609445717  0.6143394798825 1.0
C      1  0.5853040408852  0.3843144905200  0.2658235741337 1.0
C      1  0.4124410804574  0.6155404719228  0.2657412366094 1.0
C      1  0.4123376159756  0.3844743855251  0.7320682833842 1.0
C      1  0.4113744281679  0.8822251596207  0.3999681399375 1.0
C      1  0.8810856621780  0.4007726514222  0.4114356188304 1.0
C      1  0.4000080217216  0.4125249609157  0.8811795596008 1.0
C      1  0.4114910593945  0.1178631428828  0.5983776327008 1.0
C      1  0.5860906463742  0.8821028646351  0.5983350152883 1.0
C      1  0.5862304180481  0.1176917173483  0.4000688112406 1.0
C      1  0.8811172660186  0.5991201023650  0.5861527694998 1.0
C      1  0.1166475702321  0.4008478629929  0.5862028326585 1.0
C      1  0.1166733904782  0.5992062557495  0.4114700256622 1.0
C      1  0.3999757339410  0.5874635415950  0.1166056645348 1.0
C      1  0.5983466995761  0.4126855101390  0.1167640585720 1.0
C      1  0.5983506519639  0.5872842818804  0.8810649766144 1.0
C      1  0.5862335504663  0.8822640424367  0.4000684234880 1.0
C      1  0.1166703571825  0.4007540479750  0.4114688351507 1.0
C      1  0.5983484015309  0.4126668378707  0.8810641327552 1.0
C      1  0.5860913271922  0.1178544790132  0.5983381286767 1.0
C      1  0.4114889613157  0.8820909320961  0.5983752536585 1.0
C      1  0.4113765382565  0.1177271255425  0.3999682791097 1.0
C      1  0.1166530050071  0.5991145594653  0.5861958196999 1.0
C      1  0.8811204930346  0.4008502207685  0.5861586415520 1.0
C      1  0.8810839141985  0.5991866718999  0.4114378093722 1.0
C      1  0.5983477774545  0.5872621155741  0.1167663525421 1.0
C      1  0.3999709301567  0.4124883617878  0.1166076089978 1.0
C      1  0.4000124058280  0.5874329583400  0.8811815329625 1.0
C      1  0.0465679073051  0.5491210958526  0.6079091625174 1.0
C      1  0.5484194197793  0.6088240073749  0.0465788259101 1.0
C      1  0.6077698864690  0.0476504592596  0.5484472041160 1.0
C      1  0.0465443907993  0.4508369186332  0.3900980061896 1.0
C      1  0.9512383241281  0.5491289046189  0.3900661574164 1.0
C      1  0.9512238197349  0.4508457000793  0.6078096031114 1.0
C      1  0.5484130338310  0.3911607955553  0.9512532546311 1.0
C      1  0.4501299499457  0.6088948770039  0.9512605536084 1.0
C      1  0.4501191294226  0.3910304772717  0.0465722129635 1.0
C      1  0.6078595621395  0.9523172030505  0.4501778700695 1.0
C      1  0.3900410580961  0.0476325795335  0.4501135182976 1.0
C      1  0.3901054695025  0.9523142969937  0.5484221112100 1.0
C      1  0.9512255070447  0.5491281811181  0.6078083332566 1.0
C      1  0.4501247525218  0.6089279769273  0.0465756401751 1.0
C      1  0.3901061058358  0.0476408174488  0.5484230619342 1.0
C      1  0.9512385789893  0.4508324584426  0.3900630499855 1.0
C      1  0.0465448145205  0.5491272779013  0.3900989283016 1.0
C      1  0.0465653278144  0.4508529332772  0.6079113050428 1.0
C      1  0.4501246393646  0.3910630634645  0.9512578198872 1.0
C      1  0.5484165321865  0.6087981154383  0.9512540897145 1.0
C      1  0.5484137133229  0.3911326971897  0.0465771406053 1.0
C      1  0.3900429872025  0.9523177583957  0.4501151790034 1.0
C      1  0.6078606046859  0.0476414499026  0.4501788235663 1.0
C      1  0.6077681630781  0.9523069419812  0.5484459389866 1.0
C      1  0.2847261262073  0.7141769403851  0.2846248596738 1.0
C      1  0.7130088671622  0.2856008528249  0.2847550236926 1.0
C      1  0.7131345246447  0.2858297430324  0.7129881073217 1.0
C      1  0.2845964278572  0.7140509542223  0.7131834140661 1.0
C      1  0.2845919652007  0.2858944468137  0.7131846975045 1.0
C      1  0.7131325029036  0.7141262625236  0.7129857519143 1.0
C      1  0.7130051238904  0.7143506220734  0.2847519301681 1.0
C      1  0.2847193543018  0.2857676632311  0.2846291040634 1.0
END
