TITL C-6603-1109-34 -3.416 3375.00 -603.84532860 0 0 74 (C2) n - 1
REM
REM Run started: at 2020.12.17 23:08:10 in /gpfs/home/chem/mssmkc/CARBON/AIRSS/Generating-Clusters/Str-Search/Higher-Symm/C4-100
REM VASP from code version vasp.5.4.4.18Apr17-6-g9f103f2a35 (build Oct 11 2019 16:45:47) gamma-only
REM
REM
REM
REM
REM ./C.cell (6bd13a13d554368a30d355f37ece5b26)
REM AIRSS Version 0.9.1 bugfix July 2018 build 013d7b7c2542+ Fri, 06 Jul 2018 19:26:36 +0100
REM compiler GCC version 6.3.0
REM options -cpp -iprefix /gpfs/warwick/csc/orac/software/Core/GCCcore/6.3.0/bin/../lib/gcc/x86_64-pc-linux-gnu/6.3.0/ -mtune=generic -march=x86-64 -g -O0
REM seed -740132522 1408598044 -1313834078 -479246547 550745613 927450260 1383721347 -588973207 1645347228 264154373 1452212589 -567970292
REM
REM C.POTCAR (d86ddea03c3ceb6dc662c8ad6801f873)
REM 
CELL 1.54180   15.00000   15.00000   15.00000   90.00000   90.00000   90.00000
LATT -1
SFAC C  
C      1  0.5978651312258  0.6031734505677  0.4148218614084 1.0
C      1  0.4021348720920  0.6031734505478  0.5851781316159 1.0
C      1  0.4584917035209  0.7616316573362  0.5920351545725 1.0
C      1  0.5415082582596  0.7616316413730  0.4079648146332 1.0
C      1  0.6719842710204  0.4265930567809  0.3492811636024 1.0
C      1  0.3280157337017  0.4265930499093  0.6507188342442 1.0
C      1  0.6169812023252  0.2629112568372  0.3808643200624 1.0
C      1  0.3830188119664  0.2629112343363  0.6191357085783 1.0
C      1  0.2833982389260  0.5754995141840  0.6763251615225 1.0
C      1  0.7166017537050  0.5754995217366  0.3236748192871 1.0
C      1  0.6214484500463  0.6552863398035  0.4887661265819 1.0
C      1  0.3785515551386  0.6552863280455  0.5112338458583 1.0
C      1  0.4102669398146  0.7439478826644  0.5082969958881 1.0
C      1  0.5897330307039  0.7439478826785  0.4917029853008 1.0
C      1  0.4642821497867  0.2643470280168  0.6640581493834 1.0
C      1  0.5357178674541  0.2643470235388  0.3359418708773 1.0
C      1  0.6897161025462  0.4411942982481  0.5934554635223 1.0
C      1  0.3102839120350  0.4411942867096  0.4065445592678 1.0
C      1  0.6840794500414  0.3323900650588  0.3813018463071 1.0
C      1  0.3159205615466  0.3323900528258  0.6186981588044 1.0
C      1  0.6208933459570  0.4254833331702  0.6658111460400 1.0
C      1  0.3791066673534  0.4254833276738  0.3341888890364 1.0
C      1  0.3752608750729  0.2916878702332  0.5269181989961 1.0
C      1  0.6247391370458  0.2916878674703  0.4730818413453 1.0
C      1  0.5249542309367  0.4340866236446  0.2832342967707 1.0
C      1  0.4750457724645  0.4340866282265  0.7167656990565 1.0
C      1  0.7441886757662  0.3995567595826  0.5192565257789 1.0
C      1  0.2558113508228  0.3995567583604  0.4807434988483 1.0
C      1  0.3499404364025  0.5588269737002  0.7407755552596 1.0
C      1  0.6500595606840  0.5588269717232  0.2592244295432 1.0
C      1  0.4497595817253  0.3373695322705  0.4713587847503 1.0
C      1  0.5502404458545  0.3373695330431  0.5286412632102 1.0
C      1  0.6230893959931  0.6294774022253  0.6512163876528 1.0
C      1  0.3769105948711  0.6294773808510  0.3487835779619 1.0
C      1  0.5460409902636  0.5245020971776  0.4364080604285 1.0
C      1  0.4539590200781  0.5245021005424  0.5635919601664 1.0
C      1  0.5901891661016  0.4284640193604  0.5674063420909 1.0
C      1  0.4098108582731  0.4284640147729  0.4325936850047 1.0
C      1  0.6370986714275  0.5907101615332  0.5616765105097 1.0
C      1  0.3629013378790  0.5907101481228  0.4383234694333 1.0
C      1  0.4126140199520  0.7149403521752  0.3434268547565 1.0
C      1  0.5873859444040  0.7149403640899  0.6565731106905 1.0
C      1  0.4409258260992  0.5172779890418  0.4608517618202 1.0
C      1  0.5590741855986  0.5172779911672  0.5391482640874 1.0
C      1  0.2849043597078  0.5297199430967  0.4466432639175 1.0
C      1  0.7150956409946  0.5297199487027  0.5533567178591 1.0
C      1  0.5161400100755  0.6773137769283  0.7131851469818 1.0
C      1  0.4838599552100  0.6773137802629  0.2868147948080 1.0
C      1  0.4556612092367  0.2896857456703  0.3804185450437 1.0
C      1  0.5443388186403  0.2896857478950  0.6195815036550 1.0
C      1  0.3677824634493  0.6314133354779  0.6717564516387 1.0
C      1  0.6322175140564  0.6314133359691  0.3282435185652 1.0
C      1  0.5965688815679  0.3314080617387  0.6930848686844 1.0
C      1  0.4034311484990  0.3314080564546  0.3069151852118 1.0
C      1  0.4351482099561  0.7069225294797  0.6745737401786 1.0
C      1  0.5648517508932  0.7069225219011  0.3254262284543 1.0
C      1  0.5034708822662  0.3373164385828  0.7161064937291 1.0
C      1  0.4965291300880  0.3373164358812  0.2838935390799 1.0
C      1  0.2652090936909  0.5003559134680  0.6182695515854 1.0
C      1  0.7347909024313  0.5003559247209  0.3817304479608 1.0
C      1  0.6165569928104  0.4697164770627  0.2761194888207 1.0
C      1  0.3834430040220  0.4697164705333  0.7238805265201 1.0
C      1  0.4344183752907  0.5844389792078  0.2838231644914 1.0
C      1  0.5655815976284  0.5844389898893  0.7161767708800 1.0
C      1  0.2474524866011  0.4882170599857  0.5234054610058 1.0
C      1  0.7525475159286  0.4882170636561  0.4765945392867 1.0
C      1  0.5745086128244  0.4528715017386  0.3723333060160 1.0
C      1  0.4254913873738  0.4528714999907  0.6276667004365 1.0
C      1  0.4413948529572  0.4919265393250  0.2835240461857 1.0
C      1  0.5586051430204  0.4919265469954  0.7164759434431 1.0
C      1  0.7164227735672  0.3253758169195  0.4732689630205 1.0
C      1  0.2835772344297  0.3253757946715  0.5267310443948 1.0
C      1  0.5532894464638  0.7639601786434  0.5803530027038 1.0
C      1  0.4467105194358  0.7639601637942  0.4196469608852 1.0
END
