TITL C-6662-7152-45 -7.201 3375.00 -1238.93333690 0 0 150 (C5) n - 1
REM
REM Run started: at 2020.12.19 03:51:46 in /gpfs/home/chem/mssmkc/CARBON/AIRSS/Generating-Clusters/Str-Search/Higher-Symm
REM VASP from code version vasp.5.4.4.18Apr17-6-g9f103f2a35 (build Oct 11 2019 16:45:47) gamma-only
REM
REM
REM
REM
REM ./C.cell (533062f00bc710175b3da973d35f2034)
REM AIRSS Version 0.9.1 bugfix July 2018 build 013d7b7c2542+ Fri, 06 Jul 2018 19:26:36 +0100
REM compiler GCC version 6.3.0
REM options -cpp -iprefix /gpfs/warwick/csc/orac/software/Core/GCCcore/6.3.0/bin/../lib/gcc/x86_64-pc-linux-gnu/6.3.0/ -mtune=generic -march=x86-64 -g -O0
REM seed -708276374 -58582573 -799556615 831840876 -140800852 1818781205 -1150612867 1806879487 -1740707485 -1243968932 1356741474 -1091677903
REM
REM C.POTCAR (d86ddea03c3ceb6dc662c8ad6801f873)
REM 
CELL 1.54180   15.00000   15.00000   15.00000   90.00000   90.00000   90.00000
LATT -1
SFAC C  
C      1  0.8298674184918  0.2982171666913  0.3421185454777 1.0
C      1  0.8299550107635  0.2860929964177  0.6430077908230 1.0
C      1  0.8300420473103  0.5695356853579  0.7472321380611 1.0
C      1  0.8303257138341  0.7559794901370  0.5107932551878 1.0
C      1  0.8301358172013  0.5898227184580  0.2592488068513 1.0
C      1  0.1701313179018  0.2982158133700  0.3421187195079 1.0
C      1  0.1700421927187  0.2860961973332  0.6430066640432 1.0
C      1  0.1699590119531  0.5695407977539  0.7472311642133 1.0
C      1  0.1696754287707  0.7559802984319  0.5107913546442 1.0
C      1  0.1698666158817  0.5898236345994  0.2592467803801 1.0
C      1  0.8712991814147  0.5159142088686  0.2647287128130 1.0
C      1  0.8728572963590  0.2799292746224  0.4129063660611 1.0
C      1  0.8721123203141  0.3482944435933  0.6823458618349 1.0
C      1  0.8729414875321  0.6261501388805  0.7008529688109 1.0
C      1  0.8724912229733  0.7296500220916  0.4420338051546 1.0
C      1  0.1287072722987  0.5159131104928  0.2647281088014 1.0
C      1  0.1271402306986  0.2799322667342  0.4129068312645 1.0
C      1  0.1278887496400  0.3482982205571  0.6823478667721 1.0
C      1  0.1270590618093  0.6261567469506  0.7008541152813 1.0
C      1  0.1275091999449  0.7296499881843  0.4420327109484 1.0
C      1  0.1338333305298  0.4386371471643  0.6674109587346 1.0
C      1  0.1336253958550  0.6395643298760  0.6102041026631 1.0
C      1  0.1340042259992  0.6474949412778  0.4014958809827 1.0
C      1  0.1341856622841  0.4511723155796  0.3293654631732 1.0
C      1  0.1338256049538  0.3223440630299  0.4940587481574 1.0
C      1  0.8661662603650  0.4386346911943  0.6674090459543 1.0
C      1  0.8663765279229  0.6395629436603  0.6102041897616 1.0
C      1  0.8659953277679  0.6474950712041  0.4014968749552 1.0
C      1  0.8658170824909  0.4511713733596  0.3293636771112 1.0
C      1  0.8661717542292  0.3223404515464  0.4940586379687 1.0
C      1  0.6245741269198  0.7155450339822  0.5929117507854 1.0
C      1  0.6244928519014  0.6556121312290  0.3238076051108 1.0
C      1  0.6245101420795  0.3802875185420  0.2973090358088 1.0
C      1  0.6245467659456  0.2704943213953  0.5511420684508 1.0
C      1  0.6244975544990  0.4786832932176  0.7337475576492 1.0
C      1  0.3754266008189  0.7155449306299  0.5929109158916 1.0
C      1  0.3755072044137  0.6556123357745  0.3238076677144 1.0
C      1  0.3754902777982  0.3802890843358  0.2973081824336 1.0
C      1  0.3754518501397  0.2704946546228  0.5511411942237 1.0
C      1  0.3755017754923  0.4786843709381  0.7337473001477 1.0
C      1  0.5846546506624  0.1707424352045  0.4054758597357 1.0
C      1  0.5846342406551  0.3092722465445  0.7833723693039 1.0
C      1  0.5846304576862  0.7115167134161  0.7697389842233 1.0
C      1  0.5846097414849  0.8223388116553  0.3822964199749 1.0
C      1  0.5846314508558  0.4877078585493  0.1572804495487 1.0
C      1  0.4153431019471  0.1707432316699  0.4054767067383 1.0
C      1  0.4153652394861  0.3092724237382  0.7833726733226 1.0
C      1  0.4153695580221  0.7115167996358  0.7697388543627 1.0
C      1  0.4153908170150  0.8223383919863  0.3822963486631 1.0
C      1  0.4153668453540  0.4877072273159  0.1572778213693 1.0
C      1  0.5849054420212  0.6403382810839  0.8119539886293 1.0
C      1  0.5849328640052  0.8402538372317  0.4631016851431 1.0
C      1  0.5849213432690  0.5700291018076  0.1657579066637 1.0
C      1  0.5849220546658  0.2036246707862  0.3295365582936 1.0
C      1  0.5847586049681  0.2469060455398  0.7289963543788 1.0
C      1  0.4150953184399  0.6403387132173  0.8119543534378 1.0
C      1  0.4150681628536  0.8402543380807  0.4631016112186 1.0
C      1  0.4150793495853  0.5700282064463  0.1657565210872 1.0
C      1  0.4150759180260  0.2036281104837  0.3295376462320 1.0
C      1  0.4152403731938  0.2469063057162  0.7289967183733 1.0
C      1  0.2934656930726  0.3125144705264  0.5389064298778 1.0
C      1  0.2934886791136  0.4794071282870  0.6899371281665 1.0
C      1  0.2934333914306  0.6740039338603  0.5786489076147 1.0
C      1  0.2935612718410  0.6288522487478  0.3586257260941 1.0
C      1  0.2935318632452  0.4048934207530  0.3336448995308 1.0
C      1  0.7065330939843  0.3125139686846  0.5389071756960 1.0
C      1  0.7065107650061  0.4794033079567  0.6899371410211 1.0
C      1  0.7065680478381  0.6740036251917  0.5786502513684 1.0
C      1  0.7064387583965  0.6288517742907  0.3586251521771 1.0
C      1  0.7064690372471  0.4048939229446  0.3336453535779 1.0
C      1  0.5468448335293  0.4136285736652  0.3476051648924 1.0
C      1  0.5468372228906  0.3286316108628  0.5350651344447 1.0
C      1  0.5468640710610  0.4811677125363  0.6734511028996 1.0
C      1  0.5468607929344  0.6591094017960  0.5716051710677 1.0
C      1  0.5468347599219  0.6178492207880  0.3708262883397 1.0
C      1  0.4531554644832  0.4136293401017  0.3476045297994 1.0
C      1  0.4531621146421  0.3286317310807  0.5350647903153 1.0
C      1  0.4531352019017  0.4811678838116  0.6734511496023 1.0
C      1  0.4531407541261  0.6591095778252  0.5716053438814 1.0
C      1  0.4531655125223  0.6178496629639  0.3708265100377 1.0
C      1  0.5487645318957  0.5568127405961  0.8451730293223 1.0
C      1  0.5488010774528  0.8456462229342  0.5526959664272 1.0
C      1  0.5487811164394  0.6571088924301  0.1878439770808 1.0
C      1  0.5487678340351  0.2514794220067  0.2534904091974 1.0
C      1  0.5487706426147  0.1891452311635  0.6599807843895 1.0
C      1  0.4512362575402  0.5568129110201  0.8451730086121 1.0
C      1  0.4511994879270  0.8456464655107  0.5526957389937 1.0
C      1  0.4512182224740  0.6571083420750  0.1878440057832 1.0
C      1  0.4512303917225  0.2514798304731  0.2534911326132 1.0
C      1  0.4512282461120  0.1891457093577  0.6599809547447 1.0
C      1  0.8901102813534  0.4744129864349  0.4208466207333 1.0
C      1  0.8903472968266  0.4164085602437  0.5000701638595 1.0
C      1  0.8904759722478  0.4736195152999  0.5797845609362 1.0
C      1  0.8903980333216  0.5670882884739  0.5498824463778 1.0
C      1  0.8900732328475  0.5676027468617  0.4516616261406 1.0
C      1  0.1098909881962  0.4744152372897  0.4208476384393 1.0
C      1  0.1096510235892  0.4164101681188  0.5000714095958 1.0
C      1  0.1095226627084  0.4736205460820  0.5797862853929 1.0
C      1  0.1096007515717  0.5670900615337  0.5498829277817 1.0
C      1  0.1099281208528  0.5676038647243  0.4516622791966 1.0
C      1  0.4090001318485  0.1805101898666  0.5738519354279 1.0
C      1  0.4090029021889  0.4722481047590  0.8264157255852 1.0
C      1  0.4089823355861  0.8017670674138  0.6273964281233 1.0
C      1  0.4089927838655  0.7149839248404  0.2523340101816 1.0
C      1  0.4090249059350  0.3307601060496  0.2186947950399 1.0
C      1  0.5909991701224  0.1805099207584  0.5738516937031 1.0
C      1  0.5909970762985  0.4722476388501  0.8264155575994 1.0
C      1  0.5910179638393  0.8017665334056  0.6273968808889 1.0
C      1  0.5910071007672  0.7149840656728  0.2523342185237 1.0
C      1  0.5909753672029  0.3307597783898  0.2186956546768 1.0
C      1  0.4133108433629  0.4588262783252  0.4241627008614 1.0
C      1  0.4133022164018  0.4153106462439  0.5154621840710 1.0
C      1  0.4132545661969  0.4887170670953  0.5849498341842 1.0
C      1  0.4132340882383  0.5774673804262  0.5366115614277 1.0
C      1  0.4132393107686  0.5590021136292  0.4373549748583 1.0
C      1  0.5866890340708  0.4588262007263  0.4241630580621 1.0
C      1  0.5866975180960  0.4153103896986  0.5154625843476 1.0
C      1  0.5867446973573  0.4887171652829  0.5849500946894 1.0
C      1  0.5867667818880  0.5774671340030  0.5366112599028 1.0
C      1  0.5867608718804  0.5590019665554  0.4373549775132 1.0
C      1  0.2018745302973  0.4888503296135  0.7204317316381 1.0
C      1  0.2016938815632  0.7056586335537  0.5791690387172 1.0
C      1  0.2018487080877  0.6386838314322  0.3288037895382 1.0
C      1  0.2017747816941  0.3789845001095  0.3153767658789 1.0
C      1  0.2018815905775  0.2868926429788  0.5579858968877 1.0
C      1  0.7981255259120  0.4888462372963  0.7204300116451 1.0
C      1  0.7983079827406  0.7056577248740  0.5791712536177 1.0
C      1  0.7981513815519  0.6386844483439  0.3288040007315 1.0
C      1  0.7982257728086  0.3789854455729  0.3153752763321 1.0
C      1  0.7981170062825  0.2868908506866  0.5579864767957 1.0
C      1  0.4512938143388  0.7800319464198  0.7113223360874 1.0
C      1  0.4512826191530  0.7880392543941  0.2989722929090 1.0
C      1  0.4512781511884  0.3978698951266  0.1637195191079 1.0
C      1  0.4513166710089  0.1492380012842  0.4929900162705 1.0
C      1  0.4512846068954  0.3857065392100  0.8309612688444 1.0
C      1  0.5487061930309  0.7800318050171  0.7113227551815 1.0
C      1  0.5487177056109  0.7880397395718  0.2989729519888 1.0
C      1  0.5487222582096  0.3978702737194  0.1637200794350 1.0
C      1  0.5486823174429  0.1492380205722  0.4929896568798 1.0
C      1  0.5487154290428  0.3857062993739  0.8309613819728 1.0
C      1  0.6894004467339  0.4097872613929  0.5160234380385 1.0
C      1  0.6894131665587  0.4874019557945  0.5903807199060 1.0
C      1  0.6894554129588  0.5820415153247  0.5395616336845 1.0
C      1  0.6894553964726  0.5631284132158  0.4338694309419 1.0
C      1  0.6893794152204  0.4565483755975  0.4192210093420 1.0
C      1  0.3105989415294  0.4097879916169  0.5160231180608 1.0
C      1  0.3105861488874  0.4874032751992  0.5903804034294 1.0
C      1  0.3105454898775  0.5820417157701  0.5395616877236 1.0
C      1  0.3105445814267  0.5631284041646  0.4338696851863 1.0
C      1  0.3106204516522  0.4565485692830  0.4192206722279 1.0
END
