TITL C-6660-8037-16 -8.197 3375.00 -1244.14255609 0 0 152 (C2) n - 1
REM
REM Run started: at 2020.12.18 08:29:38 in /gpfs/home/chem/mssmkc/CARBON/AIRSS/Generating-Clusters/Str-Search/Higher-Symm
REM VASP from code version vasp.5.4.4.18Apr17-6-g9f103f2a35 (build Oct 11 2019 16:45:47) gamma-only
REM
REM
REM
REM
REM ./C.cell (533062f00bc710175b3da973d35f2034)
REM AIRSS Version 0.9.1 bugfix July 2018 build 013d7b7c2542+ Fri, 06 Jul 2018 19:26:36 +0100
REM compiler GCC version 6.3.0
REM options -cpp -iprefix /gpfs/warwick/csc/orac/software/Core/GCCcore/6.3.0/bin/../lib/gcc/x86_64-pc-linux-gnu/6.3.0/ -mtune=generic -march=x86-64 -g -O0
REM seed 1665000106 1403887809 131977341 2117628184 1853551826 -1766316513 1754594533 1553733455 -1852065064 1840739678 798684859 -314563125
REM
REM C.POTCAR (d86ddea03c3ceb6dc662c8ad6801f873)
REM 
CELL 1.54180   15.00000   15.00000   15.00000   90.00000   90.00000   90.00000
LATT -1
SFAC C  
C      1  0.7400565020969  0.5800099052484  0.7583631266376 1.0
C      1  0.7394392666743  0.4204451880764  0.2409801471972 1.0
C      1  0.2703983614224  0.5762888456009  0.2533657244807 1.0
C      1  0.2711883033749  0.4235264772839  0.7472357459725 1.0
C      1  0.4285396607026  0.4268935892486  0.2009403112574 1.0
C      1  0.4293681739010  0.5729056550327  0.7991088085835 1.0
C      1  0.5711541860745  0.4403165563696  0.7999459794951 1.0
C      1  0.5699340957426  0.5598227132286  0.1998622578305 1.0
C      1  0.8430862510064  0.4619697009870  0.6034258806347 1.0
C      1  0.8429984933994  0.5383336564670  0.3959602004141 1.0
C      1  0.1593986962885  0.4664517502960  0.3994672833803 1.0
C      1  0.1595008320803  0.5332936667479  0.6012820496547 1.0
C      1  0.7597180324234  0.3848593695262  0.4862431256887 1.0
C      1  0.7597412827955  0.6155083350039  0.5131906724586 1.0
C      1  0.2382876538061  0.3791706264060  0.5105367603693 1.0
C      1  0.2381001544356  0.6205758604345  0.4901635299144 1.0
C      1  0.3516664019596  0.6221399382987  0.8001298617796 1.0
C      1  0.3509189612192  0.3775727573894  0.2001166934081 1.0
C      1  0.6473125979998  0.6129205560329  0.2084168999539 1.0
C      1  0.6486133930858  0.3873862613442  0.7911831123605 1.0
C      1  0.3880038833934  0.7441481725659  0.3145689087849 1.0
C      1  0.3888970082556  0.2557062837649  0.6857034518441 1.0
C      1  0.6055706911927  0.7408723546832  0.6914205098802 1.0
C      1  0.6054205263421  0.2593272467024  0.3083574622923 1.0
C      1  0.0940454708953  0.5350144621148  0.3886010434010 1.0
C      1  0.0942585341764  0.4646530012349  0.6121716354795 1.0
C      1  0.9076995661435  0.5309876699872  0.6132411070221 1.0
C      1  0.9074558198405  0.4691356787943  0.3859888660236 1.0
C      1  0.8095986146604  0.2391700599069  0.4534226789100 1.0
C      1  0.8093089103691  0.7613540677793  0.5457509060792 1.0
C      1  0.1895633250477  0.2374534687982  0.5356369252828 1.0
C      1  0.1893046482362  0.7621714701151  0.4653957555939 1.0
C      1  0.5886408654132  0.5425835212585  0.7834773333703 1.0
C      1  0.5878014970844  0.4576433574339  0.2163053603079 1.0
C      1  0.4158760985775  0.5238531123698  0.2305466702224 1.0
C      1  0.4168607433791  0.4758690829402  0.7695990288735 1.0
C      1  0.3064626252733  0.5512703311754  0.3486403214497 1.0
C      1  0.3069463176199  0.4485462538235  0.6518754380026 1.0
C      1  0.7028177991727  0.5512761557976  0.6658794107847 1.0
C      1  0.7024657385725  0.4491174395080  0.3335921335388 1.0
C      1  0.4669988090472  0.3288620287120  0.7133343967795 1.0
C      1  0.4659902431752  0.6710814153962  0.2866741192010 1.0
C      1  0.5313623688508  0.3000535298386  0.2522602808626 1.0
C      1  0.5317765867744  0.7000316192439  0.7476391626628 1.0
C      1  0.4508524092279  0.1849063199619  0.4986815592700 1.0
C      1  0.4504103507529  0.8149958621850  0.5014990302046 1.0
C      1  0.5718190590433  0.1667107399560  0.5274308838494 1.0
C      1  0.5712770472510  0.8333087316697  0.4723366479411 1.0
C      1  0.5441093129500  0.5757956067933  0.6197263242056 1.0
C      1  0.5438979182251  0.4242447770987  0.3801138877274 1.0
C      1  0.4598526260933  0.6118369131622  0.3786314985720 1.0
C      1  0.4603717725020  0.3880585323028  0.6214281777413 1.0
C      1  0.5302810152293  0.7476299419225  0.3005612595250 1.0
C      1  0.5312653242261  0.2523773010336  0.6992714373185 1.0
C      1  0.4657184519473  0.7588848822599  0.6999281145946 1.0
C      1  0.4655080077029  0.2409663936404  0.3000696268144 1.0
C      1  0.3425507698830  0.7556276822477  0.5833054375432 1.0
C      1  0.3427094855632  0.2441730741618  0.4171201359568 1.0
C      1  0.6319005239232  0.7623829700140  0.4347513635587 1.0
C      1  0.6324876091050  0.2377037127285  0.5648711619762 1.0
C      1  0.1885490448303  0.6984958455901  0.5393668974136 1.0
C      1  0.1886975627239  0.3011321786447  0.4616013741740 1.0
C      1  0.8032405788629  0.7005052721785  0.4697042075409 1.0
C      1  0.8036003380161  0.2998614263183  0.5295855677785 1.0
C      1  0.8914682818135  0.5852524817072  0.6882969933132 1.0
C      1  0.8909199732634  0.4150794463320  0.3108495693230 1.0
C      1  0.1147223682472  0.5913239763661  0.3160213740250 1.0
C      1  0.1153771047373  0.4084448691663  0.6847129011513 1.0
C      1  0.7355414210795  0.2652128045916  0.5939592762583 1.0
C      1  0.7348768611395  0.7350125052124  0.4054212633159 1.0
C      1  0.2526920634241  0.2696986402811  0.3890204954887 1.0
C      1  0.2527747503220  0.7298631767459  0.6118293778099 1.0
C      1  0.4634003316007  0.8021134152622  0.3391673088754 1.0
C      1  0.4643248441187  0.1978025771280  0.6608997640213 1.0
C      1  0.5389555756098  0.7959854986020  0.6451348898733 1.0
C      1  0.5389553731779  0.2040248281035  0.3546739193857 1.0
C      1  0.4886930705899  0.1532401340845  0.5797763471942 1.0
C      1  0.4879442327671  0.8465898825564  0.4201918926678 1.0
C      1  0.5281793062680  0.1679999445939  0.4388198256375 1.0
C      1  0.5279222564885  0.8320681706926  0.5610663048790 1.0
C      1  0.7490373773285  0.4748513982035  0.6205381595212 1.0
C      1  0.7488979622468  0.5254979538945  0.3788952085244 1.0
C      1  0.2527822749222  0.4772370027767  0.3856827714877 1.0
C      1  0.2529575712771  0.5225375215169  0.6150051338538 1.0
C      1  0.2978939364342  0.5741995013364  0.5535482736774 1.0
C      1  0.2978829809341  0.4255761153015  0.4470120923397 1.0
C      1  0.7044977150157  0.5630232612837  0.4492622278413 1.0
C      1  0.7045700735706  0.4372616483395  0.5502309293836 1.0
C      1  0.2371991586919  0.7809547227872  0.3995126373111 1.0
C      1  0.2377866739227  0.2189011404278  0.6013204951109 1.0
C      1  0.7533804735602  0.7760568517354  0.6068874135873 1.0
C      1  0.7535980629357  0.2243410086153  0.3923857566718 1.0
C      1  0.4860896687540  0.5931971686928  0.2202945371529 1.0
C      1  0.4873386259527  0.4067494673778  0.7796126989851 1.0
C      1  0.5143148266529  0.6127858050941  0.7881597340314 1.0
C      1  0.5136926761893  0.3872170582724  0.2117932849050 1.0
C      1  0.3318734036320  0.5603661413029  0.1907170254850 1.0
C      1  0.3330400941836  0.4390978759144  0.8096169013857 1.0
C      1  0.6754929228378  0.5769398548580  0.8213987751299 1.0
C      1  0.6746927195643  0.4234619219687  0.1781075286133 1.0
C      1  0.7080349443121  0.3416096497403  0.7563528455676 1.0
C      1  0.7068689450901  0.6585990447295  0.2431134225149 1.0
C      1  0.2858365089193  0.3307801191570  0.2247567520477 1.0
C      1  0.2865031476010  0.6690491983285  0.7760576084389 1.0
C      1  0.2878399763536  0.2768345089716  0.3002853607581 1.0
C      1  0.2882281764164  0.7228643255349  0.7004386301155 1.0
C      1  0.7032660517735  0.2832011397249  0.6813414326835 1.0
C      1  0.7024168257650  0.7170596897594  0.3180882116376 1.0
C      1  0.6098679839259  0.4532920805715  0.5197968669664 1.0
C      1  0.6098070015103  0.5468543043900  0.4798197650174 1.0
C      1  0.3905667335785  0.4133870676847  0.4600734595261 1.0
C      1  0.3904976483945  0.5864018046977  0.5402064351392 1.0
C      1  0.4099437516998  0.4741179596493  0.6588224702162 1.0
C      1  0.4094248914180  0.5257243281764  0.3413800715795 1.0
C      1  0.6032941636743  0.4589867139109  0.3157929244519 1.0
C      1  0.6037005470371  0.5413047660236  0.6839260950276 1.0
C      1  0.3059020072648  0.2716274686679  0.6420430314018 1.0
C      1  0.3051511827667  0.7282029707602  0.3585627853651 1.0
C      1  0.6902751793666  0.2800696427761  0.3522668452941 1.0
C      1  0.6903236558954  0.7202738683653  0.6472476756241 1.0
C      1  0.3951892006293  0.2609477849773  0.4934576154990 1.0
C      1  0.3949201715234  0.7388095961114  0.5069073435277 1.0
C      1  0.5868200440398  0.3208252885785  0.5250396725873 1.0
C      1  0.5864278153741  0.6792132075503  0.4746532742927 1.0
C      1  0.8325347485272  0.5939051292055  0.7463569874195 1.0
C      1  0.8319592552512  0.4065236283983  0.2528028246290 1.0
C      1  0.1787395341886  0.5956697566521  0.2628826100803 1.0
C      1  0.1794703826824  0.4041064853896  0.7377946013385 1.0
C      1  0.3011997510855  0.3641304925749  0.5919252752148 1.0
C      1  0.3007354962016  0.6357040977849  0.4086138941313 1.0
C      1  0.6999036014552  0.3711613670645  0.4013013889073 1.0
C      1  0.6999253184476  0.6291845542841  0.5981690804694 1.0
C      1  0.6076520827694  0.6196947228343  0.5527308166171 1.0
C      1  0.6077040398701  0.3804367208583  0.4469011436083 1.0
C      1  0.3931928329477  0.6472993202916  0.4563514836379 1.0
C      1  0.3935253556254  0.3525189340128  0.5439301545431 1.0
C      1  0.3770043613860  0.2366290285619  0.3260164692418 1.0
C      1  0.3771562404886  0.7631494464433  0.6742371181449 1.0
C      1  0.6171733246329  0.2490192025488  0.6641972658135 1.0
C      1  0.6162800724955  0.7510912358346  0.3354487669301 1.0
C      1  0.9420702921476  0.4504240472880  0.4805969247536 1.0
C      1  0.9425856523221  0.5495256906900  0.5187298324616 1.0
C      1  0.0564487622433  0.4498323956875  0.5181383154939 1.0
C      1  0.0561692994036  0.5498030436540  0.4825869137598 1.0
C      1  0.5471880212620  0.6077997275682  0.4275960673369 1.0
C      1  0.5475195682517  0.3921769561267  0.5721603523241 1.0
C      1  0.4501431643223  0.5539478533638  0.6065296136619 1.0
C      1  0.4499469667036  0.4459955817212  0.3936225121334 1.0
C      1  0.1422686833712  0.3996506798141  0.4724283873111 1.0
C      1  0.1421633270049  0.6001121483707  0.5284074930945 1.0
C      1  0.8563749219359  0.3993856463090  0.5260589673982 1.0
C      1  0.8564441753536  0.6009484498679  0.4732453842199 1.0
END
