TITL C-6660-8037-19 -6.866 3375.00 -1178.97722823 0 0 144 (C4h) n - 1
REM
REM Run started: at 2020.12.18 09:57:22 in /gpfs/home/chem/mssmkc/CARBON/AIRSS/Generating-Clusters/Str-Search/Higher-Symm
REM VASP from code version vasp.5.4.4.18Apr17-6-g9f103f2a35 (build Oct 11 2019 16:45:47) gamma-only
REM
REM
REM
REM
REM ./C.cell (533062f00bc710175b3da973d35f2034)
REM AIRSS Version 0.9.1 bugfix July 2018 build 013d7b7c2542+ Fri, 06 Jul 2018 19:26:36 +0100
REM compiler GCC version 6.3.0
REM options -cpp -iprefix /gpfs/warwick/csc/orac/software/Core/GCCcore/6.3.0/bin/../lib/gcc/x86_64-pc-linux-gnu/6.3.0/ -mtune=generic -march=x86-64 -g -O0
REM seed 1681148864 -1360060262 -738695607 -663526390 121224118 -1039995525 -12825629 -1321538056 935295429 1041963003 836874300 -643314961
REM
REM C.POTCAR (d86ddea03c3ceb6dc662c8ad6801f873)
REM 
CELL 1.54180   15.00000   15.00000   15.00000   90.00000   90.00000   90.00000
LATT -1
SFAC C  
C      1  0.5529635727201  0.6672145138482  0.2891387618691 1.0
C      1  0.5529635721504  0.2891386837529  0.3327854392470 1.0
C      1  0.5529635937384  0.3327854827328  0.7108612342555 1.0
C      1  0.5529635434666  0.7108612925096  0.6672145373118 1.0
C      1  0.4470364295485  0.6672145245644  0.2891387612115 1.0
C      1  0.4470364397485  0.2891387124747  0.3327854657785 1.0
C      1  0.4470364487336  0.3327854830209  0.7108612349762 1.0
C      1  0.4470363948791  0.7108613054440  0.6672145550293 1.0
C      1  0.7611671474726  0.5663742111073  0.7500436870126 1.0
C      1  0.7611671618088  0.7500435376050  0.4336259420492 1.0
C      1  0.7611671601179  0.4336258219020  0.2499564103960 1.0
C      1  0.7611671620948  0.2499564836445  0.5663741461165 1.0
C      1  0.2388328137159  0.5663741306596  0.7500434997150 1.0
C      1  0.2388328662994  0.7500436063744  0.4336257911819 1.0
C      1  0.2388328200966  0.4336258339214  0.2499564063207 1.0
C      1  0.2388328686271  0.2499563846974  0.5663740996200 1.0
C      1  0.5469357030277  0.6327737185886  0.8306761557230 1.0
C      1  0.5469357381663  0.8306761182110  0.3672263273882 1.0
C      1  0.5469357150457  0.3672262854368  0.1693238577892 1.0
C      1  0.5469357226052  0.1693238781153  0.6327736841936 1.0
C      1  0.4530642683860  0.6327737100798  0.8306761307930 1.0
C      1  0.4530643047184  0.8306761292418  0.3672263097126 1.0
C      1  0.4530642734611  0.3672262930638  0.1693238574213 1.0
C      1  0.4530642907963  0.1693238830678  0.6327736764627 1.0
C      1  0.6926322688294  0.7591317541407  0.6012190562831 1.0
C      1  0.6926323031170  0.6012189649437  0.2408683263335 1.0
C      1  0.6926323002109  0.2408682776218  0.3987810021333 1.0
C      1  0.6926323148032  0.3987810701730  0.7591316940506 1.0
C      1  0.3073676824374  0.7591317049714  0.6012189698685 1.0
C      1  0.3073677005090  0.6012189803071  0.2408682856907 1.0
C      1  0.3073677016468  0.2408682580179  0.3987809600934 1.0
C      1  0.3073677158619  0.3987809877482  0.7591316951016 1.0
C      1  0.7820806825893  0.6209458359816  0.6745803920246 1.0
C      1  0.7820807694106  0.6745802308506  0.3790543264987 1.0
C      1  0.7820807251318  0.3790541560165  0.3254196771585 1.0
C      1  0.7820807900533  0.3254197872190  0.6209457539596 1.0
C      1  0.2179192146328  0.6209457876946  0.6745802644008 1.0
C      1  0.2179192717016  0.6745803741506  0.3790541342648 1.0
C      1  0.2179192414224  0.3790542195772  0.3254196883853 1.0
C      1  0.2179192862970  0.3254196195941  0.6209457789291 1.0
C      1  0.5497050087293  0.1791862189972  0.4674836588095 1.0
C      1  0.5497049940861  0.4674836654327  0.8208137322751 1.0
C      1  0.5497049987383  0.8208138088420  0.5325163745511 1.0
C      1  0.5497049938334  0.5325163170285  0.1791863341304 1.0
C      1  0.4502950133927  0.1791861962787  0.4674836210239 1.0
C      1  0.4502949969113  0.4674836792820  0.8208136658344 1.0
C      1  0.4502950023500  0.8208137858947  0.5325163524886 1.0
C      1  0.4502950012028  0.5325163358570  0.1791862737542 1.0
C      1  0.6937472012648  0.4274012819857  0.5077058907369 1.0
C      1  0.6937472308254  0.5077059411022  0.5725986732997 1.0
C      1  0.6937471846096  0.5725986867538  0.4922940491440 1.0
C      1  0.6937472270057  0.4922940557744  0.4274012605993 1.0
C      1  0.3062527733310  0.4274013146441  0.5077059584178 1.0
C      1  0.3062528072639  0.5077059259448  0.5725987477636 1.0
C      1  0.3062527663120  0.5725987061890  0.4922940863080 1.0
C      1  0.3062527903659  0.4922940818888  0.4274013244192 1.0
C      1  0.2920661700947  0.3461919568321  0.6809590928064 1.0
C      1  0.2920661303250  0.6809590846380  0.6538079808497 1.0
C      1  0.2920661652173  0.6538080140421  0.3190408842470 1.0
C      1  0.2920661426588  0.3190408994420  0.3461919983934 1.0
C      1  0.7079338763568  0.3461920736480  0.6809590701425 1.0
C      1  0.7079337992353  0.6809591397439  0.6538080811262 1.0
C      1  0.7079338718268  0.6538079690889  0.3190409493623 1.0
C      1  0.7079338353389  0.3190408531316  0.3461919363253 1.0
C      1  0.7381735305356  0.2166857514013  0.4782248983780 1.0
C      1  0.7381735301207  0.4782249179859  0.7833143388867 1.0
C      1  0.7381735139306  0.7833142687136  0.5217751935165 1.0
C      1  0.7381735132843  0.5217750990898  0.2166857444827 1.0
C      1  0.2618264901929  0.2166857033457  0.4782248300646 1.0
C      1  0.2618264908037  0.4782248660564  0.7833142326551 1.0
C      1  0.2618264786218  0.7833142801939  0.5217750776711 1.0
C      1  0.2618264727873  0.5217751041978  0.2166856968548 1.0
C      1  0.3757620463529  0.3417269789714  0.6365493570771 1.0
C      1  0.3757620272753  0.6365493874371  0.6582730200901 1.0
C      1  0.3757620342080  0.6582729940955  0.3634506333216 1.0
C      1  0.3757620323365  0.3634506083491  0.3417270242108 1.0
C      1  0.6242379774985  0.3417270355378  0.6365493580675 1.0
C      1  0.6242379264060  0.6365493993957  0.6582730081494 1.0
C      1  0.6242379651654  0.6582729994287  0.3634506479458 1.0
C      1  0.6242379422019  0.3634505829630  0.3417269267657 1.0
C      1  0.5981816644113  0.1662963542757  0.5540821436715 1.0
C      1  0.5981816361741  0.5540821594649  0.8337036609045 1.0
C      1  0.5981816697197  0.8337036632998  0.4459178834905 1.0
C      1  0.5981816369824  0.4459178432855  0.1662963816005 1.0
C      1  0.4018183575088  0.1662963150638  0.5540821236178 1.0
C      1  0.4018183384519  0.5540821502252  0.8337036037894 1.0
C      1  0.4018183656212  0.8337036768320  0.4459178538927 1.0
C      1  0.4018183473680  0.4459178474095  0.1662963713267 1.0
C      1  0.5411211958518  0.6384646307762  0.4955485295138 1.0
C      1  0.5411211589408  0.4955484106934  0.3615354933441 1.0
C      1  0.5411211222619  0.3615354015794  0.5044516055677 1.0
C      1  0.5411212177650  0.5044515567716  0.6384646433409 1.0
C      1  0.4588788428935  0.6384645987858  0.4955483885696 1.0
C      1  0.4588788072766  0.4955484479997  0.3615353646626 1.0
C      1  0.4588787574815  0.3615353625727  0.5044514663988 1.0
C      1  0.4588788513962  0.5044515716350  0.6384645147375 1.0
C      1  0.3091940465441  0.4482378450438  0.1861889339221 1.0
C      1  0.3091940777840  0.1861889283324  0.5517620777281 1.0
C      1  0.3091940498442  0.5517621289967  0.8138109635758 1.0
C      1  0.3091940732488  0.8138110760958  0.4482378460280 1.0
C      1  0.6908059251795  0.4482378435822  0.1861889844909 1.0
C      1  0.6908059545540  0.1861889752312  0.5517621589113 1.0
C      1  0.6908059281883  0.5517621681867  0.8138111353014 1.0
C      1  0.6908059562656  0.8138110378209  0.4482379239260 1.0
C      1  0.5467114416799  0.7727348508951  0.2823663397854 1.0
C      1  0.5467114535758  0.2823662477655  0.2272650931498 1.0
C      1  0.5467114637914  0.2272651509585  0.7176336677119 1.0
C      1  0.5467114068674  0.7176336966524  0.7727348697563 1.0
C      1  0.4532885521611  0.7727348594841  0.2823663149720 1.0
C      1  0.4532885633509  0.2823663220333  0.2272651394123 1.0
C      1  0.4532885770254  0.2272651477455  0.7176336796096 1.0
C      1  0.4532885199152  0.7176337251414  0.7727348936665 1.0
C      1  0.7968064379218  0.4938226459722  0.5979162519750 1.0
C      1  0.7968063737709  0.5979162640053  0.5061776252035 1.0
C      1  0.7968063961844  0.5061773637288  0.4020836953592 1.0
C      1  0.7968063819031  0.4020837186859  0.4938224165014 1.0
C      1  0.2031936615375  0.4938224346296  0.5979163377261 1.0
C      1  0.2031935447810  0.5979162580218  0.5061774048770 1.0
C      1  0.2031936173393  0.5061775674837  0.4020837146044 1.0
C      1  0.2031935318108  0.4020837755442  0.4938225632286 1.0
C      1  0.4030801795153  0.7790752132849  0.6029609702091 1.0
C      1  0.4030801937794  0.6029609871036  0.2209248015683 1.0
C      1  0.4030802076385  0.2209247541097  0.3970389777057 1.0
C      1  0.4030802032563  0.3970390407721  0.7790751350350 1.0
C      1  0.5969197973432  0.7790752538790  0.6029610229893 1.0
C      1  0.5969198103943  0.6029609545681  0.2209248652177 1.0
C      1  0.5969198130530  0.2209247696930  0.3970390199080 1.0
C      1  0.5969198177373  0.3970390258555  0.7790751903735 1.0
C      1  0.6222501356531  0.6330392519018  0.4558202053994 1.0
C      1  0.6222501418928  0.4558201414094  0.3669607095671 1.0
C      1  0.6222501175579  0.3669607431360  0.5441798013204 1.0
C      1  0.6222501577086  0.5441798380760  0.6330392393544 1.0
C      1  0.3777498403815  0.6330392799230  0.4558201935075 1.0
C      1  0.3777498515572  0.4558201748466  0.3669607848715 1.0
C      1  0.3777498257745  0.3669607224356  0.5441797905277 1.0
C      1  0.3777498889405  0.5441798267768  0.6330392650031 1.0
C      1  0.8318802218679  0.5990067769382  0.4160132990586 1.0
C      1  0.8318803184291  0.4160130484078  0.4009930373949 1.0
C      1  0.8318802580838  0.4009932189229  0.5839867378406 1.0
C      1  0.8318803145452  0.5839869927865  0.5990070132680 1.0
C      1  0.1681197424012  0.5990069618837  0.4160130600987 1.0
C      1  0.1681197855915  0.4160132173032  0.4009931416255 1.0
C      1  0.1681197553126  0.4009930362107  0.5839869078633 1.0
C      1  0.1681197831794  0.5839867443714  0.5990068087447 1.0
END
