TITL C-6603-1109-66 -0.977 3375.00 -146.84872959 0 0 20 (Cs) n - 1
REM
REM Run started: at 2020.12.18 06:01:48 in /gpfs/home/chem/mssmkc/CARBON/AIRSS/Generating-Clusters/Str-Search/Higher-Symm/C4-100
REM VASP from code version vasp.5.4.4.18Apr17-6-g9f103f2a35 (build Oct 11 2019 16:45:47) gamma-only
REM
REM
REM
REM
REM ./C.cell (6bd13a13d554368a30d355f37ece5b26)
REM AIRSS Version 0.9.1 bugfix July 2018 build 013d7b7c2542+ Fri, 06 Jul 2018 19:26:36 +0100
REM compiler GCC version 6.3.0
REM options -cpp -iprefix /gpfs/warwick/csc/orac/software/Core/GCCcore/6.3.0/bin/../lib/gcc/x86_64-pc-linux-gnu/6.3.0/ -mtune=generic -march=x86-64 -g -O0
REM seed 827232316 2144677497 -493578405 -1029514829 377863946 2026818688 54538011 -1926078010 -12892813 -1180615520 -794307128 235681627
REM
REM C.POTCAR (d86ddea03c3ceb6dc662c8ad6801f873)
REM 
CELL 1.54180   15.00000   15.00000   15.00000   90.00000   90.00000   90.00000
LATT -1
SFAC C  
C      1  0.6397428693780  0.4465295967705  0.5765138747095 1.0
C      1  0.3942292601577  0.4469472272296  0.6117680041821 1.0
C      1  0.4712965229141  0.4362039106943  0.3309757194405 1.0
C      1  0.6384356113782  0.5313711100988  0.5761904679109 1.0
C      1  0.3760529471227  0.5505472194340  0.6155085790801 1.0
C      1  0.4627742376063  0.5387473112666  0.3439811768116 1.0
C      1  0.6390504130461  0.4466128075912  0.4230953859623 1.0
C      1  0.3946918192288  0.4465394671500  0.3874260302624 1.0
C      1  0.4702231843697  0.4361039269378  0.6689696318847 1.0
C      1  0.6376318947142  0.5314603129103  0.4233970650648 1.0
C      1  0.3764483631114  0.5500579686143  0.3840779406819 1.0
C      1  0.4619014565180  0.5386813072542  0.6563523286440 1.0
C      1  0.4618901046800  0.5939339562678  0.4196836664256 1.0
C      1  0.6081143799946  0.3993540451577  0.4999125671537 1.0
C      1  0.6047137641648  0.5777097597290  0.4999968063459 1.0
C      1  0.4635332087527  0.3914467075173  0.4205311619356 1.0
C      1  0.4632442804684  0.3917127916347  0.5792505091447 1.0
C      1  0.4619712557747  0.5943858806319  0.5809534616667 1.0
C      1  0.5102263658275  0.6014606531070  0.5002856434452 1.0
C      1  0.5130574607922  0.3796520400031  0.5000065792477 1.0
END
