TITL C-6662-7152-46 -7.206 3375.00 -1184.62928518 0 0 145 (C2) n - 1
REM
REM Run started: at 2020.12.19 04:21:18 in /gpfs/home/chem/mssmkc/CARBON/AIRSS/Generating-Clusters/Str-Search/Higher-Symm
REM VASP from code version vasp.5.4.4.18Apr17-6-g9f103f2a35 (build Oct 11 2019 16:45:47) gamma-only
REM
REM
REM
REM
REM ./C.cell (533062f00bc710175b3da973d35f2034)
REM AIRSS Version 0.9.1 bugfix July 2018 build 013d7b7c2542+ Fri, 06 Jul 2018 19:26:36 +0100
REM compiler GCC version 6.3.0
REM options -cpp -iprefix /gpfs/warwick/csc/orac/software/Core/GCCcore/6.3.0/bin/../lib/gcc/x86_64-pc-linux-gnu/6.3.0/ -mtune=generic -march=x86-64 -g -O0
REM seed 2070022585 573695342 -1191487951 864890565 1577342795 1179680185 -359394557 2100908347 -497152359 -2002725032 -548007724 -808081786
REM
REM C.POTCAR (d86ddea03c3ceb6dc662c8ad6801f873)
REM 
CELL 1.54180   15.00000   15.00000   15.00000   90.00000   90.00000   90.00000
LATT -1
SFAC C  
C      1  0.7773108123425  0.7343080670793  0.3374525531206 1.0
C      1  0.6696969562786  0.7355377571005  0.7795721887028 1.0
C      1  0.2344815675726  0.7426852805625  0.6802371363052 1.0
C      1  0.3291575377273  0.7316709913618  0.2150201924460 1.0
C      1  0.2152061855534  0.2683500260735  0.3290158478314 1.0
C      1  0.3377815314374  0.2657387300349  0.7772692544366 1.0
C      1  0.7798669139155  0.2646442570584  0.6695057907772 1.0
C      1  0.6803164607500  0.2572047408290  0.2344948902616 1.0
C      1  0.5174292711724  0.4453420887371  0.1507066110924 1.0
C      1  0.8411752341749  0.4540929131117  0.5208346767574 1.0
C      1  0.4851799386304  0.4515109046009  0.8417846075351 1.0
C      1  0.1541463000245  0.4620134224367  0.4770388454668 1.0
C      1  0.4771937519671  0.5379821398127  0.1540000309185 1.0
C      1  0.1508046449915  0.5545819624211  0.5173173963783 1.0
C      1  0.5211029829068  0.5459930339431  0.8410396526838 1.0
C      1  0.8419329086262  0.5485607927374  0.4848816255402 1.0
C      1  0.4695653954061  0.8050196616622  0.6489335763896 1.0
C      1  0.3577804456581  0.7970967083616  0.4673939890398 1.0
C      1  0.5243480049656  0.7793044080990  0.3612784917458 1.0
C      1  0.6434879089958  0.8029630706239  0.5360238689997 1.0
C      1  0.5362861557022  0.1971039991184  0.6433684848421 1.0
C      1  0.6491335600022  0.1949991481107  0.4694649575026 1.0
C      1  0.4674635859995  0.2028072825124  0.3577537390815 1.0
C      1  0.3613687220009  0.2207183410756  0.5242531537108 1.0
C      1  0.6571215052589  0.5229289667908  0.2854261137979 1.0
C      1  0.7223633550086  0.5273853723263  0.6660426439081 1.0
C      1  0.3414328609008  0.5273988214858  0.7185239632575 1.0
C      1  0.2734911338574  0.5290231107604  0.3307450732054 1.0
C      1  0.3308797383593  0.4709725559033  0.2733174050822 1.0
C      1  0.2856280956183  0.4770917052314  0.6570115073481 1.0
C      1  0.6663228115474  0.4727571304412  0.7221266295184 1.0
C      1  0.7186170591031  0.4726356748669  0.3412494181392 1.0
C      1  0.3561154038447  0.6990356894535  0.4766829935571 1.0
C      1  0.5142680317957  0.6825951773540  0.3464742716923 1.0
C      1  0.6665148515895  0.7087792236455  0.5392694014707 1.0
C      1  0.4654646673986  0.7111664284877  0.6704528757753 1.0
C      1  0.6706308887929  0.2888590861572  0.4653462514066 1.0
C      1  0.4767912894252  0.3008854933064  0.3559861906340 1.0
C      1  0.3466113352119  0.3173948107572  0.5141665016346 1.0
C      1  0.5395660020049  0.2912843845874  0.6663587747411 1.0
C      1  0.7056184115494  0.4282904108341  0.4213068310664 1.0
C      1  0.5860337066674  0.4280093962798  0.7093986469360 1.0
C      1  0.2990775052421  0.4466625646038  0.5706486523502 1.0
C      1  0.4148550171927  0.4279317430762  0.2798325975328 1.0
C      1  0.2799655130878  0.5720377429133  0.4147624071619 1.0
C      1  0.4215028682444  0.5717427327628  0.7055437180380 1.0
C      1  0.7095532390754  0.5720704882260  0.5857304265980 1.0
C      1  0.5707479094896  0.5533112075340  0.2989342239016 1.0
C      1  0.7760914663874  0.3974605420920  0.4858953110360 1.0
C      1  0.5228888915893  0.3944260204075  0.7790560158929 1.0
C      1  0.2261376837989  0.4116022054960  0.5077376479941 1.0
C      1  0.4822224117071  0.3915021261786  0.2170375076100 1.0
C      1  0.2171682288915  0.6084255217416  0.4821424429811 1.0
C      1  0.4861006605906  0.6026098520239  0.7759675322106 1.0
C      1  0.7791899000534  0.6056438141400  0.5225311871975 1.0
C      1  0.5078243020775  0.5883657157898  0.2260083612616 1.0
C      1  0.2969667272595  0.5475118111981  0.8085679801067 1.0
C      1  0.1859076510531  0.5544681151037  0.2839472694170 1.0
C      1  0.7014789104234  0.5518550713206  0.1972815800361 1.0
C      1  0.8114743381826  0.5522180079770  0.7102156050481 1.0
C      1  0.7106254443195  0.4480082520673  0.8112228765580 1.0
C      1  0.8086392505230  0.4524519968765  0.2967844910054 1.0
C      1  0.2841646730848  0.4454814276672  0.1857181710759 1.0
C      1  0.1974526876582  0.4481286170190  0.7014112195956 1.0
C      1  0.3677438814654  0.6347711908798  0.5500422154663 1.0
C      1  0.4363363665779  0.5449565806516  0.4173520358936 1.0
C      1  0.5621482869565  0.5756659496174  0.4812102947546 1.0
C      1  0.5333343933588  0.5930169232261  0.5780268414073 1.0
C      1  0.5781414479010  0.4070272248173  0.5331705191840 1.0
C      1  0.5501839521376  0.3651191335579  0.3675821789177 1.0
C      1  0.4175202361429  0.4549971229034  0.4362278316193 1.0
C      1  0.4813334288211  0.4243627246488  0.5621209089875 1.0
C      1  0.3873991952928  0.4115326957899  0.5264778496864 1.0
C      1  0.4511196852463  0.3970105875634  0.3671565188350 1.0
C      1  0.6210102207208  0.3737296491009  0.4414724234873 1.0
C      1  0.5592640459847  0.3782951631312  0.6258189180565 1.0
C      1  0.6259653170227  0.6217692771944  0.5589861732348 1.0
C      1  0.5265728097079  0.5884764044960  0.3872371622815 1.0
C      1  0.3672678965490  0.6029276969109  0.4510190062919 1.0
C      1  0.4416127985849  0.6262760938423  0.6209001458440 1.0
C      1  0.6058409293399  0.5479064636323  0.8798767728047 1.0
C      1  0.1194563419681  0.5521609928959  0.6052102352277 1.0
C      1  0.3932802528258  0.5429065096091  0.1130356021874 1.0
C      1  0.8788331379231  0.5529925258447  0.3995980995973 1.0
C      1  0.3999098219382  0.4471334177970  0.8787224112937 1.0
C      1  0.8800410183217  0.4522314737083  0.6055585781444 1.0
C      1  0.6053381664496  0.4477520241544  0.1193090399376 1.0
C      1  0.1132073330110  0.4570597344571  0.3931216419953 1.0
C      1  0.3910754877390  0.1657916279037  0.3824597924909 1.0
C      1  0.6084034183006  0.1556908813502  0.4008897963513 1.0
C      1  0.6084728379637  0.1563905627326  0.6121005584033 1.0
C      1  0.3902171537897  0.1800051201350  0.5971129102849 1.0
C      1  0.5971564449255  0.8201248173852  0.3900705531325 1.0
C      1  0.3825409786063  0.8341369864827  0.3910242232995 1.0
C      1  0.4009006516396  0.8442560950353  0.6082940987202 1.0
C      1  0.6122521290077  0.8437118384671  0.6082023240087 1.0
C      1  0.3218168339743  0.4998426088667  0.1183096609968 1.0
C      1  0.8767316395531  0.5099870600769  0.3277042284481 1.0
C      1  0.6768536488444  0.5033726112827  0.8799936055549 1.0
C      1  0.1270696997116  0.5042830847897  0.6729956761400 1.0
C      1  0.6731185753428  0.4956517004179  0.1269231584475 1.0
C      1  0.1185504316228  0.5001164983811  0.3216128709050 1.0
C      1  0.3279356225495  0.4900204887148  0.8766313260189 1.0
C      1  0.8803201627419  0.4969103004819  0.6764855223449 1.0
C      1  0.3244111140262  0.1931589609831  0.4351901433181 1.0
C      1  0.5605919908727  0.1790377476563  0.3291273404595 1.0
C      1  0.6799347191618  0.1766111163865  0.5622532335514 1.0
C      1  0.4407753888814  0.1835330584889  0.6698282047098 1.0
C      1  0.6699619083587  0.8165408291632  0.4405456910327 1.0
C      1  0.4352746838963  0.8068309098801  0.3243201321379 1.0
C      1  0.3291191398411  0.8208781642290  0.5605421278539 1.0
C      1  0.5623766461308  0.8234726441068  0.6796404418015 1.0
C      1  0.2568876374849  0.6866071054451  0.2164070385407 1.0
C      1  0.7677176008929  0.6882386419498  0.2663222320547 1.0
C      1  0.7397372006478  0.6867442140111  0.7766183813469 1.0
C      1  0.2326026685440  0.6872237606429  0.7458969092379 1.0
C      1  0.7459623521303  0.3126361904059  0.2325845002833 1.0
C      1  0.2166669765760  0.3133247080183  0.2566858052669 1.0
C      1  0.2666063482116  0.3117942377198  0.7676551305405 1.0
C      1  0.7770229529901  0.3134998212961  0.7394918469691 1.0
C      1  0.7481017806354  0.6932958252461  0.4949839636393 1.0
C      1  0.5130582244070  0.6917727880079  0.7482524816181 1.0
C      1  0.2738484758540  0.6749719343336  0.5346106324597 1.0
C      1  0.4770383325873  0.6725136417520  0.2605376095928 1.0
C      1  0.2607131155844  0.3275142010833  0.4768868222607 1.0
C      1  0.4953094032178  0.3067637436372  0.7479649904870 1.0
C      1  0.7484520386842  0.3083126744027  0.5128951838062 1.0
C      1  0.5346998456577  0.3249529908399  0.2737159299013 1.0
C      1  0.2504658188598  0.6253935891148  0.8034968503766 1.0
C      1  0.1938988083114  0.6297148927138  0.2347059240196 1.0
C      1  0.7480675249976  0.6281838436118  0.2073524594799 1.0
C      1  0.8008554083841  0.6279189810602  0.7585068709550 1.0
C      1  0.7589908962674  0.3723487796891  0.8006132612312 1.0
C      1  0.8035042570613  0.3745203410168  0.2504045069117 1.0
C      1  0.2349540103441  0.3701889584851  0.1936471658126 1.0
C      1  0.2075505338728  0.3718122194226  0.7480304836525 1.0
C      1  0.7497108238102  0.7560286885403  0.4203005471630 1.0
C      1  0.5861796172704  0.7574533541892  0.7534295156073 1.0
C      1  0.2610566504124  0.7552388291479  0.5953313336025 1.0
C      1  0.4117678331535  0.7446842803732  0.2491623800383 1.0
C      1  0.2493335700325  0.2553145145582  0.4116289817586 1.0
C      1  0.4206187935421  0.2440305447750  0.7496068510716 1.0
C      1  0.7536946233495  0.2426730762265  0.5860186156586 1.0
C      1  0.5953915354630  0.2446399927758  0.2609770220795 1.0
C      1  0.5418186643664  0.5000154193325  0.5417117676825 1.0
END
