TITL C-67933-5371-39 -4.121 3375.00 -713.75789279 0 0 88 (Ci) n - 1
REM
REM Run started: at 2020.12.04 12:35:03 in /rds/project/t2_vol4/rds-t2-cs072/BORA/CARBON/AIRSS/Generating-Clusters/Str-Search/Higher-Symm/C10-100
REM VASP from code version vasp.5.4.4.18Apr17-6-g9f103f2a35 (build Oct 11 2019 16:45:47) gamma-only
REM
REM
REM
REM
REM ./C.cell (f39ce9773e2efe3fa5bbdf770a4156b8)
REM AIRSS Version 0.9.1 bugfix July 2018 build 013d7b7c2542+ Fri, 06 Jul 2018 19:26:36 +0100
REM compiler GCC version 4.8.5 20150623 (Red Hat 4.8.5-39)
REM options -cpp -mtune=generic -march=x86-64 -g -O0
REM seed 235429261 -1277965758 -2063319865 -872145816 -1155215610 955307749 -368549205 269777740 -1591150990 -1592379886 -937110310 -333316576
REM
REM C.POTCAR (d86ddea03c3ceb6dc662c8ad6801f873)
REM 
CELL 1.54180   15.00000   15.00000   15.00000   90.00000   90.00000   90.00000
LATT -1
SFAC C  
C      1  0.3900161244865  0.6413613765193  0.7152502540563 1.0
C      1  0.6099837519544  0.3586384894394  0.2847498507144 1.0
C      1  0.3105733722699  0.4224664222490  0.3320412451051 1.0
C      1  0.6894265616138  0.5775333825925  0.6679586198207 1.0
C      1  0.3370819837588  0.4780108852189  0.6900049704554 1.0
C      1  0.6629179408077  0.5219891222085  0.3099952160956 1.0
C      1  0.7520844291510  0.4209955402085  0.6638021421001 1.0
C      1  0.2479157373859  0.5790047209486  0.3361977922195 1.0
C      1  0.2042770766796  0.5452578475824  0.4147838791118 1.0
C      1  0.7957230257168  0.4547420976754  0.5852160330850 1.0
C      1  0.6106269215987  0.6162911029428  0.7072842117565 1.0
C      1  0.3893731184360  0.3837087737343  0.2927157545281 1.0
C      1  0.6265105855371  0.2922380814648  0.4563656615572 1.0
C      1  0.3734894213746  0.7077618861077  0.5436343842819 1.0
C      1  0.4794970913351  0.5757115108554  0.2372362454604 1.0
C      1  0.5205030165457  0.4242885347785  0.7627637668192 1.0
C      1  0.7151543531933  0.2984265503172  0.4160702055946 1.0
C      1  0.2848455002393  0.7015732958707  0.5839297915884 1.0
C      1  0.6650428267226  0.2932475278303  0.3358560871984 1.0
C      1  0.3349568809218  0.7067523062811  0.6641440649893 1.0
C      1  0.5150589338416  0.4844315066614  0.2573114083937 1.0
C      1  0.4849410741155  0.5155684700038  0.7426887269699 1.0
C      1  0.3908693892022  0.5474652951412  0.7293544823965 1.0
C      1  0.6091305484528  0.4525345719366  0.2706457047800 1.0
C      1  0.4276480045197  0.4430247466747  0.2276922691124 1.0
C      1  0.5723522216341  0.5569751405110  0.7723077679331 1.0
C      1  0.4184211160846  0.7441608544613  0.6222106202473 1.0
C      1  0.5815787903523  0.2558391048931  0.3777894517167 1.0
C      1  0.5776569465266  0.7455554372735  0.3929635256815 1.0
C      1  0.4223432433319  0.2544446881210  0.6070363734258 1.0
C      1  0.3920303947246  0.5310106848009  0.3693079569698 1.0
C      1  0.6079694724978  0.4689895036791  0.6306918410557 1.0
C      1  0.2751099405271  0.3950449918754  0.4199974311454 1.0
C      1  0.7248901551645  0.6049548657658  0.5800024634117 1.0
C      1  0.4122220333302  0.7427736757871  0.3352222274708 1.0
C      1  0.5877784353484  0.2572266774100  0.6647776852050 1.0
C      1  0.2108021441985  0.6338516199677  0.4559729329397 1.0
C      1  0.7891980391140  0.3661482428373  0.5440269368513 1.0
C      1  0.4082526637495  0.4720727611547  0.5061582075714 1.0
C      1  0.5917471051902  0.5279272337734  0.4938418642096 1.0
C      1  0.4234433581274  0.3793168830583  0.4619925179289 1.0
C      1  0.5765566146621  0.6206832715312  0.5380074869182 1.0
C      1  0.6197878549768  0.4524327246183  0.5369201526767 1.0
C      1  0.3802119811222  0.5475673832566  0.4630797425483 1.0
C      1  0.7917506198986  0.4402193035708  0.4059538778239 1.0
C      1  0.2082492634840  0.5597805646255  0.5940460876474 1.0
C      1  0.5032803756041  0.7238969672758  0.3297487529177 1.0
C      1  0.4967195958559  0.2761031702877  0.6702511345980 1.0
C      1  0.4079251934662  0.2010944765622  0.5282452430576 1.0
C      1  0.5920749277232  0.7989055692828  0.4717548435364 1.0
C      1  0.5276279340563  0.6407319142444  0.2841101564819 1.0
C      1  0.4723722276442  0.3592682102977  0.7158898725928 1.0
C      1  0.6123950387570  0.4704273238115  0.7782526248150 1.0
C      1  0.3876049817999  0.5295725533621  0.2217473367416 1.0
C      1  0.7408691487586  0.3314081700155  0.6271736050100 1.0
C      1  0.2591311097232  0.6685918198335  0.3728260570677 1.0
C      1  0.4586894727772  0.4499360673696  0.5870722238278 1.0
C      1  0.5413103718613  0.5500640930873  0.4129277989579 1.0
C      1  0.5327870143256  0.3253589706667  0.3339873588933 1.0
C      1  0.4672128704686  0.6746411754004  0.6660128105804 1.0
C      1  0.6812245107963  0.4766992943130  0.7009731200535 1.0
C      1  0.3187754490369  0.5233006910161  0.2990268392577 1.0
C      1  0.5413912863810  0.6186201750222  0.6344055882270 1.0
C      1  0.4586087220416  0.3813798292481  0.3655945706269 1.0
C      1  0.6405365965365  0.6737215762986  0.3989364079392 1.0
C      1  0.3594635316853  0.3262784083415  0.6010638152781 1.0
C      1  0.6674946717753  0.2790210727431  0.6473775426574 1.0
C      1  0.3325052875041  0.7209786848351  0.3526224111646 1.0
C      1  0.5189894025754  0.5131563467278  0.6416825008101 1.0
C      1  0.4810105902325  0.4868437073348  0.3583175651243 1.0
C      1  0.5877820621733  0.3634886790359  0.5063459393867 1.0
C      1  0.4122177962436  0.6365113374304  0.4936540312021 1.0
C      1  0.3554037228223  0.2315869419484  0.4701291024825 1.0
C      1  0.6445964424636  0.7684130874699  0.5298709891233 1.0
C      1  0.2144594794596  0.4761630473599  0.5561946337317 1.0
C      1  0.7855404928073  0.5238368777206  0.4438052403473 1.0
C      1  0.7799055378788  0.5391306991264  0.5391479606840 1.0
C      1  0.2200944344297  0.4608692875398  0.4608520152971 1.0
C      1  0.7815164277997  0.3561388121700  0.4516079455105 1.0
C      1  0.2184836181863  0.6438610339596  0.5483920750830 1.0
C      1  0.5016771502124  0.6243520902295  0.4737182684538 1.0
C      1  0.4983226820707  0.3756480518533  0.5262817087201 1.0
C      1  0.3944598292499  0.4000438644786  0.6592355834138 1.0
C      1  0.6055401198800  0.5999562010062  0.3407645792389 1.0
C      1  0.2605557685383  0.4947243088770  0.6389130195686 1.0
C      1  0.7394441089965  0.5052757816471  0.3610868632830 1.0
C      1  0.6638256215921  0.6706707230208  0.5179476478762 1.0
C      1  0.3361743299042  0.3293292495344  0.4820522968116 1.0
END
