TITL C-67933-5371-41 -4.455 3375.00 -766.12328134 0 0 95 (C1) n - 1
REM
REM Run started: at 2020.12.04 13:17:34 in /rds/project/t2_vol4/rds-t2-cs072/BORA/CARBON/AIRSS/Generating-Clusters/Str-Search/Higher-Symm/C10-100
REM VASP from code version vasp.5.4.4.18Apr17-6-g9f103f2a35 (build Oct 11 2019 16:45:47) gamma-only
REM
REM
REM
REM
REM ./C.cell (f39ce9773e2efe3fa5bbdf770a4156b8)
REM AIRSS Version 0.9.1 bugfix July 2018 build 013d7b7c2542+ Fri, 06 Jul 2018 19:26:36 +0100
REM compiler GCC version 4.8.5 20150623 (Red Hat 4.8.5-39)
REM options -cpp -mtune=generic -march=x86-64 -g -O0
REM seed 718682220 -345405079 1964530883 -703644903 1880489505 -2090839137 -609572619 -330692010 331290808 -169141940 137705488 908760991
REM
REM C.POTCAR (d86ddea03c3ceb6dc662c8ad6801f873)
REM 
CELL 1.54180   15.00000   15.00000   15.00000   90.00000   90.00000   90.00000
LATT -1
SFAC C  
C      1  0.3138040455291  0.3213961864678  0.6877615649754 1.0
C      1  0.2160059491942  0.3424312676713  0.4787918234092 1.0
C      1  0.3118278807802  0.3473871219395  0.2855044694502 1.0
C      1  0.5998168879873  0.3353022008224  0.2603342182376 1.0
C      1  0.7602586515107  0.3414537578912  0.4280880623218 1.0
C      1  0.7414249673190  0.3377152326215  0.6526488541016 1.0
C      1  0.5308804246926  0.3283861948143  0.7758569430667 1.0
C      1  0.3250257586282  0.5458578904321  0.6913378438026 1.0
C      1  0.2208666197358  0.5695663822473  0.4960767727538 1.0
C      1  0.3299585455125  0.5734356115379  0.2991052147572 1.0
C      1  0.5934185509721  0.5598459812333  0.2494158628812 1.0
C      1  0.7481040179810  0.5747234048848  0.4074594479912 1.0
C      1  0.7297002411842  0.5628897206176  0.6464057460653 1.0
C      1  0.5414501141479  0.5464575774409  0.7529738433765 1.0
C      1  0.3598988625478  0.2755840894375  0.6380229609203 1.0
C      1  0.2822208473336  0.2910578693267  0.4834797159608 1.0
C      1  0.3516396737521  0.2832472649397  0.3199490398109 1.0
C      1  0.5457963376471  0.2861345761776  0.3005915828558 1.0
C      1  0.7158157086395  0.2721711171981  0.4444554434669 1.0
C      1  0.6827549242497  0.2836216919100  0.6264241470306 1.0
C      1  0.5222223107244  0.2826100830177  0.7081494901703 1.0
C      1  0.4836386110364  0.8471471423024  0.3831321142969 1.0
C      1  0.5776568232024  0.8473260730701  0.4068350392295 1.0
C      1  0.6014461092192  0.8327344061177  0.4985195451184 1.0
C      1  0.5584953240221  0.8527961453656  0.5818530555842 1.0
C      1  0.4833781537458  0.9058307770363  0.5649328928506 1.0
C      1  0.4043009163032  0.8632194949466  0.5416747366739 1.0
C      1  0.4128360140502  0.8426720567395  0.4468248124074 1.0
C      1  0.6581851347742  0.6635918033694  0.5095520115678 1.0
C      1  0.5980690458804  0.6801669051732  0.6648939803642 1.0
C      1  0.4476873390358  0.6321185170030  0.6482703063981 1.0
C      1  0.3142556442106  0.6825839140841  0.5799827430036 1.0
C      1  0.3405368328128  0.6813249101037  0.4212777170116 1.0
C      1  0.4706579215331  0.6806923584360  0.3105620589232 1.0
C      1  0.6320343274753  0.6873289319241  0.3486509529613 1.0
C      1  0.5566159859333  0.5151588270422  0.5764592218205 1.0
C      1  0.4626154143820  0.5420147075588  0.5903063411867 1.0
C      1  0.4256289767717  0.4974375836734  0.5095246079728 1.0
C      1  0.4207175373743  0.4915791141551  0.4116903835323 1.0
C      1  0.4846463778553  0.4557566889939  0.3575889254137 1.0
C      1  0.5569799870051  0.4381335639347  0.4234558485982 1.0
C      1  0.6288404615775  0.5713376658243  0.5417740593155 1.0
C      1  0.2808771611462  0.6476761652070  0.4947426417241 1.0
C      1  0.3756911747341  0.6481485353756  0.3381866804947 1.0
C      1  0.5638665013733  0.6324632972044  0.2991898412204 1.0
C      1  0.6981088515567  0.6517859843252  0.4167511650940 1.0
C      1  0.6740741720406  0.6359191425733  0.6132936476426 1.0
C      1  0.5310828988967  0.6305014979359  0.7084177659479 1.0
C      1  0.3470414716418  0.6270774148377  0.6557843820692 1.0
C      1  0.3060038247436  0.4112669866738  0.7085566419843 1.0
C      1  0.1902186891564  0.4312122622632  0.4871328144176 1.0
C      1  0.2989204990003  0.4377707853829  0.2773136233558 1.0
C      1  0.6169603729523  0.4217889696580  0.2319706606482 1.0
C      1  0.7806961214558  0.4291598324629  0.4089348417693 1.0
C      1  0.7537844816494  0.4266308832547  0.6530755990513 1.0
C      1  0.5436049733511  0.4176302837032  0.8054397169526 1.0
C      1  0.7130448829400  0.4913446070847  0.3556552424241 1.0
C      1  0.7637133637417  0.4937804626511  0.5767607904647 1.0
C      1  0.6144210106268  0.4778136955988  0.7507555905818 1.0
C      1  0.3910610597854  0.4708121006211  0.7301245197820 1.0
C      1  0.2392139466666  0.4879976868772  0.5596303679192 1.0
C      1  0.2617002749673  0.5053545865271  0.3476931466585 1.0
C      1  0.5425131520242  0.4832216192373  0.2123730335888 1.0
C      1  0.5000839905088  0.7690073702818  0.3234875191750 1.0
C      1  0.5962362098211  0.7733270353775  0.3443612772921 1.0
C      1  0.5882405944803  0.7337998368686  0.5134801588412 1.0
C      1  0.5554708142524  0.7505803091148  0.6087869547471 1.0
C      1  0.4646626159242  0.7101228621863  0.5909068503331 1.0
C      1  0.3802009839184  0.7564209695998  0.5628445859775 1.0
C      1  0.4012551206496  0.7456347951062  0.4641731917358 1.0
C      1  0.4635820081012  0.4716412445196  0.2641990894184 1.0
C      1  0.6443196729390  0.4639198519693  0.4262551138085 1.0
C      1  0.6857331230819  0.4973580246473  0.5100528585299 1.0
C      1  0.5535946049889  0.4813126448479  0.6705165931434 1.0
C      1  0.4589026238645  0.4520911834161  0.6522766169428 1.0
C      1  0.3270145534471  0.4799292257659  0.5079829903596 1.0
C      1  0.3286649232034  0.4843524966996  0.4159643327462 1.0
C      1  0.3713562524370  0.2633419287052  0.4772208738021 1.0
C      1  0.4063404489102  0.2500654989141  0.3875409682723 1.0
C      1  0.5019373859582  0.2401153700143  0.3702428388861 1.0
C      1  0.6346819516895  0.2415458205429  0.4801661801366 1.0
C      1  0.6138197953833  0.2579567776031  0.5747692877772 1.0
C      1  0.5216898524536  0.2796946566742  0.6105887595505 1.0
C      1  0.4239547956488  0.2819829234205  0.5656668855063 1.0
C      1  0.2633585172208  0.4800548438107  0.6597606896676 1.0
C      1  0.1898552325260  0.5092981689879  0.4261769437211 1.0
C      1  0.3679815500553  0.5006470053971  0.2517682465674 1.0
C      1  0.6679022915897  0.4945078628878  0.2677633743964 1.0
C      1  0.7861735225783  0.5075098312184  0.4758996890645 1.0
C      1  0.7080213664286  0.4934212711273  0.7080853876331 1.0
C      1  0.4749956789582  0.4829831174952  0.7977368837272 1.0
C      1  0.4915006474024  0.6983809122231  0.4941760723906 1.0
C      1  0.5160243450520  0.4370558133326  0.5160604890513 1.0
C      1  0.4778923279622  0.3714034197683  0.5826388656615 1.0
C      1  0.5613255558450  0.2113139185383  0.4328926157107 1.0
END
