TITL C-67933-5371-20 -4.588 3375.00 -763.38021171 0 0 96 (C4) n - 1
REM
REM Run started: at 2020.12.04 07:22:18 in /rds/project/t2_vol4/rds-t2-cs072/BORA/CARBON/AIRSS/Generating-Clusters/Str-Search/Higher-Symm/C10-100
REM VASP from code version vasp.5.4.4.18Apr17-6-g9f103f2a35 (build Oct 11 2019 16:45:47) gamma-only
REM
REM
REM
REM
REM ./C.cell (f39ce9773e2efe3fa5bbdf770a4156b8)
REM AIRSS Version 0.9.1 bugfix July 2018 build 013d7b7c2542+ Fri, 06 Jul 2018 19:26:36 +0100
REM compiler GCC version 4.8.5 20150623 (Red Hat 4.8.5-39)
REM options -cpp -mtune=generic -march=x86-64 -g -O0
REM seed 486461403 -1535109522 -1248644016 -516505421 790558997 -1597652998 6895062 1736564187 -2013789245 -44489916 -1208755054 1962970539
REM
REM C.POTCAR (d86ddea03c3ceb6dc662c8ad6801f873)
REM 
CELL 1.54180   15.00000   15.00000   15.00000   90.00000   90.00000   90.00000
LATT -1
SFAC C  
C      1  0.5611879574667  0.6361056127943  0.4946894081639 1.0
C      1  0.3638940122891  0.5611845879214  0.4946915295129 1.0
C      1  0.4388130912120  0.3638933187171  0.4946895000300 1.0
C      1  0.6361053009391  0.4388151698407  0.4946907707755 1.0
C      1  0.5232266104411  0.3280129194826  0.5330399731627 1.0
C      1  0.6719834127445  0.5232236491729  0.5330452925855 1.0
C      1  0.4767750017540  0.6719873855387  0.5330420861092 1.0
C      1  0.3280167524826  0.4767779979101  0.5330464673183 1.0
C      1  0.5319111108306  0.5605372434446  0.4402894912907 1.0
C      1  0.4394658003274  0.5319106945934  0.4402941689228 1.0
C      1  0.4680892162545  0.4394640593608  0.4402902673195 1.0
C      1  0.5605346245314  0.4680899353271  0.4402932679272 1.0
C      1  0.5430280583135  0.8462575958177  0.4931055299705 1.0
C      1  0.1537464161192  0.5430580810293  0.4931163859789 1.0
C      1  0.4569551228723  0.1537445131440  0.4931080590467 1.0
C      1  0.8462572289705  0.4569583652826  0.4931090707292 1.0
C      1  0.4090607070875  0.4501281185325  0.7838582988431 1.0
C      1  0.5497889259045  0.4090010153540  0.7838708476120 1.0
C      1  0.5909401276376  0.5498675739381  0.7838564885057 1.0
C      1  0.4502176589071  0.5909822406697  0.7838389087877 1.0
C      1  0.5188855023984  0.7164853442388  0.3285924344187 1.0
C      1  0.2835138209657  0.5188839740874  0.3285927375149 1.0
C      1  0.4811153367498  0.2835150044822  0.3285921473045 1.0
C      1  0.7164864122507  0.4811159835650  0.3285927011116 1.0
C      1  0.5342934834337  0.6163870095309  0.7556269480953 1.0
C      1  0.3837048248815  0.5342631672558  0.7556879248846 1.0
C      1  0.4657088563235  0.3836129534096  0.7556346293880 1.0
C      1  0.6162873436200  0.4657313677836  0.7556909987409 1.0
C      1  0.6541049386005  0.7458096030800  0.5683151786123 1.0
C      1  0.2542054486868  0.6540994539700  0.5683348423564 1.0
C      1  0.3458957987389  0.2541909042832  0.5683173363594 1.0
C      1  0.7457985288763  0.3459027228265  0.5683308202125 1.0
C      1  0.5932790922267  0.5836562605183  0.2711564215509 1.0
C      1  0.4163435586942  0.5932786275143  0.2711559946102 1.0
C      1  0.4067211547103  0.4163443731729  0.2711560602767 1.0
C      1  0.5836569523980  0.4067218240473  0.2711554883520 1.0
C      1  0.6423523146896  0.6919986452450  0.4879533568473 1.0
C      1  0.3080025831102  0.6423502672211  0.4879566043840 1.0
C      1  0.3576491295302  0.3080009928750  0.4879515253638 1.0
C      1  0.6919988474875  0.3576497760301  0.4879568365421 1.0
C      1  0.3252743009549  0.5507773963205  0.6755971238664 1.0
C      1  0.4492059867145  0.3252409408223  0.6755482400383 1.0
C      1  0.6747147336394  0.4492216817281  0.6755931999538 1.0
C      1  0.5507973331115  0.6747686455915  0.6755537398782 1.0
C      1  0.3109051002805  0.6504914750443  0.6471843683229 1.0
C      1  0.3495042271397  0.3108936404363  0.6471630862464 1.0
C      1  0.6890938173031  0.3495086880910  0.6471813545693 1.0
C      1  0.6504973107927  0.6891081693077  0.6471648174161 1.0
C      1  0.4639283416011  0.8051044620428  0.4726835072858 1.0
C      1  0.1948979241197  0.4639312311332  0.4726860104725 1.0
C      1  0.5360722044567  0.1948963126044  0.4726811951070 1.0
C      1  0.8051015189576  0.5360709066569  0.4726873832910 1.0
C      1  0.3511503358415  0.6569602086034  0.2905401396797 1.0
C      1  0.3430390443616  0.3511504362811  0.2905371941370 1.0
C      1  0.6488503913562  0.3430406035961  0.2905385820288 1.0
C      1  0.6569615223118  0.6488505447180  0.2905380283628 1.0
C      1  0.8205287481519  0.3937584510892  0.5451842146373 1.0
C      1  0.6062574612517  0.8205295418868  0.5451910022255 1.0
C      1  0.1794622806137  0.6062334875137  0.5451810778690 1.0
C      1  0.3937593294550  0.1794581248125  0.5451792353131 1.0
C      1  0.4473006036700  0.7595446345364  0.3831882168749 1.0
C      1  0.2404580082394  0.4473001358423  0.3831853986589 1.0
C      1  0.5527012120412  0.2404569667917  0.3831846498503 1.0
C      1  0.7595423609026  0.5527010133239  0.3831866291781 1.0
C      1  0.5247954134745  0.6209741911013  0.5901601554884 1.0
C      1  0.3790333068163  0.5247855433034  0.5901708791293 1.0
C      1  0.4752079467323  0.3790287160513  0.5901575075599 1.0
C      1  0.6209643255520  0.4752130706562  0.5901685532156 1.0
C      1  0.2552539465340  0.4692018479231  0.6606012304908 1.0
C      1  0.5307932273863  0.2552412596726  0.6605852700456 1.0
C      1  0.7447419382215  0.5307977290013  0.6606016982516 1.0
C      1  0.4692061607537  0.7447618397273  0.6605863902885 1.0
C      1  0.2722786773138  0.3628089623157  0.3562833147221 1.0
C      1  0.6371934699260  0.2722798852106  0.3562838006440 1.0
C      1  0.7277211992272  0.6371929592002  0.3562834086689 1.0
C      1  0.3628054769660  0.7277196487112  0.3562848199947 1.0
C      1  0.5650199545627  0.2471400587748  0.5639527681258 1.0
C      1  0.7528573770002  0.5650157784953  0.5639609379327 1.0
C      1  0.4349795310039  0.7528598083145  0.5639538517832 1.0
C      1  0.2471408366700  0.4349838262804  0.5639596036185 1.0
C      1  0.6762730293823  0.7077796032797  0.4008220445205 1.0
C      1  0.2922203467077  0.6762737261298  0.4008275037061 1.0
C      1  0.3237272224711  0.2922212119672  0.4008227242528 1.0
C      1  0.7077801260360  0.3237273481358  0.4008264357658 1.0
C      1  0.6190147611098  0.2829879342692  0.6447314516755 1.0
C      1  0.7170125749472  0.6190177799093  0.6447311932833 1.0
C      1  0.3809841386257  0.7170087431754  0.6447350140163 1.0
C      1  0.2829866388527  0.3809800591289  0.6447290442376 1.0
C      1  0.3853331146009  0.2714157729806  0.3297583267216 1.0
C      1  0.7285832040703  0.3853334080129  0.3297612140933 1.0
C      1  0.6146676523029  0.7285846077818  0.3297583851797 1.0
C      1  0.2714177428464  0.6146673477680  0.3297616810402 1.0
C      1  0.4940226626042  0.3723183765319  0.2826672241861 1.0
C      1  0.6276834829164  0.4940231792144  0.2826653363576 1.0
C      1  0.5059781035082  0.6276822377388  0.2826680144661 1.0
C      1  0.3723172481519  0.5059775074542  0.2826654217567 1.0
END
