TITL C-67933-5371-22 -3.423 3375.00 -602.72445878 0 0 74 (C1) n - 1
REM
REM Run started: at 2020.12.04 07:53:20 in /rds/project/t2_vol4/rds-t2-cs072/BORA/CARBON/AIRSS/Generating-Clusters/Str-Search/Higher-Symm/C10-100
REM VASP from code version vasp.5.4.4.18Apr17-6-g9f103f2a35 (build Oct 11 2019 16:45:47) gamma-only
REM
REM
REM
REM
REM ./C.cell (f39ce9773e2efe3fa5bbdf770a4156b8)
REM AIRSS Version 0.9.1 bugfix July 2018 build 013d7b7c2542+ Fri, 06 Jul 2018 19:26:36 +0100
REM compiler GCC version 4.8.5 20150623 (Red Hat 4.8.5-39)
REM options -cpp -mtune=generic -march=x86-64 -g -O0
REM seed 1209428503 -1587509628 1066165539 755889583 -185839999 515680177 -2105550453 431801203 -834740361 2099850584 1090318603 1883518652
REM
REM C.POTCAR (d86ddea03c3ceb6dc662c8ad6801f873)
REM 
CELL 1.54180   15.00000   15.00000   15.00000   90.00000   90.00000   90.00000
LATT -1
SFAC C  
C      1  0.6319957643650  0.2649261021066  0.4029781536924 1.0
C      1  0.3945662216331  0.2648949246849  0.4020515003901 1.0
C      1  0.5787193705464  0.3719993357099  0.2810259140203 1.0
C      1  0.4080670644954  0.3660594298758  0.2718987359020 1.0
C      1  0.6553682323705  0.2745748674137  0.4975529996257 1.0
C      1  0.3650619470561  0.2648640064804  0.4993461568816 1.0
C      1  0.4261181462943  0.3409630326374  0.6668859207828 1.0
C      1  0.5664102793882  0.3598539104174  0.6436704475853 1.0
C      1  0.4167408914501  0.6149532670470  0.7507885413479 1.0
C      1  0.5838324286125  0.6098360592082  0.7604108764724 1.0
C      1  0.6624262770728  0.7318343533878  0.3295408939850 1.0
C      1  0.3898364715400  0.7330799217958  0.1807375527432 1.0
C      1  0.4045132068621  0.7054809246694  0.6138139246958 1.0
C      1  0.6220575091648  0.7108334063289  0.6316369807639 1.0
C      1  0.5794124131158  0.5336402278617  0.6951005895075 1.0
C      1  0.4200592046442  0.5334794786035  0.6926070804329 1.0
C      1  0.6526086648029  0.3992521327452  0.6165203677100 1.0
C      1  0.3517011539556  0.3882686832834  0.6244431427842 1.0
C      1  0.3221364535105  0.3460019511130  0.5384242577684 1.0
C      1  0.6888852437988  0.3592183695282  0.5336019458690 1.0
C      1  0.5938647843477  0.6972797108074  0.7211003568520 1.0
C      1  0.4213759036415  0.7013942041563  0.7064495058521 1.0
C      1  0.3758671103214  0.6045955395388  0.3990727168950 1.0
C      1  0.6400276081709  0.6528776691300  0.3970181861871 1.0
C      1  0.3463657861419  0.4853696730316  0.6383697086895 1.0
C      1  0.6556803442490  0.4929083728404  0.6373092711044 1.0
C      1  0.3183140646413  0.4723885165726  0.3351251847711 1.0
C      1  0.6588673778916  0.4936631093900  0.3379248832300 1.0
C      1  0.3074201883813  0.5414220639707  0.3998890155229 1.0
C      1  0.6761125759359  0.5640471915116  0.4009450726623 1.0
C      1  0.2833706651392  0.4056483118732  0.4731165283159 1.0
C      1  0.7157176100122  0.4246715984576  0.4671828195054 1.0
C      1  0.4467067151329  0.6950508373161  0.2324246596627 1.0
C      1  0.5912574652332  0.6822698264623  0.3108727077348 1.0
C      1  0.6955556812562  0.4106960725451  0.3749912243307 1.0
C      1  0.2920514544455  0.3889454786966  0.3766177866358 1.0
C      1  0.2854160103096  0.5034457971447  0.4867831507004 1.0
C      1  0.7056713225946  0.5207229159109  0.4833268505388 1.0
C      1  0.6809973287331  0.5561897591599  0.5676830591327 1.0
C      1  0.3152129646590  0.5458901884469  0.5694498753118 1.0
C      1  0.4667590773272  0.7708584599390  0.5708682933292 1.0
C      1  0.5737903624001  0.7860814852903  0.5918717218574 1.0
C      1  0.3620144669920  0.6368987553826  0.5614117453160 1.0
C      1  0.6390489561351  0.6459240078713  0.5654734206270 1.0
C      1  0.6450826582694  0.3366285951075  0.3431627443762 1.0
C      1  0.3443031509805  0.3207024921158  0.3363770905673 1.0
C      1  0.4319340742089  0.1972913276858  0.5153552557632 1.0
C      1  0.5865459603495  0.2049812330258  0.5198727852499 1.0
C      1  0.5581691749766  0.2015284338354  0.4243343853828 1.0
C      1  0.4639838715901  0.1926680195113  0.4225540684349 1.0
C      1  0.4498610134878  0.4474976812466  0.5051879995125 1.0
C      1  0.5507242150398  0.4374612054919  0.4808975178710 1.0
C      1  0.4046870571443  0.6412574042125  0.4768550325119 1.0
C      1  0.5854123696282  0.6716808521519  0.4816944623991 1.0
C      1  0.5780368291822  0.4690972592574  0.2915271242760 1.0
C      1  0.3954168652700  0.4629234115346  0.2797007469526 1.0
C      1  0.4951573075593  0.3285757882752  0.2822297723129 1.0
C      1  0.5052210216364  0.7276517095897  0.7507488172717 1.0
C      1  0.5005874003832  0.6096590904114  0.4650531462693 1.0
C      1  0.5099267725124  0.2085995817587  0.5723025403123 1.0
C      1  0.5409114315304  0.7605270612496  0.5056429377391 1.0
C      1  0.4582243855454  0.3373921960415  0.3734799980641 1.0
C      1  0.5015268159362  0.6595050759332  0.2952738049930 1.0
C      1  0.5110551664471  0.3779856543124  0.5476259092577 1.0
C      1  0.4981973079289  0.4798009251742  0.7167608185144 1.0
C      1  0.5052256745032  0.8435525404492  0.6276068531522 1.0
C      1  0.5048586112091  0.5259002435327  0.5271356802591 1.0
C      1  0.4797569599910  0.4275194254650  0.4107669321090 1.0
C      1  0.4827133402171  0.4962393477482  0.3263584907046 1.0
C      1  0.4988504253273  0.2967774891020  0.6076326625212 1.0
C      1  0.5028287100579  0.5442080046973  0.6268699116242 1.0
C      1  0.4969512327383  0.3893470119995  0.7053834965498 1.0
C      1  0.4981892102663  0.6353757379924  0.7956657517553 1.0
C      1  0.4694698173120  0.5904549707470  0.3621164355673 1.0
END
