TITL C-67933-5371-18 -2.35 3375.00 -373.89535772 0 0 48 (C3) n - 1
REM
REM Run started: at 2020.12.04 07:06:14 in /rds/project/t2_vol4/rds-t2-cs072/BORA/CARBON/AIRSS/Generating-Clusters/Str-Search/Higher-Symm/C10-100
REM VASP from code version vasp.5.4.4.18Apr17-6-g9f103f2a35 (build Oct 11 2019 16:45:47) gamma-only
REM
REM
REM
REM
REM ./C.cell (f39ce9773e2efe3fa5bbdf770a4156b8)
REM AIRSS Version 0.9.1 bugfix July 2018 build 013d7b7c2542+ Fri, 06 Jul 2018 19:26:36 +0100
REM compiler GCC version 4.8.5 20150623 (Red Hat 4.8.5-39)
REM options -cpp -mtune=generic -march=x86-64 -g -O0
REM seed 2095707913 682150976 -853498367 -1437446868 2067802756 1263909542 1245839594 -746828441 -1813092221 -82442036 -826618664 1660630455
REM
REM C.POTCAR (d86ddea03c3ceb6dc662c8ad6801f873)
REM 
CELL 1.54180   15.00000   15.00000   15.00000   90.00000   90.00000   90.00000
LATT -1
SFAC C  
C      1  0.3056024393694  0.3369990141219  0.5222467368365 1.0
C      1  0.6150171042530  0.3357876146728  0.6579410295408 1.0
C      1  0.5771894368264  0.3350178322150  0.3227628513017 1.0
C      1  0.3352145289575  0.6076527113681  0.4210973712997 1.0
C      1  0.5143921545624  0.6085725302410  0.6806207384600 1.0
C      1  0.6518026659714  0.6071952303839  0.3959397852814 1.0
C      1  0.4120703862732  0.5472131119822  0.2806958634727 1.0
C      1  0.3540325368392  0.5491227644897  0.6852660279217 1.0
C      1  0.7344047147991  0.5467540929672  0.5331274627499 1.0
C      1  0.5379610892757  0.7264367279791  0.4571272549106 1.0
C      1  0.4475418981249  0.7261550158352  0.4865427384913 1.0
C      1  0.5181404773049  0.7265531466341  0.5500664889720 1.0
C      1  0.4281724659620  0.5843496101298  0.7018171264879 1.0
C      1  0.7119977750924  0.5816333493340  0.4603464666993 1.0
C      1  0.3601170007355  0.5817806042469  0.3365168701942 1.0
C      1  0.4818525621971  0.3319517838013  0.3041902147741 1.0
C      1  0.3378618323994  0.3331948578843  0.6136885610113 1.0
C      1  0.6781954203642  0.3319546428541  0.5843990577571 1.0
C      1  0.7339658470342  0.4982960840325  0.6115704967986 1.0
C      1  0.4798924789320  0.4979835019629  0.2420977562378 1.0
C      1  0.2860556067353  0.4999989386510  0.6466070417093 1.0
C      1  0.2541263511926  0.5078196043094  0.5488621352467 1.0
C      1  0.6647392882993  0.5071420454391  0.6874612889108 1.0
C      1  0.5799397734181  0.5057505533182  0.2640629858485 1.0
C      1  0.5837467254154  0.4105140264057  0.2609527147759 1.0
C      1  0.2482841265033  0.4125531574688  0.5469422181757 1.0
C      1  0.6654083844230  0.4119545019539  0.6938805070648 1.0
C      1  0.4799371944323  0.4243796549144  0.6134751487056 1.0
C      1  0.6053246020810  0.4238695014892  0.4630603423523 1.0
C      1  0.4145379802914  0.4242799162500  0.4285153314346 1.0
C      1  0.7342421203359  0.4030576584157  0.6242165637944 1.0
C      1  0.4890377447370  0.4024258217912  0.2352775929133 1.0
C      1  0.2757653189535  0.4048821473249  0.6412014122826 1.0
C      1  0.6115747889612  0.3430640993114  0.4115334732591 1.0
C      1  0.3651806056609  0.3441481778409  0.4479409606959 1.0
C      1  0.5208426060916  0.3429050299631  0.6438714999987 1.0
C      1  0.5884979570586  0.6836844898146  0.3928918110983 1.0
C      1  0.3664185179386  0.6836351873084  0.4766016201018 1.0
C      1  0.5485878786028  0.6839903422410  0.6260675342682 1.0
C      1  0.4208259938906  0.3426915645514  0.3772203004737 1.0
C      1  0.4317720846672  0.3426552906184  0.6303822271095 1.0
C      1  0.6450230492611  0.3419025592943  0.4951195596240 1.0
C      1  0.5815820120482  0.6715243924990  0.2983079577435 1.0
C      1  0.2884429087537  0.6726756601708  0.5308501384611 1.0
C      1  0.6337949458285  0.6725067510787  0.6679964782360 1.0
C      1  0.6077531290888  0.5808873664834  0.6922518654883 1.0
C      1  0.6143873546017  0.5795065181910  0.3097187242729 1.0
C      1  0.2787459354543  0.5809911157662  0.4966697667557 1.0
END
