TITL C-67933-5371-26 -3.66 3375.00 -651.86920100 0 0 79 (C1) n - 1
REM
REM Run started: at 2020.12.04 08:34:36 in /rds/project/t2_vol4/rds-t2-cs072/BORA/CARBON/AIRSS/Generating-Clusters/Str-Search/Higher-Symm/C10-100
REM VASP from code version vasp.5.4.4.18Apr17-6-g9f103f2a35 (build Oct 11 2019 16:45:47) gamma-only
REM
REM
REM
REM
REM ./C.cell (f39ce9773e2efe3fa5bbdf770a4156b8)
REM AIRSS Version 0.9.1 bugfix July 2018 build 013d7b7c2542+ Fri, 06 Jul 2018 19:26:36 +0100
REM compiler GCC version 4.8.5 20150623 (Red Hat 4.8.5-39)
REM options -cpp -mtune=generic -march=x86-64 -g -O0
REM seed -1379792522 -2050257701 -911206932 -1306979466 -241347578 780343245 -2123317297 379473826 -1988469774 498652890 1885031622 -1212099438
REM
REM C.POTCAR (d86ddea03c3ceb6dc662c8ad6801f873)
REM 
CELL 1.54180   15.00000   15.00000   15.00000   90.00000   90.00000   90.00000
LATT -1
SFAC C  
C      1  0.5721090591456  0.2341901176434  0.4893009220108 1.0
C      1  0.5027927546702  0.2457874923854  0.4252877366398 1.0
C      1  0.4180351286801  0.2314958968986  0.4683377713025 1.0
C      1  0.4367319230386  0.2091153455421  0.5604450026887 1.0
C      1  0.5313522404096  0.2066968000871  0.5717869685806 1.0
C      1  0.7144655979414  0.5628406198402  0.5348624734568 1.0
C      1  0.5963957438292  0.5515876219076  0.2963370938946 1.0
C      1  0.2970134589576  0.5754243996007  0.3401657710479 1.0
C      1  0.3116376078194  0.5646589792114  0.5967685714684 1.0
C      1  0.5072588499012  0.5897190882104  0.7497887422613 1.0
C      1  0.3889973652536  0.4169699398108  0.6024028477729 1.0
C      1  0.5565101112733  0.4613405445408  0.7730555485947 1.0
C      1  0.6534055949320  0.4782811658963  0.4961220195872 1.0
C      1  0.5757601859228  0.4622518129701  0.3239223400014 1.0
C      1  0.3942447756640  0.4583218040945  0.3652649669103 1.0
C      1  0.6537987890370  0.3798344572510  0.6733845151549 1.0
C      1  0.7512201037460  0.3937795696421  0.3902929647009 1.0
C      1  0.4655079042298  0.4098334691152  0.2232275772873 1.0
C      1  0.2245474221261  0.4117802507225  0.4286309519960 1.0
C      1  0.3692191761464  0.3983536989781  0.6968073222288 1.0
C      1  0.3698657293843  0.6287855456397  0.3106123117989 1.0
C      1  0.3015312280290  0.6269275172086  0.5195569712044 1.0
C      1  0.4490586253858  0.6355388573922  0.6930227180532 1.0
C      1  0.6737502356520  0.6124986029815  0.6044452594755 1.0
C      1  0.6544177843613  0.6016527779340  0.3606747561388 1.0
C      1  0.4039287073795  0.7496932955542  0.5732797336834 1.0
C      1  0.5512262539467  0.7379688949589  0.6029568019308 1.0
C      1  0.6079163034135  0.7206211121924  0.4779410387866 1.0
C      1  0.5169881709113  0.6811367870341  0.3381233229510 1.0
C      1  0.3939064010148  0.7439145644085  0.4352340236510 1.0
C      1  0.3117743738912  0.4784806103148  0.3041033724772 1.0
C      1  0.2594130991795  0.4815465220687  0.5774087524928 1.0
C      1  0.4683486796448  0.5044267620404  0.7790254829790 1.0
C      1  0.7351750747929  0.4688049788345  0.5579584708456 1.0
C      1  0.6500044484395  0.4654402597274  0.2560551143823 1.0
C      1  0.2599027462241  0.4048604574186  0.3426325972601 1.0
C      1  0.2903040848430  0.3974016169870  0.6229137422126 1.0
C      1  0.5779509501883  0.3793412742060  0.7356368895798 1.0
C      1  0.7681472176270  0.4077136801916  0.4861390391722 1.0
C      1  0.5625714172999  0.4133113870923  0.2385845783495 1.0
C      1  0.7302169260141  0.4584344093099  0.3201842115946 1.0
C      1  0.4051919280150  0.4794947806429  0.2619841979142 1.0
C      1  0.2376094238019  0.4851138430805  0.4862118900370 1.0
C      1  0.3883746523602  0.4868474464535  0.7390426700947 1.0
C      1  0.6972270330626  0.4600884731977  0.6506053846056 1.0
C      1  0.5036235381653  0.3340526986391  0.2613494441259 1.0
C      1  0.2703302136125  0.3322865828669  0.4074764488022 1.0
C      1  0.4232203276148  0.3089421510300  0.6980620583755 1.0
C      1  0.6442544990347  0.3048336923231  0.6144020851065 1.0
C      1  0.7262397304235  0.3288373166808  0.4572834376810 1.0
C      1  0.7411348667356  0.5469951525234  0.3580144994937 1.0
C      1  0.4313222296161  0.5761169748208  0.2573664270394 1.0
C      1  0.2918240952971  0.5633617978898  0.4429941506131 1.0
C      1  0.3797027947651  0.5647708179876  0.6716233082096 1.0
C      1  0.6629907816271  0.5472921651510  0.6779137913925 1.0
C      1  0.6282353104311  0.6866929890649  0.5727859428720 1.0
C      1  0.6007093433585  0.6827080867008  0.3902274038540 1.0
C      1  0.4218776723752  0.6987096672832  0.3580778989239 1.0
C      1  0.3397113875690  0.7087653798579  0.5121380843198 1.0
C      1  0.4655269446030  0.7112878836682  0.6362231712899 1.0
C      1  0.5179365532079  0.3050202782110  0.7109439031205 1.0
C      1  0.5921871677658  0.3998252563265  0.4862551368705 1.0
C      1  0.5588996006544  0.4029615731644  0.3948033184498 1.0
C      1  0.4255767977785  0.3750591651506  0.4128493245581 1.0
C      1  0.3436213670006  0.3334532115947  0.5635569583738 1.0
C      1  0.6416293622078  0.3050867313156  0.5107916253555 1.0
C      1  0.4986562616250  0.3231958379713  0.3628932094926 1.0
C      1  0.3551221883278  0.3106192875284  0.4618825692533 1.0
C      1  0.3896955191556  0.2639839555512  0.6196511948764 1.0
C      1  0.5686057451762  0.2554622397280  0.6436469031461 1.0
C      1  0.6926750223029  0.5490424490230  0.4412163590532 1.0
C      1  0.5176186820771  0.6071905232275  0.2752649528924 1.0
C      1  0.3863635437624  0.5242591252454  0.4352340869039 1.0
C      1  0.4056437781292  0.5130979487566  0.5854493074247 1.0
C      1  0.5954839945016  0.5460010388412  0.7436248493684 1.0
C      1  0.4497442185396  0.5128864428837  0.4993609713158 1.0
C      1  0.4941898633654  0.4264848721786  0.4746600649367 1.0
C      1  0.4503539281930  0.7897615344665  0.4977676629351 1.0
C      1  0.5416544834144  0.7791506411299  0.5155800103177 1.0
END
