TITL C-6826-489-254 -3.11 3375.00 -528.42492956 0 0 65 (C1) n - 1
REM
REM Run started: at 2020.12.19 17:01:03 in /gpfs/home/chem/mssmkc/CARBON/AIRSS/Generating-Clusters/Str-Search/Higher-Symm/C4-100
REM VASP from code version vasp.5.4.4.18Apr17-6-g9f103f2a35 (build Oct 11 2019 16:45:47) gamma-only
REM
REM
REM
REM
REM ./C.cell (6bd13a13d554368a30d355f37ece5b26)
REM AIRSS Version 0.9.1 bugfix July 2018 build 013d7b7c2542+ Fri, 06 Jul 2018 19:26:36 +0100
REM compiler GCC version 6.3.0
REM options -cpp -iprefix /gpfs/warwick/csc/orac/software/Core/GCCcore/6.3.0/bin/../lib/gcc/x86_64-pc-linux-gnu/6.3.0/ -mtune=generic -march=x86-64 -g -O0
REM seed 2131951704 -424684604 823079887 861282928 -1729246149 -916662088 1060846379 1387634479 -2096140803 -322824603 142901090 -1187778058
REM
REM C.POTCAR (d86ddea03c3ceb6dc662c8ad6801f873)
REM 
CELL 1.54180   15.00000   15.00000   15.00000   90.00000   90.00000   90.00000
LATT -1
SFAC C  
C      1  0.2968818435894  0.5667942263442  0.3673526035254 1.0
C      1  0.3749406809804  0.2916499350284  0.5821165692456 1.0
C      1  0.5798385167673  0.3523257791617  0.2839574329994 1.0
C      1  0.3354121356929  0.4432661310735  0.6400554169162 1.0
C      1  0.6993697583484  0.4381160247035  0.3657344205707 1.0
C      1  0.6915938339509  0.5590111103121  0.6373159835204 1.0
C      1  0.3764137400993  0.7018163358028  0.4395609256576 1.0
C      1  0.6168375098789  0.6874487383634  0.5635289813392 1.0
C      1  0.6288484143799  0.2958601773264  0.4228160374480 1.0
C      1  0.5391453554921  0.6016005307416  0.6913828768704 1.0
C      1  0.4198001015061  0.6492390619763  0.2945089141122 1.0
C      1  0.4654357756659  0.3650827083105  0.6983585217613 1.0
C      1  0.3177053194756  0.3703131067818  0.5835082289827 1.0
C      1  0.3537286599712  0.5846043208921  0.2924999422377 1.0
C      1  0.5635486221770  0.2913296642319  0.3567038745620 1.0
C      1  0.3015901536469  0.6327807763286  0.4335203831720 1.0
C      1  0.6914317572699  0.3748963023535  0.4353260295496 1.0
C      1  0.6614727825709  0.5975860315111  0.5518689682509 1.0
C      1  0.4260410725606  0.4477872233243  0.6799362297417 1.0
C      1  0.6290049975356  0.5598854204077  0.7149736766130 1.0
C      1  0.6455004358632  0.4171676476526  0.2867309427303 1.0
C      1  0.5565771535092  0.6871664117309  0.6298415380556 1.0
C      1  0.4394758879328  0.2838703305078  0.6466831390833 1.0
C      1  0.4409752939660  0.7042753522514  0.3723743100169 1.0
C      1  0.2829971962878  0.5201051228065  0.6459420734747 1.0
C      1  0.6319727423211  0.2766711869311  0.5167571329558 1.0
C      1  0.5093713725461  0.6257356605300  0.2780640067526 1.0
C      1  0.3131860004560  0.4672383037638  0.3520964114347 1.0
C      1  0.7322471200759  0.4755443768175  0.6562553723118 1.0
C      1  0.6867044529909  0.5371392960870  0.3409268460278 1.0
C      1  0.6528540565445  0.7135751060554  0.4768972292005 1.0
C      1  0.3532815887526  0.7131473824371  0.5375663922632 1.0
C      1  0.3567647971891  0.2855084051083  0.4850631033709 1.0
C      1  0.5584241151549  0.3330763122206  0.7004692219122 1.0
C      1  0.4890855263610  0.3768534283296  0.2754755040496 1.0
C      1  0.4589500111243  0.6652528164470  0.7261595528254 1.0
C      1  0.2816042484262  0.6456790339293  0.5253888318147 1.0
C      1  0.6225777437577  0.5078989532860  0.2723418183773 1.0
C      1  0.5335139241430  0.2572189415258  0.6449141760315 1.0
C      1  0.2927237475580  0.3573597043158  0.4895934667195 1.0
C      1  0.7118254903201  0.6388053375566  0.4725817463385 1.0
C      1  0.6913669006055  0.3547039898046  0.5335985580032 1.0
C      1  0.6600388387767  0.4686173610553  0.7253921356044 1.0
C      1  0.2983091492174  0.6057311824548  0.6832285715544 1.0
C      1  0.3753333924764  0.4935102599841  0.2786420782425 1.0
C      1  0.5400087949595  0.6904996052664  0.3473644412056 1.0
C      1  0.4640962786119  0.3117059872845  0.3461607672689 1.0
C      1  0.4797544777199  0.7323637097050  0.6609347977258 1.0
C      1  0.3176819783150  0.3899352469322  0.4009695355468 1.0
C      1  0.2551211748109  0.5955404863219  0.5981313158315 1.0
C      1  0.6911614636028  0.6188149376988  0.3805785019037 1.0
C      1  0.7048750826750  0.3899599922511  0.6200275482843 1.0
C      1  0.3885408666446  0.7279294998562  0.6225028672555 1.0
C      1  0.6232340160328  0.6948959341742  0.3845697428601 1.0
C      1  0.5760355423018  0.2290519193051  0.5695162721555 1.0
C      1  0.3650910936132  0.6663258065732  0.6975764287417 1.0
C      1  0.5345306651647  0.5369787949547  0.2543516380207 1.0
C      1  0.6403015637428  0.3788745010307  0.6988765791507 1.0
C      1  0.3872315352387  0.3144940884019  0.3973796178807 1.0
C      1  0.4624141240608  0.4661069143752  0.2567399855156 1.0
C      1  0.5817420790882  0.5413810203971  0.5219456042857 1.0
C      1  0.4880314419485  0.5212357517850  0.6409287520565 1.0
C      1  0.5470223574309  0.4696533702945  0.5771486810592 1.0
C      1  0.5103171930953  0.4666673452903  0.4847976168170 1.0
C      1  0.4834051530274  0.5487788795370  0.5404526302070 1.0
END
