TITL C-6826-489-177 -3.004 3375.00 -505.67192987 0 0 63 (C3) n - 1
REM
REM Run started: at 2020.12.19 01:10:10 in /gpfs/home/chem/mssmkc/CARBON/AIRSS/Generating-Clusters/Str-Search/Higher-Symm/C4-100
REM VASP from code version vasp.5.4.4.18Apr17-6-g9f103f2a35 (build Oct 11 2019 16:45:47) gamma-only
REM
REM
REM
REM
REM ./C.cell (6bd13a13d554368a30d355f37ece5b26)
REM AIRSS Version 0.9.1 bugfix July 2018 build 013d7b7c2542+ Fri, 06 Jul 2018 19:26:36 +0100
REM compiler GCC version 6.3.0
REM options -cpp -iprefix /gpfs/warwick/csc/orac/software/Core/GCCcore/6.3.0/bin/../lib/gcc/x86_64-pc-linux-gnu/6.3.0/ -mtune=generic -march=x86-64 -g -O0
REM seed -359464266 22230703 1512424341 1920680444 -549266843 -1299293067 195896284 281740706 438376164 -161930105 -1859583746 652952414
REM
REM C.POTCAR (d86ddea03c3ceb6dc662c8ad6801f873)
REM 
CELL 1.54180   15.00000   15.00000   15.00000   90.00000   90.00000   90.00000
LATT -1
SFAC C  
C      1  0.3909016653066  0.4003146249572  0.3549134771134 1.0
C      1  0.3931760243031  0.4230662988079  0.6605882517939 1.0
C      1  0.3922453339513  0.6763532397374  0.4881147429038 1.0
C      1  0.6306503067637  0.4096244970432  0.3323732493632 1.0
C      1  0.6347282648216  0.4012814010994  0.6601434028891 1.0
C      1  0.6332922874328  0.6891620978340  0.5036123998586 1.0
C      1  0.3910697796373  0.5940787641310  0.3509866519912 1.0
C      1  0.3930327414904  0.5828348691290  0.6578477740981 1.0
C      1  0.3915654033426  0.3231632411226  0.4946314345780 1.0
C      1  0.6318787529368  0.5967542611215  0.3280809539580 1.0
C      1  0.6355788463738  0.5992472801041  0.6685802742850 1.0
C      1  0.6336331133941  0.3036505977509  0.5002919700601 1.0
C      1  0.4691101544672  0.3948211554204  0.5027913020407 1.0
C      1  0.4700578846206  0.5543647644437  0.5911050035919 1.0
C      1  0.4685751651256  0.5507433888802  0.4085078172288 1.0
C      1  0.5566402749656  0.3511576648209  0.4685375276213 1.0
C      1  0.5585110476700  0.5472491562738  0.6447351359158 1.0
C      1  0.5562771656449  0.6011440499714  0.3868003607640 1.0
C      1  0.4691943330189  0.6043216838587  0.5000148950562 1.0
C      1  0.4698189458753  0.4484265305631  0.5917232028832 1.0
C      1  0.4681071337350  0.4471838098751  0.4106577389565 1.0
C      1  0.5567172603137  0.6460063727158  0.4675030045911 1.0
C      1  0.5580807665711  0.4549136836796  0.6430387681088 1.0
C      1  0.5553397873726  0.3986122492235  0.3893118985315 1.0
C      1  0.7785683133365  0.4544013058208  0.4126017801579 1.0
C      1  0.7803943780151  0.4496596463986  0.5788490318651 1.0
C      1  0.7797694381130  0.5959363548974  0.5000251058949 1.0
C      1  0.2200746797978  0.4530833674412  0.4178003945882 1.0
C      1  0.2212213350542  0.4508189724620  0.5850261792669 1.0
C      1  0.2208466710659  0.5967490992376  0.5032611811274 1.0
C      1  0.7781346260996  0.5459533999913  0.4124994176294 1.0
C      1  0.7797522371931  0.5504142929446  0.5794144025605 1.0
C      1  0.7786309803708  0.4037427302981  0.4996698717799 1.0
C      1  0.2202040284890  0.5438714075841  0.4158452158802 1.0
C      1  0.2214031146165  0.5529283201038  0.5827864441264 1.0
C      1  0.2204559029523  0.4038183402830  0.5073717480275 1.0
C      1  0.6347479875536  0.6967275250370  0.6771351681789 1.0
C      1  0.6289610490884  0.5563520534020  0.2388158163570 1.0
C      1  0.6334879302999  0.2470165763212  0.5801494352718 1.0
C      1  0.3954737407430  0.6818005805305  0.6492009802066 1.0
C      1  0.3928945559252  0.5370100186194  0.2697397002603 1.0
C      1  0.3946002887661  0.2813367102635  0.5845575600389 1.0
C      1  0.6356768659105  0.3131916308234  0.6325212572920 1.0
C      1  0.6307005266240  0.4778610982798  0.2700263400506 1.0
C      1  0.6355331080885  0.7093617629743  0.5937177002384 1.0
C      1  0.3950480355519  0.3238932783914  0.6558854919980 1.0
C      1  0.3928182349468  0.4539670245904  0.2713624817904 1.0
C      1  0.3949731226674  0.7217442299550  0.5764081568560 1.0
C      1  0.7132361343193  0.3396889250122  0.4599947539194 1.0
C      1  0.7156867177726  0.5474500872506  0.6559860083765 1.0
C      1  0.7128690971597  0.6128764166081  0.3776609750382 1.0
C      1  0.3012320974020  0.3570898947428  0.4755827982442 1.0
C      1  0.3029114380073  0.5489757821874  0.6382099977690 1.0
C      1  0.3013213035325  0.5939513053185  0.3908005831293 1.0
C      1  0.7130879466493  0.6576966103958  0.4612504042329 1.0
C      1  0.7149800081604  0.4527710501891  0.6528284305894 1.0
C      1  0.7115907762184  0.3897377429172  0.3794171694081 1.0
C      1  0.3017438462167  0.6422378560909  0.4696189339434 1.0
C      1  0.3027118274484  0.4565564571423  0.6405991713578 1.0
C      1  0.3007133238255  0.4012096783355  0.3943874989149 1.0
C      1  0.3856155057910  0.2984033807168  0.3895223349101 1.0
C      1  0.3853242863214  0.6976827640702  0.3828921783765 1.0
C      1  0.3867515007720  0.5035566398082  0.7316870621648 1.0
END
