TITL C-6826-489-207 -1.223 3375.00 -186.00707561 0 0 24 (C2v) n - 1
REM
REM Run started: at 2020.12.19 07:38:39 in /gpfs/home/chem/mssmkc/CARBON/AIRSS/Generating-Clusters/Str-Search/Higher-Symm/C4-100
REM VASP from code version vasp.5.4.4.18Apr17-6-g9f103f2a35 (build Oct 11 2019 16:45:47) gamma-only
REM
REM
REM
REM
REM ./C.cell (6bd13a13d554368a30d355f37ece5b26)
REM AIRSS Version 0.9.1 bugfix July 2018 build 013d7b7c2542+ Fri, 06 Jul 2018 19:26:36 +0100
REM compiler GCC version 6.3.0
REM options -cpp -iprefix /gpfs/warwick/csc/orac/software/Core/GCCcore/6.3.0/bin/../lib/gcc/x86_64-pc-linux-gnu/6.3.0/ -mtune=generic -march=x86-64 -g -O0
REM seed -52254302 -851115029 -1040656502 -1553214812 -1096164159 -1528572857 1809002894 -649218091 -1834566971 -225757518 1780249255 -1463879150
REM
REM C.POTCAR (d86ddea03c3ceb6dc662c8ad6801f873)
REM 
CELL 1.54180   15.00000   15.00000   15.00000   90.00000   90.00000   90.00000
LATT -1
SFAC C  
C      1  0.3721245976741  0.3856951350462  0.5670105718696 1.0
C      1  0.6278777635147  0.3856886857796  0.5670046681827 1.0
C      1  0.6301907679608  0.2802495587415  0.6833353786746 1.0
C      1  0.3698075031478  0.2802585461715  0.6833411765117 1.0
C      1  0.4528116231831  0.7204262563682  0.3409823183315 1.0
C      1  0.5471889767373  0.7204273775820  0.3409876735693 1.0
C      1  0.3282112436951  0.6920422234789  0.4128561789974 1.0
C      1  0.6717856384597  0.6920446603851  0.4128718001775 1.0
C      1  0.3299965017888  0.3467618095865  0.6441961199123 1.0
C      1  0.6700102187252  0.3467553623611  0.6441840707287 1.0
C      1  0.4528278211568  0.2671548607405  0.6414042852158 1.0
C      1  0.5471718905984  0.2671532831853  0.6414009236939 1.0
C      1  0.5466361305967  0.6228634686461  0.3725973092699 1.0
C      1  0.4533659966090  0.6228607236449  0.3725949229608 1.0
C      1  0.4533265709495  0.3331185003189  0.5626691706798 1.0
C      1  0.5466723737227  0.3331169327549  0.5626682281365 1.0
C      1  0.6422145703655  0.4615909909339  0.5164918758062 1.0
C      1  0.3577877376644  0.4616025050254  0.5164929696052 1.0
C      1  0.6287422308386  0.6064020934846  0.4208315248853 1.0
C      1  0.3712597965728  0.6064001789837  0.4208234153652 1.0
C      1  0.6430764485498  0.5303773547560  0.4712068209081 1.0
C      1  0.3569214146308  0.5303741483405  0.4712034277233 1.0
C      1  0.3686215154270  0.7533145611299  0.3664110862907 1.0
C      1  0.6313706674316  0.7533209825547  0.3664336825040 1.0
END
