TITL C-6826-489-75 -2.776 3375.00 -477.88206045 0 0 58 (Cs) n - 1
REM
REM Run started: at 2020.12.18 06:53:06 in /gpfs/home/chem/mssmkc/CARBON/AIRSS/Generating-Clusters/Str-Search/Higher-Symm/C4-100
REM VASP from code version vasp.5.4.4.18Apr17-6-g9f103f2a35 (build Oct 11 2019 16:45:47) gamma-only
REM
REM
REM
REM
REM ./C.cell (6bd13a13d554368a30d355f37ece5b26)
REM AIRSS Version 0.9.1 bugfix July 2018 build 013d7b7c2542+ Fri, 06 Jul 2018 19:26:36 +0100
REM compiler GCC version 6.3.0
REM options -cpp -iprefix /gpfs/warwick/csc/orac/software/Core/GCCcore/6.3.0/bin/../lib/gcc/x86_64-pc-linux-gnu/6.3.0/ -mtune=generic -march=x86-64 -g -O0
REM seed 404385635 1196347085 -149667320 -798194557 2019657922 -486186131 1659895627 207720402 1906287526 1873818177 1205414713 99601779
REM
REM C.POTCAR (d86ddea03c3ceb6dc662c8ad6801f873)
REM 
CELL 1.54180   15.00000   15.00000   15.00000   90.00000   90.00000   90.00000
LATT -1
SFAC C  
C      1  0.5412167518252  0.5184852680116  0.7883225026337 1.0
C      1  0.4587826917945  0.5184847379997  0.7883213517310 1.0
C      1  0.5917946975961  0.3017589337705  0.5676287138278 1.0
C      1  0.4082053054044  0.3017587509557  0.5676283585788 1.0
C      1  0.3462176374557  0.3617176777345  0.5349941845746 1.0
C      1  0.6537820751605  0.3617180938554  0.5349945250072 1.0
C      1  0.6665856827914  0.6866978749804  0.4425977813610 1.0
C      1  0.3334144203758  0.6866976206218  0.4425975486556 1.0
C      1  0.4536132333513  0.3514533982451  0.6451991032667 1.0
C      1  0.5463869164727  0.3514531833305  0.6451994891073 1.0
C      1  0.7374208315671  0.6204890062920  0.4447532980850 1.0
C      1  0.2625791814897  0.6204888820522  0.4447531470538 1.0
C      1  0.3661460178627  0.6422796703155  0.3611231266206 1.0
C      1  0.6338540737605  0.6422799013020  0.3611234028715 1.0
C      1  0.4513004136778  0.2873096514264  0.4012264610178 1.0
C      1  0.5486999822949  0.2873107761228  0.4012273169961 1.0
C      1  0.2905261073523  0.4034266812443  0.4687236174813 1.0
C      1  0.7094735356308  0.4034270832263  0.4687237657673 1.0
C      1  0.7314543694199  0.5743492089073  0.5275567024856 1.0
C      1  0.2685454789751  0.5743491224266  0.5275565894336 1.0
C      1  0.5483249055690  0.7151322143619  0.5768225293471 1.0
C      1  0.4516749568898  0.7151322296321  0.5768224374490 1.0
C      1  0.6821418954287  0.4910904498473  0.3389688014588 1.0
C      1  0.3178582182364  0.4910901502177  0.3389687963504 1.0
C      1  0.3725215055418  0.6931609974960  0.5309537838906 1.0
C      1  0.6274784607665  0.6931610572420  0.5309540650175 1.0
C      1  0.4524902706394  0.6605509201988  0.6608898134907 1.0
C      1  0.5475094601850  0.6605508571038  0.6608899658650 1.0
C      1  0.5989385626627  0.4375392399781  0.6624595909940 1.0
C      1  0.4010616284688  0.4375390569726  0.6624589317248 1.0
C      1  0.4145040481721  0.4983618719515  0.3232689004514 1.0
C      1  0.5854961296632  0.4983620118420  0.3232689065606 1.0
C      1  0.6199405500209  0.6003049327293  0.6658601660791 1.0
C      1  0.3800591293141  0.6003049366584  0.6658596868589 1.0
C      1  0.4515641913407  0.4849348834935  0.5125048297522 1.0
C      1  0.5484357440464  0.4849352077533  0.5125052599829 1.0
C      1  0.5515492316186  0.5938543375674  0.3423365304947 1.0
C      1  0.4484508040334  0.5938543002101  0.3423360983612 1.0
C      1  0.4514473320283  0.5136016105743  0.4177161673587 1.0
C      1  0.5485529843462  0.5136020381205  0.4177163646029 1.0
C      1  0.6303769606970  0.4511888855835  0.5705071855158 1.0
C      1  0.3696233623425  0.4511885413525  0.5705066583037 1.0
C      1  0.7157822907770  0.4822578700980  0.5268896616758 1.0
C      1  0.2842175400949  0.4822576200900  0.5268891490349 1.0
C      1  0.6025339776133  0.3495238869447  0.3524268855521 1.0
C      1  0.3974664044728  0.3495235664599  0.3524268020494 1.0
C      1  0.5470476592057  0.2548771495583  0.4983899131271 1.0
C      1  0.4529525811355  0.2548769047194  0.4983898176477 1.0
C      1  0.3290751186492  0.6239375208357  0.5863979570253 1.0
C      1  0.6709246754254  0.6239375380707  0.5863982425197 1.0
C      1  0.6872889434593  0.4001278223724  0.3759986006212 1.0
C      1  0.3127112591833  0.4001275420982  0.3759984781338 1.0
C      1  0.3980941884927  0.5135798738985  0.7139633569893 1.0
C      1  0.6019053527677  0.5135798320559  0.7139641258492 1.0
C      1  0.2911667890952  0.5778455861189  0.3600221193410 1.0
C      1  0.7088332070030  0.5778458427008  0.3600222412970 1.0
C      1  0.5461734913573  0.4101625652341  0.3014979880448 1.0
C      1  0.4538267849976  0.4101624250373  0.3014980046258 1.0
END
