TITL C-6826-489-159 -3.547 3375.00 -598.09369726 0 0 74 (C1) n - 1
REM
REM Run started: at 2020.12.18 21:40:46 in /gpfs/home/chem/mssmkc/CARBON/AIRSS/Generating-Clusters/Str-Search/Higher-Symm/C4-100
REM VASP from code version vasp.5.4.4.18Apr17-6-g9f103f2a35 (build Oct 11 2019 16:45:47) gamma-only
REM
REM
REM
REM
REM ./C.cell (6bd13a13d554368a30d355f37ece5b26)
REM AIRSS Version 0.9.1 bugfix July 2018 build 013d7b7c2542+ Fri, 06 Jul 2018 19:26:36 +0100
REM compiler GCC version 6.3.0
REM options -cpp -iprefix /gpfs/warwick/csc/orac/software/Core/GCCcore/6.3.0/bin/../lib/gcc/x86_64-pc-linux-gnu/6.3.0/ -mtune=generic -march=x86-64 -g -O0
REM seed -826759310 -898157496 2102508970 -1967192416 -1871323527 260128591 1984111885 1493085498 -64896571 -1673575535 -1073458337 -973390022
REM
REM C.POTCAR (d86ddea03c3ceb6dc662c8ad6801f873)
REM 
CELL 1.54180   15.00000   15.00000   15.00000   90.00000   90.00000   90.00000
LATT -1
SFAC C  
C      1  0.4091574329861  0.3961529531114  0.4799352774707 1.0
C      1  0.4426342737547  0.4443214219232  0.6272228177398 1.0
C      1  0.5797055877670  0.3631551811577  0.5498561895247 1.0
C      1  0.6002252318501  0.3656321860434  0.4598681057725 1.0
C      1  0.4764334135045  0.4539969682729  0.4422796983316 1.0
C      1  0.4076788888090  0.6048493705385  0.4812385296268 1.0
C      1  0.4420932164130  0.5571652468957  0.6285035026500 1.0
C      1  0.5791401985130  0.6397719253168  0.5520723664576 1.0
C      1  0.5993134262875  0.6360421624427  0.4625764781580 1.0
C      1  0.4754092100364  0.5478650723905  0.4430640170431 1.0
C      1  0.6480484173151  0.8194493583501  0.5999895826465 1.0
C      1  0.6602488425537  0.8164549040825  0.4482891478041 1.0
C      1  0.5178195604497  0.8751892261007  0.3927198118519 1.0
C      1  0.4260006907870  0.8946117930190  0.4866989262014 1.0
C      1  0.4999343814221  0.8741403931295  0.6259797247089 1.0
C      1  0.6467219236026  0.1821212640422  0.5997902366490 1.0
C      1  0.6603295258936  0.1842077630364  0.4480931131044 1.0
C      1  0.5186103987421  0.1250911404252  0.3921508428456 1.0
C      1  0.4262564103668  0.1065637594430  0.4858919998542 1.0
C      1  0.4989669513623  0.1270677788968  0.6255919709136 1.0
C      1  0.7128194366541  0.5485578241789  0.6407750927105 1.0
C      1  0.6252823616086  0.5622966234248  0.2482951383143 1.0
C      1  0.3686508483889  0.5511437121120  0.2928741419467 1.0
C      1  0.2319661260956  0.5489469488724  0.4987131347011 1.0
C      1  0.4722962425270  0.5465670090043  0.7279662827995 1.0
C      1  0.7129731244533  0.4519187013276  0.6403778762701 1.0
C      1  0.6124595055562  0.4795941473910  0.2666670083436 1.0
C      1  0.3687986616002  0.4507910687957  0.2904052415500 1.0
C      1  0.2344388113413  0.4507805888993  0.4975055091945 1.0
C      1  0.4720856633801  0.4531922867041  0.7271948502525 1.0
C      1  0.7830829232146  0.5425359054021  0.5073049760843 1.0
C      1  0.4605694648072  0.5533040352764  0.2663718481013 1.0
C      1  0.2530362754911  0.5490526799941  0.4033784028005 1.0
C      1  0.2454375344252  0.5418801680545  0.6536717256535 1.0
C      1  0.6415330492927  0.5477469367037  0.7135389400327 1.0
C      1  0.7830166739610  0.4589251133105  0.5068124785405 1.0
C      1  0.4621421263736  0.4527518901209  0.2656188524417 1.0
C      1  0.2524308168674  0.4499926982817  0.4016100756459 1.0
C      1  0.2475081484659  0.4574008423050  0.6516484761008 1.0
C      1  0.6418742223383  0.4519733582740  0.7135675317159 1.0
C      1  0.5828162647078  0.1497780349430  0.6446421543167 1.0
C      1  0.6800237651137  0.2284891129117  0.5270495677716 1.0
C      1  0.6072628288399  0.1512924898203  0.3917464111346 1.0
C      1  0.3979211558361  0.2555468312231  0.4034356172061 1.0
C      1  0.4309112982905  0.1113205096217  0.5783227775773 1.0
C      1  0.5838947335593  0.8514504582114  0.6447051480646 1.0
C      1  0.6809452439514  0.7726900339604  0.5273252385870 1.0
C      1  0.6063486453033  0.8484690678537  0.3922387334386 1.0
C      1  0.3958858622920  0.7459167272759  0.4045210021631 1.0
C      1  0.4316504718383  0.8898355570739  0.5790573067989 1.0
C      1  0.5303010937105  0.3911314343361  0.6195507400467 1.0
C      1  0.6703173564853  0.3297882339147  0.5271056530357 1.0
C      1  0.5490269945432  0.4027585808526  0.3932044370250 1.0
C      1  0.3684426414951  0.3374432155529  0.4091777162080 1.0
C      1  0.3724991624598  0.4053260723856  0.5650422342302 1.0
C      1  0.5298683981076  0.6100653478398  0.6217495057920 1.0
C      1  0.6704951188728  0.6712997142310  0.5287463781476 1.0
C      1  0.5466916576165  0.6011392784514  0.3948026753859 1.0
C      1  0.3664847813701  0.6640484075644  0.4109877920818 1.0
C      1  0.3711000623900  0.5953145025205  0.5664676236818 1.0
C      1  0.2759822397547  0.5890805670724  0.5774752436265 1.0
C      1  0.5573905501243  0.5921815160019  0.7123440858683 1.0
C      1  0.7339488343069  0.5998082763309  0.5627060302993 1.0
C      1  0.5456681075064  0.5901895017199  0.2997444643551 1.0
C      1  0.3152989195204  0.5994246284750  0.3554415745860 1.0
C      1  0.2771527879042  0.4093236701853  0.5764720027617 1.0
C      1  0.5577251099471  0.4088661720421  0.7102895394094 1.0
C      1  0.7338191814378  0.4011988036118  0.5618716145304 1.0
C      1  0.5477477438523  0.4182619265201  0.2972977724043 1.0
C      1  0.3170891925015  0.4021529391906  0.3540859215378 1.0
C      1  0.4371165613880  0.8211185957369  0.4215770556318 1.0
C      1  0.4380100798298  0.1797192016605  0.4206027346735 1.0
C      1  0.4813713753773  0.9542022966015  0.4339699251439 1.0
C      1  0.4817187805069  0.0465134872563  0.4337425999244 1.0
END
