TITL C-68453-8018-30 -2.911 3375.00 -511.88009995 0 0 63 (C1) n - 1
REM
REM Run started: at 2020.12.01 07:26:31 in /rds/project/t2_vol4/rds-t2-cs072/BORA/CARBON/AIRSS/Generating-Clusters/Str-Search/Higher-Symm/C10-100
REM VASP from code version vasp.5.4.4.18Apr17-6-g9f103f2a35 (build Oct 11 2019 16:45:47) gamma-only
REM
REM
REM
REM
REM ./C.cell (f39ce9773e2efe3fa5bbdf770a4156b8)
REM AIRSS Version 0.9.1 bugfix July 2018 build 013d7b7c2542+ Fri, 06 Jul 2018 19:26:36 +0100
REM compiler GCC version 4.8.5 20150623 (Red Hat 4.8.5-39)
REM options -cpp -mtune=generic -march=x86-64 -g -O0
REM seed -1751257228 1535451734 261310160 1987291742 669277937 -1254717214 1961094422 966702991 -1102900660 -1332071740 765041598 536773628
REM
REM C.POTCAR (d86ddea03c3ceb6dc662c8ad6801f873)
REM 
CELL 1.54180   15.00000   15.00000   15.00000   90.00000   90.00000   90.00000
LATT -1
SFAC C  
C      1  0.4947564323037  0.4742428923848  0.6166607046947 1.0
C      1  0.5680515140890  0.5200841478528  0.5928235289611 1.0
C      1  0.6172778539013  0.5359923652673  0.5214778122146 1.0
C      1  0.6169582369164  0.5393634063013  0.4312941527878 1.0
C      1  0.5500333752174  0.5318683774618  0.3690560221419 1.0
C      1  0.4672968741668  0.4948047689098  0.3879110939908 1.0
C      1  0.4199354595855  0.5559066196046  0.4379728123319 1.0
C      1  0.3938623063233  0.5511095802877  0.5217926769539 1.0
C      1  0.4134121917123  0.4823630380686  0.5803271860278 1.0
C      1  0.3592790440314  0.5449554385504  0.6911533274792 1.0
C      1  0.4525712889652  0.5461749284424  0.7309005433875 1.0
C      1  0.6418473295729  0.5353954365483  0.6612972510412 1.0
C      1  0.7084703832549  0.5349705721181  0.5747916500356 1.0
C      1  0.6964798130823  0.5203250709396  0.3743998344223 1.0
C      1  0.6147504073012  0.5110489191016  0.2939032141922 1.0
C      1  0.4523852281934  0.5716628889337  0.2642646061407 1.0
C      1  0.2862012674215  0.5369091806971  0.3969939505696 1.0
C      1  0.2619444466074  0.5332699874352  0.4962788294047 1.0
C      1  0.5954917927927  0.6227922221144  0.6769455600090 1.0
C      1  0.6928423829441  0.6172018892364  0.5226581405800 1.0
C      1  0.6868391422997  0.6137381752973  0.4189356363572 1.0
C      1  0.5498033081526  0.5965797705015  0.2930882464544 1.0
C      1  0.4042217414697  0.6385166815652  0.3041082537964 1.0
C      1  0.3472367047479  0.6148881169160  0.3815055527386 1.0
C      1  0.3104786117636  0.6084531453299  0.5457553471454 1.0
C      1  0.3356354162868  0.6217367915536  0.6424091769704 1.0
C      1  0.5037798931659  0.6232807923575  0.7118659833756 1.0
C      1  0.4814049384625  0.3982023127473  0.2956349453276 1.0
C      1  0.3228565318844  0.3818499993966  0.4010629290885 1.0
C      1  0.2966889830974  0.3766984783097  0.4952064583535 1.0
C      1  0.3699669171036  0.3678589623342  0.6687869607077 1.0
C      1  0.4540153569037  0.3678797949529  0.7112589396114 1.0
C      1  0.6412351468218  0.3750538794612  0.6642952884419 1.0
C      1  0.6958865689726  0.3743328971153  0.5812317184338 1.0
C      1  0.6881298596942  0.3602877322872  0.3987697464760 1.0
C      1  0.6236250451605  0.3522877228626  0.3255892582297 1.0
C      1  0.6180429414910  0.6894704918107  0.4236638928696 1.0
C      1  0.5467111806509  0.6837883086974  0.3583005275698 1.0
C      1  0.4528869703357  0.7031273282909  0.3618461936944 1.0
C      1  0.3796011110867  0.6989917328004  0.4308263566549 1.0
C      1  0.3564357478738  0.6963258858131  0.5207086957630 1.0
C      1  0.3948821128120  0.6959035912870  0.6121347473123 1.0
C      1  0.4823452959958  0.6940000313204  0.6444086406178 1.0
C      1  0.5754032642037  0.6924142725541  0.6087055645783 1.0
C      1  0.6253222481123  0.6912389323344  0.5252512197280 1.0
C      1  0.4916969938608  0.3029800782752  0.6448246526225 1.0
C      1  0.5816817812823  0.3046553698154  0.6253766614758 1.0
C      1  0.6390285948001  0.3042503381781  0.5449747985871 1.0
C      1  0.6311999764893  0.3001973218038  0.4521595971623 1.0
C      1  0.5653010037925  0.2955049931732  0.3791801927985 1.0
C      1  0.4748094006825  0.3244526878649  0.3632851246583 1.0
C      1  0.3945197884541  0.3185676766273  0.4141555568389 1.0
C      1  0.3693702232061  0.3111634928485  0.5126381866921 1.0
C      1  0.4040719188464  0.3039491160929  0.5978390924127 1.0
C      1  0.4183952087552  0.4779153097407  0.3009497102164 1.0
C      1  0.3224751217419  0.4621498680964  0.3483904995782 1.0
C      1  0.2720143618947  0.4508339213349  0.5476660316972 1.0
C      1  0.3340649693246  0.4560444972520  0.6355123676565 1.0
C      1  0.5043224647246  0.4554559652946  0.7157709535111 1.0
C      1  0.6109000652871  0.4509351539320  0.7084710472419 1.0
C      1  0.7333880559412  0.4466555245198  0.5312845666870 1.0
C      1  0.7283727557131  0.4388923226954  0.4305965538730 1.0
C      1  0.5771049482721  0.4180497043023  0.2786713286275 1.0
END
