TITL C-68453-8018-17 -1.176 3375.00 -178.68685824 0 0 23 (C1) n - 1
REM
REM Run started: at 2020.12.01 02:02:02 in /rds/project/t2_vol4/rds-t2-cs072/BORA/CARBON/AIRSS/Generating-Clusters/Str-Search/Higher-Symm/C10-100
REM VASP from code version vasp.5.4.4.18Apr17-6-g9f103f2a35 (build Oct 11 2019 16:45:47) gamma-only
REM
REM
REM
REM
REM ./C.cell (f39ce9773e2efe3fa5bbdf770a4156b8)
REM AIRSS Version 0.9.1 bugfix July 2018 build 013d7b7c2542+ Fri, 06 Jul 2018 19:26:36 +0100
REM compiler GCC version 4.8.5 20150623 (Red Hat 4.8.5-39)
REM options -cpp -mtune=generic -march=x86-64 -g -O0
REM seed 1529714640 1702703236 254165792 -1720365533 -1550642621 519024946 1670852375 269270431 1614548433 -1038204965 -1896959617 -253225881
REM
REM C.POTCAR (d86ddea03c3ceb6dc662c8ad6801f873)
REM 
CELL 1.54180   15.00000   15.00000   15.00000   90.00000   90.00000   90.00000
LATT -1
SFAC C  
C      1  0.6223483775595  0.4666536340924  0.3539239979639 1.0
C      1  0.5740776645757  0.4536238985905  0.6227423992517 1.0
C      1  0.4996862714728  0.6524669861181  0.5330610899992 1.0
C      1  0.3846364746497  0.5439078431218  0.5989794837271 1.0
C      1  0.3332692607112  0.4840735352940  0.5442471120658 1.0
C      1  0.5555069501217  0.5466687203610  0.6065079704434 1.0
C      1  0.5893122163486  0.6076752752253  0.5389503895837 1.0
C      1  0.4195813843777  0.3990869838588  0.6773033105938 1.0
C      1  0.4031851997741  0.4844074992850  0.3876920405495 1.0
C      1  0.6341358785391  0.3643984438264  0.4866149581902 1.0
C      1  0.6357673142661  0.5820135833266  0.4650153511347 1.0
C      1  0.6222902986714  0.4059965202127  0.5578899902360 1.0
C      1  0.6442671767859  0.5468947597254  0.3890312455181 1.0
C      1  0.6188993045210  0.3810879830479  0.3978732459835 1.0
C      1  0.4651064739050  0.5903374244863  0.5984665078098 1.0
C      1  0.4626376784945  0.7096412915596  0.4739662711794 1.0
C      1  0.3643558072976  0.4557300361216  0.6267838654819 1.0
C      1  0.5492456406584  0.4074785745138  0.3410486630870 1.0
C      1  0.5010508655833  0.4095927421108  0.6619569804325 1.0
C      1  0.4239831758540  0.7506412948967  0.4096812859725 1.0
C      1  0.3421930611453  0.4553980622689  0.4547439827340 1.0
C      1  0.4562971917622  0.4152482075439  0.3519904703054 1.0
C      1  0.3981659329254  0.3869764004127  0.4215293877569 1.0
END
