TITL C-68134-4351-21 -4.388 3375.00 -754.18528899 0 0 93 (C1) n - 1
REM
REM Run started: at 2020.12.28 08:07:25 in /rds/project/t2_vol4/rds-t2-cs072/BORA/CARBON/AIRSS/Generating-Clusters/Str-Search/Higher-Symm/C10-100
REM VASP from code version vasp.5.4.4.18Apr17-6-g9f103f2a35 (build Oct 11 2019 16:45:47) gamma-only
REM
REM
REM
REM
REM ./C.cell (f39ce9773e2efe3fa5bbdf770a4156b8)
REM AIRSS Version 0.9.1 bugfix July 2018 build 013d7b7c2542+ Fri, 06 Jul 2018 19:26:36 +0100
REM compiler GCC version 4.8.5 20150623 (Red Hat 4.8.5-39)
REM options -cpp -mtune=generic -march=x86-64 -g -O0
REM seed 1279578348 -448914179 1046105195 1426407824 570148746 -1488418989 -524491817 726866782 1205543002 -861851246 2121244010 -1426001346
REM
REM C.POTCAR (d86ddea03c3ceb6dc662c8ad6801f873)
REM 
CELL 1.54180   15.00000   15.00000   15.00000   90.00000   90.00000   90.00000
LATT -1
SFAC C  
C      1  0.6639997745742  0.4492956797278  0.2719600371955 1.0
C      1  0.7316539197394  0.7016962400092  0.4293951968756 1.0
C      1  0.6742035794172  0.5567533025000  0.7265002159614 1.0
C      1  0.6884310039239  0.3018955375233  0.5507229191614 1.0
C      1  0.3113743711117  0.4341813526603  0.2722588236293 1.0
C      1  0.2963627359067  0.6937838233595  0.4373778915158 1.0
C      1  0.3154446815626  0.5476964372008  0.7174483743909 1.0
C      1  0.3061587704524  0.2871154465131  0.5499785669436 1.0
C      1  0.6275809926713  0.2438667770031  0.4940194371654 1.0
C      1  0.6025534298970  0.5088042398447  0.2193475746650 1.0
C      1  0.6958721087396  0.7513321311492  0.5057903930641 1.0
C      1  0.6099925853047  0.5002399539901  0.7802685212880 1.0
C      1  0.3670138122341  0.2334453699217  0.4912896856662 1.0
C      1  0.3639834450302  0.4961329649366  0.2119316924047 1.0
C      1  0.3306088721818  0.7542924021526  0.5068831674568 1.0
C      1  0.3747239857239  0.4922181967990  0.7740740483691 1.0
C      1  0.6012974896609  0.5825951404594  0.4131963636588 1.0
C      1  0.6091346141164  0.6121258377873  0.5768403132496 1.0
C      1  0.5971631582735  0.4324472302862  0.6073212839742 1.0
C      1  0.6002474671466  0.4106494119030  0.4267573565285 1.0
C      1  0.3891752728994  0.5480618588274  0.3780736725577 1.0
C      1  0.4124219609652  0.6017484263249  0.5536187438820 1.0
C      1  0.4091489152405  0.4301878556876  0.5794883317109 1.0
C      1  0.4074422333156  0.3927294358322  0.4235004874231 1.0
C      1  0.5616029089362  0.3550585571458  0.1989476862674 1.0
C      1  0.5874202322467  0.7786848805913  0.3736779104201 1.0
C      1  0.5611506357170  0.6512855613377  0.7822474569800 1.0
C      1  0.5736761999311  0.2306049224982  0.6390323242531 1.0
C      1  0.4202385034505  0.3468259350786  0.1974670373214 1.0
C      1  0.4292974526402  0.7633998745717  0.3777361078874 1.0
C      1  0.4134149276295  0.6489549480848  0.7767623682978 1.0
C      1  0.4253710735298  0.2395256190311  0.6420099927945 1.0
C      1  0.3083184663513  0.4234962093418  0.4412828332336 1.0
C      1  0.3011367469731  0.5254883956614  0.4197373104488 1.0
C      1  0.3103006733947  0.6014742597223  0.5731561199706 1.0
C      1  0.3123398793595  0.4299655585850  0.6057266869091 1.0
C      1  0.6998443564216  0.4420839538216  0.4330606620869 1.0
C      1  0.6965998936964  0.5474849929586  0.4526993295477 1.0
C      1  0.6933623258376  0.5579158177298  0.5600077914325 1.0
C      1  0.6931212836215  0.4565608612067  0.5897994360074 1.0
C      1  0.3541455046878  0.7058835704468  0.3587553762953 1.0
C      1  0.3337469953202  0.6427473984350  0.7246912079617 1.0
C      1  0.3392679073865  0.2809455098029  0.6424990249065 1.0
C      1  0.3581370301519  0.3494336754141  0.2676533960121 1.0
C      1  0.6603085661729  0.7167771576794  0.3587667614553 1.0
C      1  0.6395479503894  0.6476482914429  0.7305330088288 1.0
C      1  0.6502389417461  0.2901854870513  0.6406835167962 1.0
C      1  0.6230417503922  0.3628032618337  0.2701713199338 1.0
C      1  0.3640220313369  0.5838651739738  0.2329904542914 1.0
C      1  0.3081606613789  0.7596732231430  0.5939480108228 1.0
C      1  0.3679063693997  0.4010907435597  0.7637059916220 1.0
C      1  0.3620925155171  0.2401164209006  0.4029748754144 1.0
C      1  0.6058778857550  0.5940580308982  0.2479816011883 1.0
C      1  0.6977491427624  0.7432588273788  0.5952972266268 1.0
C      1  0.6119658215850  0.4109291186620  0.7652893079874 1.0
C      1  0.6237730658394  0.2568860095506  0.4055471185068 1.0
C      1  0.3747786266247  0.6223129629616  0.3121331191820 1.0
C      1  0.3075772862096  0.6826919144829  0.6404064353755 1.0
C      1  0.3325367135862  0.3655807835222  0.6864547675812 1.0
C      1  0.3801104640201  0.3122569719516  0.3558836040262 1.0
C      1  0.6244895872425  0.6307186474458  0.3262959902804 1.0
C      1  0.6462560484414  0.6874048414733  0.6418231600093 1.0
C      1  0.6217778780846  0.3706707424669  0.6875740207167 1.0
C      1  0.6101114786713  0.3305219731814  0.3602656062883 1.0
C      1  0.2700676125080  0.4551904469662  0.3540636863852 1.0
C      1  0.2779455080106  0.6082810547639  0.4752470701283 1.0
C      1  0.2916582912234  0.5224911611158  0.6322947549543 1.0
C      1  0.2813068466966  0.3747971188877  0.5271072901599 1.0
C      1  0.7293180241758  0.4567537107952  0.3367879510611 1.0
C      1  0.7662141726166  0.6149925687506  0.4409408186479 1.0
C      1  0.7239970542951  0.5276187310000  0.6503684794781 1.0
C      1  0.7227302063438  0.3881656730259  0.5222043396803 1.0
C      1  0.6081567516504  0.7403038097627  0.4607549204399 1.0
C      1  0.5368825936887  0.5580898390755  0.8079635028075 1.0
C      1  0.5513693706031  0.2181232961648  0.5470612907684 1.0
C      1  0.5327969059694  0.4503159989627  0.1805058178469 1.0
C      1  0.4241874094874  0.7481247382174  0.4792042149717 1.0
C      1  0.4424234559554  0.5548862334451  0.8028659603953 1.0
C      1  0.4529552997127  0.2469519560888  0.5430452629166 1.0
C      1  0.4388011188016  0.4439942568116  0.1766273572139 1.0
C      1  0.5445624050748  0.4988693940166  0.4128786824393 1.0
C      1  0.5654234343712  0.6516464642290  0.4906980946087 1.0
C      1  0.5538874970585  0.5269937643442  0.5983339168845 1.0
C      1  0.5501888728969  0.3981588201396  0.5188905682784 1.0
C      1  0.4500511626805  0.4803044146080  0.3859062302029 1.0
C      1  0.4655421643194  0.6679592430212  0.5118343208221 1.0
C      1  0.4544989688804  0.5163738709093  0.5737175509885 1.0
C      1  0.4553640764876  0.3612090213207  0.5179060324739 1.0
C      1  0.4977970525537  0.2283995794952  0.6966716765012 1.0
C      1  0.4950178828365  0.2902324744354  0.1931542980062 1.0
C      1  0.5058866593138  0.7819826930320  0.3315930100940 1.0
C      1  0.4859362978047  0.7088747749809  0.7758728159114 1.0
C      1  0.5263517414569  0.4927346542097  0.5097432302290 1.0
END
