TITL C-68979-3049-2 -8.397 3375.00 -1465.73171513 0 0 180 (C1) n - 1
REM
REM Run started: at 2020.12.24 12:39:22 in /rds/project/t2_vol4/rds-t2-cs072/BORA/CARBON/AIRSS/Generating-Clusters/Str-Search/Higher-Symm/Only-C180
REM VASP from code version vasp.5.4.4.18Apr17-6-g9f103f2a35 (build Oct 11 2019 16:45:47) gamma-only
REM
REM
REM
REM
REM ./C.cell (f712cfaf3acf65fd2d5dcba0fd1fd40b)
REM AIRSS Version 0.9.1 bugfix July 2018 build 013d7b7c2542+ Fri, 06 Jul 2018 19:26:36 +0100
REM compiler GCC version 4.8.5 20150623 (Red Hat 4.8.5-39)
REM options -cpp -mtune=generic -march=x86-64 -g -O0
REM seed -1706651511 1914996431 -782514393 1733497649 2107794233 -556038836 -1601623328 1420289741 1735957240 -1411763325 -1627684513 -511156239
REM
REM C.POTCAR (d86ddea03c3ceb6dc662c8ad6801f873)
REM 
CELL 1.54180   15.00000   15.00000   15.00000   90.00000   90.00000   90.00000
LATT -1
SFAC C  
C      1  0.4676961420929  0.6839615595017  0.3510343891455 1.0
C      1  0.6632935484984  0.5679271499932  0.3912506190634 1.0
C      1  0.6269838820412  0.4012743648932  0.3698855784380 1.0
C      1  0.4530265414166  0.3604476320805  0.3341735634586 1.0
C      1  0.3427897024347  0.5708764571625  0.3145393312596 1.0
C      1  0.1593374289273  0.3842968601954  0.3585422567649 1.0
C      1  0.2883397581158  0.7922158032769  0.3936010298146 1.0
C      1  0.7125642883615  0.8144934685531  0.4299571348801 1.0
C      1  0.8415175781832  0.4020558988153  0.4312409366941 1.0
C      1  0.5154827613310  0.1379705819825  0.3946798457922 1.0
C      1  0.6446391240658  0.1896257863666  0.5019836103756 1.0
C      1  0.2348781619444  0.2585194385249  0.4542936770216 1.0
C      1  0.1996510088894  0.6734662091430  0.4725167181329 1.0
C      1  0.5586420316906  0.8464576407285  0.5127594841681 1.0
C      1  0.8391032465892  0.5438571086209  0.5170245778486 1.0
C      1  0.2939318055347  0.2607012784956  0.7854062235818 1.0
C      1  0.2486366812033  0.6006910647114  0.7809828791321 1.0
C      1  0.5150458927278  0.7896593369754  0.8373384676084 1.0
C      1  0.7516841887956  0.5366151884419  0.8171506379975 1.0
C      1  0.6086327628398  0.2357502194333  0.8238904581148 1.0
C      1  0.3424126242051  0.7461829360814  0.2197156044925 1.0
C      1  0.6887215770815  0.7499570079737  0.2724182936960 1.0
C      1  0.7901349087745  0.4186501127030  0.2639211082633 1.0
C      1  0.5167793906909  0.2100162642949  0.2461888453533 1.0
C      1  0.2388470268764  0.4111792760380  0.2184450558241 1.0
C      1  0.1339291272795  0.4704883218593  0.3635331130452 1.0
C      1  0.3562028840806  0.8479772542923  0.4011253412631 1.0
C      1  0.7889317694314  0.7661728756362  0.4395686932692 1.0
C      1  0.8203843296836  0.3162782761326  0.4235652990670 1.0
C      1  0.4245588436413  0.1383024979151  0.3876437680259 1.0
C      1  0.6545204808987  0.2011463697959  0.3279561498422 1.0
C      1  0.2630144317590  0.2691948729366  0.2873570717970 1.0
C      1  0.2229928861068  0.6620737096262  0.2991520829778 1.0
C      1  0.5696145556402  0.8307374032745  0.3420700856067 1.0
C      1  0.8260243793117  0.5547808614663  0.3454925486552 1.0
C      1  0.5474732825552  0.8339388510989  0.6889092988995 1.0
C      1  0.8236516836515  0.5490791734909  0.6817021780708 1.0
C      1  0.6279140390311  0.1930992134950  0.6719094156493 1.0
C      1  0.2426508747028  0.2472706989655  0.6326380181374 1.0
C      1  0.2171988779955  0.6350333710846  0.6338463117320 1.0
C      1  0.4025622576469  0.1715501965682  0.7020028214455 1.0
C      1  0.1939643916226  0.4666382827756  0.6868336587030 1.0
C      1  0.3936555226832  0.7980828932729  0.7125744267574 1.0
C      1  0.7205756399013  0.6868693901870  0.7399553372742 1.0
C      1  0.7365173773183  0.2968787288453  0.7221809723496 1.0
C      1  0.6596082937003  0.5031037942672  0.5492011073659 1.0
C      1  0.5733764977083  0.3455642889707  0.5045596246734 1.0
C      1  0.3719315889372  0.3762453241197  0.4590935125280 1.0
C      1  0.3394627890453  0.5724986753043  0.4716475767977 1.0
C      1  0.5288069198148  0.6774266975310  0.4937264087582 1.0
C      1  0.7570378699147  0.4946390086030  0.2183566350457 1.0
C      1  0.5744236391495  0.2892286993410  0.2373584627469 1.0
C      1  0.3302458799469  0.3806252361911  0.1985275950389 1.0
C      1  0.3340050171626  0.6617885067729  0.1784843842300 1.0
C      1  0.5957254312138  0.7268136749987  0.2422138331716 1.0
C      1  0.4772408727339  0.8150539569298  0.7571646508284 1.0
C      1  0.7659104507352  0.6024500712298  0.7498284725607 1.0
C      1  0.6667786501296  0.2402022952715  0.7510403644369 1.0
C      1  0.3165550877258  0.2152934272853  0.7077520989969 1.0
C      1  0.2140249455732  0.5603905289770  0.7020278105466 1.0
C      1  0.4873168924924  0.5472126970040  0.7951605554976 1.0
C      1  0.5734211743794  0.5109652576911  0.8366497426170 1.0
C      1  0.5528841525210  0.4458628362942  0.9069638833770 1.0
C      1  0.4582357400239  0.4337361278430  0.9234810035147 1.0
C      1  0.4179030770893  0.4972902237180  0.8604328087624 1.0
C      1  0.7380397242456  0.2873225789800  0.4342508862303 1.0
C      1  0.3744551547809  0.2116890861698  0.3896524138983 1.0
C      1  0.1878207308717  0.5376743914785  0.3830015721807 1.0
C      1  0.4354640227558  0.8217758892856  0.4291840008592 1.0
C      1  0.7832853161251  0.6773392859478  0.4360162091120 1.0
C      1  0.7760106868248  0.5809604322719  0.2621615813429 1.0
C      1  0.6712016114724  0.2774760965910  0.2551864954401 1.0
C      1  0.3463675669781  0.2864544474578  0.2281039492249 1.0
C      1  0.2784782494415  0.5943118442820  0.2318690242013 1.0
C      1  0.5206844273688  0.7909725384294  0.2260643509421 1.0
C      1  0.5574545574586  0.4974256226949  0.6472726638864 1.0
C      1  0.5173645395924  0.4059658964659  0.6566182321702 1.0
C      1  0.4207633106578  0.4178154347607  0.6582035745027 1.0
C      1  0.4048924529083  0.5085419609094  0.6491249951406 1.0
C      1  0.4858067705518  0.5595061477074  0.6906202848487 1.0
C      1  0.5535284363879  0.3291072718629  0.3322706391563 1.0
C      1  0.3637005608477  0.3712878294544  0.2935507032129 1.0
C      1  0.3619437988149  0.6667825350671  0.3442799225305 1.0
C      1  0.5582213534193  0.7301826003164  0.3422972015766 1.0
C      1  0.7069216009189  0.4768751550414  0.3859449380409 1.0
C      1  0.3369184842873  0.7424958218614  0.5757159910863 1.0
C      1  0.6450936924396  0.7221650958173  0.5819101449274 1.0
C      1  0.7919722657553  0.3896536651153  0.6040816531260 1.0
C      1  0.4688958545306  0.1975975823559  0.5479180633710 1.0
C      1  0.2342549444076  0.4047537504713  0.5272922108388 1.0
C      1  0.5763862909461  0.5717669541744  0.1640970254711 1.0
C      1  0.5961181307011  0.4740404610212  0.1624573191869 1.0
C      1  0.5118826315310  0.4235716551905  0.1502058386588 1.0
C      1  0.4410292040762  0.4913365205850  0.1127976928732 1.0
C      1  0.4812904336480  0.5839488406381  0.1422488031493 1.0
C      1  0.6608425290845  0.7514184416604  0.7929564337726 1.0
C      1  0.7603241978446  0.3915440322068  0.7524641920062 1.0
C      1  0.4826697240037  0.1695585850935  0.7587862258796 1.0
C      1  0.2043312259054  0.3806779989930  0.7387587506375 1.0
C      1  0.3174528054543  0.7393331652926  0.7321850381727 1.0
C      1  0.5443679160449  0.1502073667887  0.6822756393007 1.0
C      1  0.1879239172347  0.3236273046366  0.6598574208150 1.0
C      1  0.2760481357831  0.7120996351871  0.6499053885867 1.0
C      1  0.6367541368984  0.8061046031535  0.7124932848693 1.0
C      1  0.8222590110820  0.4443298932508  0.6868019880192 1.0
C      1  0.6894580984087  0.2063412424962  0.4179718534853 1.0
C      1  0.2775177816500  0.2272799926422  0.3706311580301 1.0
C      1  0.1846308094967  0.6358654489759  0.3798778346749 1.0
C      1  0.5231070005168  0.8616466456371  0.4278766963291 1.0
C      1  0.8370085673440  0.5945659588416  0.4308131629489 1.0
C      1  0.8445662715197  0.5828153972636  0.5994576617803 1.0
C      1  0.6793659477325  0.2209898297568  0.5904180670776 1.0
C      1  0.2421953295738  0.2289815997667  0.5405175045421 1.0
C      1  0.1772482572604  0.6280557077417  0.5483259307640 1.0
C      1  0.5036380793249  0.8341370155837  0.5995155230003 1.0
C      1  0.6882485185990  0.6476733844592  0.4237974774084 1.0
C      1  0.6653850619419  0.3606767778543  0.4583078732384 1.0
C      1  0.4267249628548  0.3001222903369  0.4137851218456 1.0
C      1  0.2910939610657  0.5168723121349  0.3907746296702 1.0
C      1  0.4469071399129  0.7151842296117  0.4463391369475 1.0
C      1  0.5560530466180  0.6906681171641  0.5876232619097 1.0
C      1  0.7249247206331  0.4347836238225  0.6686589945576 1.0
C      1  0.4507953425402  0.2882090402060  0.5828471726526 1.0
C      1  0.3205420165397  0.3747860316142  0.5415141888174 1.0
C      1  0.3985494895880  0.6567609004789  0.6000108030672 1.0
C      1  0.2699975363451  0.5026980538380  0.1865990447663 1.0
C      1  0.4411255414601  0.7528820839326  0.1971131885185 1.0
C      1  0.7171389582893  0.6565778047647  0.2417063232915 1.0
C      1  0.7173148253671  0.3571647707122  0.2327373720734 1.0
C      1  0.4425386669332  0.2591736533823  0.2062166445480 1.0
C      1  0.7103325985747  0.4491143325888  0.4838513793546 1.0
C      1  0.5269871487740  0.2851232687741  0.4345424003070 1.0
C      1  0.3091182837321  0.4094896960420  0.3870981831522 1.0
C      1  0.3551705571293  0.6685730874575  0.4434046232034 1.0
C      1  0.6079199936875  0.7069610238789  0.4348610028726 1.0
C      1  0.5663400373765  0.5563791569398  0.3953617311028 1.0
C      1  0.5558909606456  0.4611207806198  0.3971802678702 1.0
C      1  0.4641038651750  0.4515090112028  0.3648263965591 1.0
C      1  0.4347148394341  0.5306333480918  0.3148598434694 1.0
C      1  0.4963274058038  0.5924844359755  0.3379431622626 1.0
C      1  0.4175938229104  0.5599897957620  0.9349661693433 1.0
C      1  0.4859138294644  0.6051859617274  0.8819242280680 1.0
C      1  0.5696949108756  0.5693972067057  0.9154054597991 1.0
C      1  0.5584449886806  0.5038271977360  0.9861692563919 1.0
C      1  0.4584806875530  0.4968106942871  0.0090250361297 1.0
C      1  0.6891755038404  0.7403293645373  0.6639030235130 1.0
C      1  0.7486118361191  0.2894311721500  0.6259732722059 1.0
C      1  0.4627729500444  0.1489641796891  0.6261545563405 1.0
C      1  0.1832154106702  0.4082210392509  0.6088980473387 1.0
C      1  0.4066270210178  0.8116603774757  0.6177297296214 1.0
C      1  0.5339951225154  0.4344491705991  0.4904232519803 1.0
C      1  0.4388789856845  0.4474382044396  0.4657690692828 1.0
C      1  0.4272332833313  0.5392357727582  0.4920430300822 1.0
C      1  0.5193849919671  0.5796033096599  0.4855739872126 1.0
C      1  0.5632856144110  0.5123652341513  0.5448713325023 1.0
C      1  0.6797007009140  0.4407413490090  0.1866311377369 1.0
C      1  0.5048850462442  0.3350492970115  0.1779104226272 1.0
C      1  0.3491643871794  0.4657369358378  0.1485138749737 1.0
C      1  0.4292138427240  0.6590370051259  0.1544724627589 1.0
C      1  0.6282104508218  0.6407888915873  0.2013151439097 1.0
C      1  0.8065974294914  0.4438793238379  0.5155169561339 1.0
C      1  0.5442405469416  0.1877408576340  0.4788296952554 1.0
C      1  0.2196877818552  0.3617990485924  0.4351006595153 1.0
C      1  0.2839604330060  0.7311165648035  0.4777883236516 1.0
C      1  0.6404019928863  0.7874990840198  0.4989911134748 1.0
C      1  0.5937186847449  0.7622942926017  0.8539980499070 1.0
C      1  0.7512090110207  0.4538771043430  0.8274291692384 1.0
C      1  0.5295418909803  0.2076896602863  0.8292266098707 1.0
C      1  0.2526083961163  0.3330834072000  0.8004071576696 1.0
C      1  0.2911008558770  0.6722010857919  0.7928757029645 1.0
C      1  0.5658415126818  0.1595663332645  0.3142997427642 1.0
C      1  0.1989952392770  0.3478029947926  0.2752775527431 1.0
C      1  0.2932392724577  0.7348657501636  0.3078866706448 1.0
C      1  0.6741895527310  0.8184648528399  0.3387486887788 1.0
C      1  0.8084844813931  0.4560434220351  0.3530828184036 1.0
C      1  0.6585364120277  0.4930774738562  0.6396363385184 1.0
C      1  0.5344578376823  0.3342860466149  0.5986857878180 1.0
C      1  0.3794708088854  0.3458623375408  0.6112448220114 1.0
C      1  0.3699776957124  0.5648865278445  0.5743697783185 1.0
C      1  0.4830500830849  0.6508694831302  0.6440565601711 1.0
END
