TITL C-68302-2133-15 -2.955 3375.00 -491.66570012 0 0 60 (C1) n - 1
REM
REM Run started: at 2020.12.15 06:53:18 in /rds/project/t2_vol4/rds-t2-cs072/BORA/CARBON/AIRSS/Generating-Clusters/Str-Search/Higher-Symm/Only-C60
REM VASP from code version vasp.5.4.4.18Apr17-6-g9f103f2a35 (build Oct 11 2019 16:45:47) gamma-only
REM
REM
REM
REM
REM ./C.cell (5f7b7a0d59291d2373303da1f58b8d66)
REM AIRSS Version 0.9.1 bugfix July 2018 build 013d7b7c2542+ Fri, 06 Jul 2018 19:26:36 +0100
REM compiler GCC version 4.8.5 20150623 (Red Hat 4.8.5-39)
REM options -cpp -mtune=generic -march=x86-64 -g -O0
REM seed 1486571362 -675820840 -2028597763 2049692066 1648635210 -596369766 692151851 585786803 46606771 2072606029 -1181390597 1443221054
REM
REM C.POTCAR (d86ddea03c3ceb6dc662c8ad6801f873)
REM 
CELL 1.54180   15.00000   15.00000   15.00000   90.00000   90.00000   90.00000
LATT -1
SFAC C  
C      1  0.3767795456729  0.5724400541350  0.2648117598420 1.0
C      1  0.4407648020182  0.3810709446950  0.3026473913608 1.0
C      1  0.2155862480357  0.4141168911362  0.6474699900929 1.0
C      1  0.4503408553296  0.3269712649478  0.3763639707654 1.0
C      1  0.6586616993405  0.5918219944662  0.6070562831467 1.0
C      1  0.5143153716180  0.6733964191061  0.3463938566376 1.0
C      1  0.6107544225546  0.3750052529919  0.4304715761879 1.0
C      1  0.4216850057446  0.7124866904443  0.4701663350048 1.0
C      1  0.6552705644288  0.6674899273708  0.4600827671077 1.0
C      1  0.4632598629157  0.5399337179761  0.2567015088455 1.0
C      1  0.6204550081666  0.4051280991628  0.5306289904512 1.0
C      1  0.6423561805546  0.6739482376439  0.5582970283166 1.0
C      1  0.2892410930864  0.4726850187381  0.6577315303097 1.0
C      1  0.2697526249109  0.5002393850153  0.3809722186861 1.0
C      1  0.6857713205801  0.3857515461299  0.6776067434130 1.0
C      1  0.3865684084266  0.3370367346773  0.6181107471262 1.0
C      1  0.5326248127388  0.6031515404157  0.2829289311448 1.0
C      1  0.3080726355406  0.5309160573566  0.4651649352303 1.0
C      1  0.3561381023677  0.6422989447646  0.3253781061710 1.0
C      1  0.7051044690249  0.4306894406385  0.5872673668289 1.0
C      1  0.4334126335882  0.5358642518354  0.6933895147900 1.0
C      1  0.3001635517888  0.5643589056464  0.3183238232698 1.0
C      1  0.3774205633675  0.3071532374763  0.4424001747349 1.0
C      1  0.5344607021997  0.3123479437649  0.6717834751803 1.0
C      1  0.5008686659450  0.5991778914680  0.6613839116850 1.0
C      1  0.2938667018523  0.3428674134369  0.4232686724050 1.0
C      1  0.6229294817562  0.3102887825769  0.6635882182969 1.0
C      1  0.3056785987753  0.3853494461803  0.6323704851001 1.0
C      1  0.6507440600121  0.4200502334126  0.3575542764151 1.0
C      1  0.3459101848145  0.5506031006854  0.6630545024047 1.0
C      1  0.5135742463063  0.7272927248141  0.4925808103188 1.0
C      1  0.4713465097277  0.4489652285854  0.7248986906747 1.0
C      1  0.3899411483364  0.4961616165547  0.4882183057862 1.0
C      1  0.7151989572798  0.6081657738538  0.4178273866033 1.0
C      1  0.3227895083418  0.6244791993511  0.6032915037400 1.0
C      1  0.7593284649757  0.5213810331734  0.4492331095545 1.0
C      1  0.5912242436880  0.4594150303557  0.2897191734626 1.0
C      1  0.5525038446006  0.4792386174510  0.5510221258642 1.0
C      1  0.2675788097773  0.4074820768371  0.3751525382826 1.0
C      1  0.6135260142124  0.5533985714217  0.2854557763133 1.0
C      1  0.7230122671865  0.4805513710851  0.3696049606139 1.0
C      1  0.5717884964667  0.5504307601461  0.6114382869789 1.0
C      1  0.7721353451373  0.4886438914388  0.5346097239318 1.0
C      1  0.6371465998253  0.4362036779610  0.7395605096243 1.0
C      1  0.5558577965378  0.7138499462708  0.5765936744179 1.0
C      1  0.5784441354326  0.3179594115710  0.5766369232860 1.0
C      1  0.5042141209765  0.6891640307822  0.6517549870342 1.0
C      1  0.4164179563646  0.2964102551858  0.5321750776410 1.0
C      1  0.5713104613320  0.6996939485871  0.4200970861614 1.0
C      1  0.4526919294245  0.3600175952065  0.6843859798996 1.0
C      1  0.4674272868172  0.4825915709477  0.5154072905010 1.0
C      1  0.2938297873826  0.6119461019245  0.5165789824262 1.0
C      1  0.3535735393874  0.6832493649988  0.5283970935424 1.0
C      1  0.5319232573517  0.3235432714921  0.4287095047285 1.0
C      1  0.4970148378734  0.4488343815670  0.2720676347096 1.0
C      1  0.5107548702103  0.2912576571083  0.5160719730761 1.0
C      1  0.5579755052260  0.4536628611595  0.7634698438002 1.0
C      1  0.7242781732730  0.5301146056449  0.6020134512826 1.0
C      1  0.4211329084644  0.6859962063027  0.3759501597070 1.0
C      1  0.6931009009289  0.5652599499271  0.3337080450863 1.0
END
