TITL C-6826-489-44 -3.868 3375.00 -670.38728253 0 0 83 (C1) n - 1
REM
REM Run started: at 2020.12.18 01:55:05 in /gpfs/home/chem/mssmkc/CARBON/AIRSS/Generating-Clusters/Str-Search/Higher-Symm/C4-100
REM VASP from code version vasp.5.4.4.18Apr17-6-g9f103f2a35 (build Oct 11 2019 16:45:47) gamma-only
REM
REM
REM
REM
REM ./C.cell (6bd13a13d554368a30d355f37ece5b26)
REM AIRSS Version 0.9.1 bugfix July 2018 build 013d7b7c2542+ Fri, 06 Jul 2018 19:26:36 +0100
REM compiler GCC version 6.3.0
REM options -cpp -iprefix /gpfs/warwick/csc/orac/software/Core/GCCcore/6.3.0/bin/../lib/gcc/x86_64-pc-linux-gnu/6.3.0/ -mtune=generic -march=x86-64 -g -O0
REM seed -1611958705 -1949057773 753698222 -1303702543 1511031188 1015600794 -1704042804 1243732085 -1287576279 -899156676 343109386 -1629441796
REM
REM C.POTCAR (d86ddea03c3ceb6dc662c8ad6801f873)
REM 
CELL 1.54180   15.00000   15.00000   15.00000   90.00000   90.00000   90.00000
LATT -1
SFAC C  
C      1  0.4285788461476  0.7170684358593  0.3350239506111 1.0
C      1  0.3206525881337  0.7243056152885  0.5170263431364 1.0
C      1  0.4328294510514  0.7604404141245  0.6711234072997 1.0
C      1  0.5981263396881  0.7293061039100  0.6233909075400 1.0
C      1  0.6505514391598  0.7375049050665  0.4430692805510 1.0
C      1  0.3132697775294  0.4246655407841  0.6105742950749 1.0
C      1  0.5473035933654  0.4205353192908  0.7144431503310 1.0
C      1  0.7139383034554  0.4061193797098  0.5110471265375 1.0
C      1  0.5708706849403  0.4060818926741  0.2975083395665 1.0
C      1  0.3263787116712  0.4108726240661  0.3647512873638 1.0
C      1  0.4658484765709  0.2038758689603  0.6116720565286 1.0
C      1  0.5599962453919  0.2177599551565  0.6291043609652 1.0
C      1  0.6150587593155  0.2129810351608  0.4759328555559 1.0
C      1  0.5411290067157  0.2178211092352  0.3623521685476 1.0
C      1  0.4467089380644  0.1878881623769  0.4515373639539 1.0
C      1  0.5652649923044  0.3686551083710  0.5419808470986 1.0
C      1  0.5377213956861  0.3853522997156  0.4513529918595 1.0
C      1  0.4536562038625  0.3387495599551  0.4328381874039 1.0
C      1  0.4052760913802  0.3237335961450  0.5210736723350 1.0
C      1  0.4757258212201  0.3741266920329  0.5768298893520 1.0
C      1  0.4489626162083  0.2551685656974  0.3741733862012 1.0
C      1  0.4169240600227  0.2216812656118  0.5340383383710 1.0
C      1  0.4912691796007  0.2660886461665  0.6757925589482 1.0
C      1  0.6279363862298  0.2417559952764  0.5664806167904 1.0
C      1  0.6184286450368  0.2643864416982  0.3938233842595 1.0
C      1  0.3583834056041  0.6011624368933  0.4217596410508 1.0
C      1  0.3874707324519  0.6123526395927  0.6190687587388 1.0
C      1  0.5936619054768  0.5706432536171  0.6428115346594 1.0
C      1  0.6777179248437  0.5873878319412  0.4670633272344 1.0
C      1  0.5285817719560  0.5857139142690  0.3394208190673 1.0
C      1  0.6512006112354  0.3455111443635  0.5777073321217 1.0
C      1  0.6104860973341  0.3648182785566  0.3843704172943 1.0
C      1  0.4094873681267  0.3524855527099  0.3460447199933 1.0
C      1  0.3224564383216  0.3744068124462  0.5309319326760 1.0
C      1  0.4696383425678  0.3661938666439  0.6757247577799 1.0
C      1  0.4729975912950  0.6713201723853  0.2587493836881 1.0
C      1  0.2877241915854  0.6761039337973  0.4404872617436 1.0
C      1  0.3707014292388  0.6889365634566  0.6863896402660 1.0
C      1  0.6167085703640  0.6540051638688  0.6877492257405 1.0
C      1  0.7239473423897  0.6689466029299  0.4215727064442 1.0
C      1  0.7066135690553  0.5752633362664  0.3806197339282 1.0
C      1  0.4675124230390  0.5708098882722  0.2668846804257 1.0
C      1  0.2580424758261  0.5803106501763  0.4308293476867 1.0
C      1  0.3544546971553  0.5841807724269  0.7093306530111 1.0
C      1  0.6740943060421  0.5642782455367  0.6763893246060 1.0
C      1  0.4044135067825  0.4976886496642  0.7326325177812 1.0
C      1  0.7040678194886  0.4723049834847  0.6557621898490 1.0
C      1  0.6943860229828  0.4884651311147  0.3469635905990 1.0
C      1  0.4240144825770  0.4837065139622  0.2627162604916 1.0
C      1  0.2487478750642  0.5026685357483  0.4896078850532 1.0
C      1  0.4446424602264  0.7954572292969  0.5845621243555 1.0
C      1  0.5216357609991  0.7760425329381  0.6404023854658 1.0
C      1  0.5604902599829  0.7555671886841  0.4422066886799 1.0
C      1  0.4643528452477  0.7574343034975  0.4168678035443 1.0
C      1  0.4065761275481  0.7664229853242  0.5017724997334 1.0
C      1  0.6395767057062  0.4043513382027  0.6697283907419 1.0
C      1  0.6879718342426  0.4188505542349  0.4174886725519 1.0
C      1  0.4733776079483  0.4073493865016  0.2875932935645 1.0
C      1  0.2882697522697  0.4209298089644  0.4544099602367 1.0
C      1  0.3798700148688  0.4218713533237  0.6841562125985 1.0
C      1  0.7662182039072  0.6225697134951  0.5007907870720 1.0
C      1  0.5635804701499  0.6158572544425  0.2551356135275 1.0
C      1  0.3397453872290  0.6721140483802  0.3515061376477 1.0
C      1  0.3083330094274  0.6767573688555  0.6056437668222 1.0
C      1  0.5714920118988  0.6443045653191  0.7778174581560 1.0
C      1  0.2828585310751  0.5833466397763  0.6351738104029 1.0
C      1  0.5344388978747  0.5721951149192  0.7973513883312 1.0
C      1  0.7934028982186  0.5531911662263  0.5474714882379 1.0
C      1  0.6152752189118  0.5499449339900  0.2092100206079 1.0
C      1  0.3045687783262  0.5731739522007  0.3403686169876 1.0
C      1  0.5875471153064  0.6054231454787  0.4991718148492 1.0
C      1  0.5210749007639  0.5912408664617  0.4271701004615 1.0
C      1  0.4372838022781  0.5859841827387  0.4680724448379 1.0
C      1  0.4485166513856  0.5831107242830  0.5581785097016 1.0
C      1  0.5403028967312  0.5464358248747  0.5674810948712 1.0
C      1  0.2633200979558  0.5046818431564  0.5845407473446 1.0
C      1  0.5003401163503  0.4926997101495  0.7617742390732 1.0
C      1  0.7545231654262  0.4706958653622  0.5711873291931 1.0
C      1  0.6299340372534  0.4760223946757  0.2720494144196 1.0
C      1  0.3385000676368  0.4863998457642  0.3090061940723 1.0
C      1  0.5223513972180  0.4529668826627  0.5314747808853 1.0
C      1  0.5350678403189  0.1537533639890  0.4336733198291 1.0
C      1  0.5986757817609  0.7078751053735  0.5236625830837 1.0
END
