TITL C-68453-8018-19 -1.252 3375.00 -187.87527094 0 0 24 (C1) n - 1
REM
REM Run started: at 2020.12.01 02:23:58 in /rds/project/t2_vol4/rds-t2-cs072/BORA/CARBON/AIRSS/Generating-Clusters/Str-Search/Higher-Symm/C10-100
REM VASP from code version vasp.5.4.4.18Apr17-6-g9f103f2a35 (build Oct 11 2019 16:45:47) gamma-only
REM
REM
REM
REM
REM ./C.cell (f39ce9773e2efe3fa5bbdf770a4156b8)
REM AIRSS Version 0.9.1 bugfix July 2018 build 013d7b7c2542+ Fri, 06 Jul 2018 19:26:36 +0100
REM compiler GCC version 4.8.5 20150623 (Red Hat 4.8.5-39)
REM options -cpp -mtune=generic -march=x86-64 -g -O0
REM seed 55445098 872833071 -793969324 717523782 -323710813 298093512 -1289223376 -1558760700 -521595438 795370027 -41726013 -899681008
REM
REM C.POTCAR (d86ddea03c3ceb6dc662c8ad6801f873)
REM 
CELL 1.54180   15.00000   15.00000   15.00000   90.00000   90.00000   90.00000
LATT -1
SFAC C  
C      1  0.3353804074777  0.4636566006421  0.4058639689888 1.0
C      1  0.6155965681096  0.3514304492288  0.5799593031330 1.0
C      1  0.4100520417042  0.7489936057592  0.4151728327237 1.0
C      1  0.5933650218005  0.5224941252859  0.6207383502476 1.0
C      1  0.4935190817069  0.7193615624558  0.4109024539664 1.0
C      1  0.4156297815611  0.6828400762776  0.5627196202221 1.0
C      1  0.5893366710042  0.5990190053880  0.4691824575617 1.0
C      1  0.5648161989099  0.6732360876939  0.4175518381107 1.0
C      1  0.4483585434212  0.3359281699203  0.4343972004632 1.0
C      1  0.5409920046057  0.3626830353927  0.4271905374705 1.0
C      1  0.3677016849894  0.6932445120463  0.4832996138244 1.0
C      1  0.4352939595994  0.2699983619571  0.5011150343134 1.0
C      1  0.5605059468059  0.2812346772319  0.6112327152569 1.0
C      1  0.5005990916827  0.2513007479830  0.5549621044601 1.0
C      1  0.6202394679093  0.4329074863441  0.6273256062542 1.0
C      1  0.3110585580394  0.6256976559519  0.4531259862220 1.0
C      1  0.6138559457900  0.3594323616321  0.4821054964498 1.0
C      1  0.6158342952809  0.4864484622424  0.7056261980058 1.0
C      1  0.5596574931577  0.5912684924329  0.5651812394198 1.0
C      1  0.4868960400497  0.6451759306864  0.5855008194029 1.0
C      1  0.6217536006683  0.5236825783008  0.4284913230907 1.0
C      1  0.3817391838746  0.3945677106634  0.4053173220990 1.0
C      1  0.6066386476767  0.4383724811217  0.4280709588400 1.0
C      1  0.3111796641750  0.5470258233616  0.4249671194733 1.0
END
