TITL C-6826-489-115 -2.291 3375.00 -378.86412661 0 0 47 (C1) n - 1
REM
REM Run started: at 2020.12.18 13:53:13 in /gpfs/home/chem/mssmkc/CARBON/AIRSS/Generating-Clusters/Str-Search/Higher-Symm/C4-100
REM VASP from code version vasp.5.4.4.18Apr17-6-g9f103f2a35 (build Oct 11 2019 16:45:47) gamma-only
REM
REM
REM
REM
REM ./C.cell (6bd13a13d554368a30d355f37ece5b26)
REM AIRSS Version 0.9.1 bugfix July 2018 build 013d7b7c2542+ Fri, 06 Jul 2018 19:26:36 +0100
REM compiler GCC version 6.3.0
REM options -cpp -iprefix /gpfs/warwick/csc/orac/software/Core/GCCcore/6.3.0/bin/../lib/gcc/x86_64-pc-linux-gnu/6.3.0/ -mtune=generic -march=x86-64 -g -O0
REM seed 2121817193 1878765136 -954876595 -2147060203 765228425 -2084047458 -821095013 1440593100 1473597424 -640619965 1340327247 -396526098
REM
REM C.POTCAR (d86ddea03c3ceb6dc662c8ad6801f873)
REM 
CELL 1.54180   15.00000   15.00000   15.00000   90.00000   90.00000   90.00000
LATT -1
SFAC C  
C      1  0.7094206990684  0.5669474337126  0.4844279180936 1.0
C      1  0.5855685919271  0.3117356204984  0.4142727865784 1.0
C      1  0.4951336700881  0.4893047923282  0.2999485124009 1.0
C      1  0.4319677618432  0.3265426385629  0.4032376675878 1.0
C      1  0.5146772009913  0.6201816129198  0.6737202572987 1.0
C      1  0.6345282820722  0.4301269718299  0.3262077333683 1.0
C      1  0.3432169583610  0.4527084651041  0.6834474076911 1.0
C      1  0.5156830560120  0.3321058465830  0.3549909084566 1.0
C      1  0.4624432368015  0.5734370637672  0.7392281820991 1.0
C      1  0.6981519426606  0.4843483898876  0.5309031679395 1.0
C      1  0.3920733961965  0.5027299096807  0.4709906224156 1.0
C      1  0.5423851674947  0.3918208972344  0.7224321814652 1.0
C      1  0.3053511475900  0.4944867571304  0.6036833614440 1.0
C      1  0.3467054101230  0.4322030455106  0.3108173889841 1.0
C      1  0.3784949001915  0.5420758668339  0.7115093628889 1.0
C      1  0.3998647381107  0.5727414933953  0.3948174416796 1.0
C      1  0.5235214963804  0.5880316954460  0.5100412981939 1.0
C      1  0.3357809882647  0.4467270677416  0.5279853889816 1.0
C      1  0.5520287126832  0.5450324321564  0.7199599450442 1.0
C      1  0.6234526310632  0.4555030084412  0.5982492068021 1.0
C      1  0.4035324580823  0.5070172555712  0.3177885808270 1.0
C      1  0.5513969092830  0.3176200534121  0.5057222497906 1.0
C      1  0.4249031441727  0.7358443603849  0.4309022386866 1.0
C      1  0.6212329354046  0.3649024104634  0.5513696840761 1.0
C      1  0.4744254688617  0.4971786536467  0.5094862043283 1.0
C      1  0.4847474977319  0.6416903542606  0.5888799345776 1.0
C      1  0.3939630725607  0.3764888388946  0.6578850385099 1.0
C      1  0.6596757351076  0.3722391365307  0.3989019828772 1.0
C      1  0.4715105846936  0.3523547054594  0.7056579392447 1.0
C      1  0.6401617538045  0.5266663806596  0.3377230886932 1.0
C      1  0.3611818539931  0.6641214772027  0.4119506392462 1.0
C      1  0.3872287027766  0.6521090057509  0.5812013052874 1.0
C      1  0.3410534416985  0.5834027526770  0.6322379267540 1.0
C      1  0.6871163889530  0.3994743252596  0.4869207588255 1.0
C      1  0.6702887984562  0.6531513692223  0.4458391119316 1.0
C      1  0.3876665132778  0.3654172730958  0.5606035100633 1.0
C      1  0.5518553682599  0.5582837339883  0.3355803970437 1.0
C      1  0.3665287885883  0.6950859283495  0.4989944088353 1.0
C      1  0.4508027725526  0.3245591344733  0.5006015850692 1.0
C      1  0.5447389212271  0.4064774979568  0.2966752130363 1.0
C      1  0.5944478823054  0.4654676624340  0.6961938210766 1.0
C      1  0.3605001195973  0.3638145126021  0.3579431642213 1.0
C      1  0.5188340185645  0.7109413705444  0.4192747761441 1.0
C      1  0.5056111005398  0.6078576789955  0.4082497908522 1.0
C      1  0.6065086885428  0.7189148085587  0.4399460222404 1.0
C      1  0.6980052584707  0.5789088235402  0.3932447367304 1.0
C      1  0.5516317345705  0.5012191873015  0.5493548516182 1.0
END
