TITL C-6826-489-197 -1.008 3375.00 -153.87206600 0 0 20 (C1) n - 1
REM
REM Run started: at 2020.12.19 04:31:49 in /gpfs/home/chem/mssmkc/CARBON/AIRSS/Generating-Clusters/Str-Search/Higher-Symm/C4-100
REM VASP from code version vasp.5.4.4.18Apr17-6-g9f103f2a35 (build Oct 11 2019 16:45:47) gamma-only
REM
REM
REM
REM
REM ./C.cell (6bd13a13d554368a30d355f37ece5b26)
REM AIRSS Version 0.9.1 bugfix July 2018 build 013d7b7c2542+ Fri, 06 Jul 2018 19:26:36 +0100
REM compiler GCC version 6.3.0
REM options -cpp -iprefix /gpfs/warwick/csc/orac/software/Core/GCCcore/6.3.0/bin/../lib/gcc/x86_64-pc-linux-gnu/6.3.0/ -mtune=generic -march=x86-64 -g -O0
REM seed -2071483103 -30244900 -2039818056 -868457491 -1087542734 -1895012719 -1855568401 850337786 -1775778696 275847628 -229256881 -1028130735
REM
REM C.POTCAR (d86ddea03c3ceb6dc662c8ad6801f873)
REM 
CELL 1.54180   15.00000   15.00000   15.00000   90.00000   90.00000   90.00000
LATT -1
SFAC C  
C      1  0.6039605695316  0.4034059304656  0.5501409016439 1.0
C      1  0.5946708464637  0.4721788149248  0.4010368661613 1.0
C      1  0.4468873682560  0.3738204112833  0.5462151382118 1.0
C      1  0.6081546322117  0.4901376848806  0.6020210741785 1.0
C      1  0.4038180156222  0.4610721812288  0.5589801937558 1.0
C      1  0.3392985112878  0.6881058778996  0.4573157298320 1.0
C      1  0.3875902840647  0.5176843253257  0.4844189699790 1.0
C      1  0.6089136168274  0.5636479040119  0.4143228509193 1.0
C      1  0.5275622152584  0.3343665572656  0.4367839620272 1.0
C      1  0.6004421323046  0.3917758779748  0.4521477657939 1.0
C      1  0.4526268473683  0.3155898234321  0.4705040045273 1.0
C      1  0.5256700552645  0.5351938516186  0.3809349029965 1.0
C      1  0.6366533929343  0.5670881803802  0.5591511326102 1.0
C      1  0.6525503193359  0.6058281665584  0.4864152323781 1.0
C      1  0.3762276426412  0.6071020191426  0.4503569283705 1.0
C      1  0.3074435100597  0.7668562392653  0.4659356882998 1.0
C      1  0.5239724958014  0.4697004502104  0.6425007733543 1.0
C      1  0.5251445603042  0.3771178036164  0.6008498752826 1.0
C      1  0.4421941661111  0.5125217249182  0.6312211346220 1.0
C      1  0.4362185183514  0.5468062755970  0.4087467750560 1.0
END
