TITL C-68979-3049-6 -8.806 3375.00 -1487.05688019 0 0 180 (C2h) n - 1
REM
REM Run started: at 2020.12.24 18:54:15 in /rds/project/t2_vol4/rds-t2-cs072/BORA/CARBON/AIRSS/Generating-Clusters/Str-Search/Higher-Symm/Only-C180
REM VASP from code version vasp.5.4.4.18Apr17-6-g9f103f2a35 (build Oct 11 2019 16:45:47) gamma-only
REM
REM
REM
REM
REM ./C.cell (f712cfaf3acf65fd2d5dcba0fd1fd40b)
REM AIRSS Version 0.9.1 bugfix July 2018 build 013d7b7c2542+ Fri, 06 Jul 2018 19:26:36 +0100
REM compiler GCC version 4.8.5 20150623 (Red Hat 4.8.5-39)
REM options -cpp -mtune=generic -march=x86-64 -g -O0
REM seed 1158713961 -530917765 -1619041180 1398366330 -899743881 215143258 -323897277 -1749438119 91697439 1927370857 1293111686 -173583713
REM
REM C.POTCAR (d86ddea03c3ceb6dc662c8ad6801f873)
REM 
CELL 1.54180   15.00000   15.00000   15.00000   90.00000   90.00000   90.00000
LATT -1
SFAC C  
C      1  0.2582661908690  0.3046633822705  0.2412426449504 1.0
C      1  0.4500443978096  0.8071657803633  0.2454066723676 1.0
C      1  0.7935783955644  0.3897986978694  0.2413637410394 1.0
C      1  0.2582647588750  0.6953350992000  0.7587568428070 1.0
C      1  0.4500452720304  0.1928376490501  0.7545932061591 1.0
C      1  0.7935774361966  0.6102018336636  0.7586383010248 1.0
C      1  0.7417332376570  0.6953367080813  0.7587577078851 1.0
C      1  0.5499562977840  0.1928342817747  0.7545927994104 1.0
C      1  0.2064197046410  0.6102009783481  0.7586357300275 1.0
C      1  0.7417359660259  0.3046630428361  0.2412443577956 1.0
C      1  0.5499551746750  0.8071627350555  0.2454063123885 1.0
C      1  0.2064238657190  0.3897990504209  0.2413615937705 1.0
C      1  0.5924981113777  0.8123239157846  0.4197581734564 1.0
C      1  0.7251347555135  0.2662212732394  0.4158883921024 1.0
C      1  0.1772418095488  0.4246838954440  0.4163708039762 1.0
C      1  0.5924982293034  0.1876771980643  0.5802413832599 1.0
C      1  0.7251340970841  0.7337792578450  0.5841127882410 1.0
C      1  0.1772421478427  0.5753157781661  0.5836244278928 1.0
C      1  0.4075015212360  0.1876762897742  0.5802421256410 1.0
C      1  0.2748650823232  0.7337794831481  0.5841122567204 1.0
C      1  0.8227581656341  0.5753160827391  0.5836283218378 1.0
C      1  0.4075020925394  0.8123236576966  0.4197589295768 1.0
C      1  0.2748662084002  0.2662216885524  0.4158879555065 1.0
C      1  0.8227588172379  0.4246834170064  0.4163750712177 1.0
C      1  0.5470051333863  0.6326336212972  0.4646146125605 1.0
C      1  0.5933540548227  0.3928368115309  0.4635697244581 1.0
C      1  0.3579350218830  0.4736587295920  0.4639338991365 1.0
C      1  0.5470033700485  0.3673653563646  0.5353861457503 1.0
C      1  0.5933560099555  0.6071654442972  0.5364324673528 1.0
C      1  0.3579322606439  0.5263414289809  0.5360649796402 1.0
C      1  0.4529954305173  0.3673663838633  0.5353854558740 1.0
C      1  0.4066476230129  0.6071624164782  0.5364299371918 1.0
C      1  0.6420656394136  0.5263415960111  0.5360650145955 1.0
C      1  0.4529970221631  0.6326350213349  0.4646137879084 1.0
C      1  0.4066440156644  0.3928344743096  0.4635675062004 1.0
C      1  0.6420679026556  0.4736587524755  0.4639343671370 1.0
C      1  0.9372330171132  0.6231775142397  0.3701524355092 1.0
C      1  0.3989105108442  0.0809950105816  0.3583138007452 1.0
C      1  0.1872555090596  0.7840473746609  0.3594671755986 1.0
C      1  0.9372374917914  0.3768240416982  0.6298497955814 1.0
C      1  0.3989135154558  0.9190047477669  0.6416741504665 1.0
C      1  0.1872553211795  0.2159509581322  0.6405313116863 1.0
C      1  0.0627637659189  0.3768225573247  0.6298479049941 1.0
C      1  0.6010818592245  0.9189997757763  0.6416853036840 1.0
C      1  0.8127450727527  0.2159517695007  0.6405322258417 1.0
C      1  0.0627635593842  0.6231751042083  0.3701521859983 1.0
C      1  0.6010844605246  0.0809953705579  0.3583263566142 1.0
C      1  0.8127437627397  0.7840492894567  0.3594670808215 1.0
C      1  0.5896573782675  0.3228551179835  0.3194994628721 1.0
C      1  0.2956532024592  0.5130168705906  0.3205130670818 1.0
C      1  0.6118742674386  0.6661563599550  0.3226520485660 1.0
C      1  0.5896558866380  0.6771436400630  0.6805027838472 1.0
C      1  0.2956500001148  0.4869834579325  0.6794868010371 1.0
C      1  0.6118742514697  0.3338442559513  0.6773484029475 1.0
C      1  0.4103425635564  0.6771438475575  0.6805009627091 1.0
C      1  0.7043482113742  0.4869836643197  0.6794869689737 1.0
C      1  0.3881247420137  0.3338443346851  0.6773472381886 1.0
C      1  0.4103438905083  0.3228557197667  0.3194977050243 1.0
C      1  0.7043489947624  0.5130172626433  0.3205135300871 1.0
C      1  0.3881274550097  0.6661565854132  0.3226516057773 1.0
C      1  0.3337481219785  0.5365676338190  0.8344475329209 1.0
C      1  0.6160760139471  0.6217555349473  0.8347778020198 1.0
C      1  0.5493811792029  0.3389290823059  0.8315659045825 1.0
C      1  0.3337512307250  0.4634312849233  0.1655518530586 1.0
C      1  0.6160778733358  0.3782447983635  0.1652243132520 1.0
C      1  0.5493831672099  0.6610725521344  0.1684337720477 1.0
C      1  0.6662516939268  0.4634313096568  0.1655527428967 1.0
C      1  0.3839243838641  0.3782439793347  0.1652232818351 1.0
C      1  0.4506193276260  0.6610717479619  0.1684330793474 1.0
C      1  0.6662497813526  0.5365684224270  0.8344483861868 1.0
C      1  0.3839212333394  0.6217543879613  0.8347770383480 1.0
C      1  0.4506171828839  0.3389279589909  0.8315647060397 1.0
C      1  0.8288667788730  0.3637484426467  0.4922447899438 1.0
C      1  0.2193987067370  0.2902101273735  0.4915547219176 1.0
C      1  0.4560421978213  0.8472923169236  0.4963541523031 1.0
C      1  0.8288639026687  0.6362499771742  0.5077589421430 1.0
C      1  0.2193985682991  0.7097895457418  0.5084435883946 1.0
C      1  0.4560418539394  0.1527067364291  0.5036460815315 1.0
C      1  0.1711352780699  0.6362501401638  0.5077554753473 1.0
C      1  0.7806020439608  0.7097904218986  0.5084453874827 1.0
C      1  0.5439580683340  0.1527078335291  0.5036463906224 1.0
C      1  0.1711344880445  0.3637492711630  0.4922403409848 1.0
C      1  0.7806016249382  0.2902100837268  0.4915565938853 1.0
C      1  0.5439577739314  0.8472930016178  0.4963537335611 1.0
C      1  0.1150702614173  0.2326665213957  0.6744374676634 1.0
C      1  0.4544440960495  0.9685092776783  0.6768910005588 1.0
C      1  0.9508228734178  0.2985977990737  0.6740618624428 1.0
C      1  0.1150716862494  0.7673301784115  0.3255594283328 1.0
C      1  0.4544422425798  0.0314944091313  0.3231206134614 1.0
C      1  0.9508206126480  0.7014030306692  0.3259411318060 1.0
C      1  0.8849291667367  0.7673329987665  0.3255627840050 1.0
C      1  0.5455580093764  0.0314882060166  0.3231102910509 1.0
C      1  0.0491782626636  0.7014012666736  0.3259403199582 1.0
C      1  0.8849288997364  0.2326688750707  0.6744406633066 1.0
C      1  0.5455566044188  0.9685071471427  0.6768810873503 1.0
C      1  0.0491778245321  0.2985965804996  0.6740598617902 1.0
C      1  0.1415217111199  0.4991492405030  0.5487029589960 1.0
C      1  0.6763760095326  0.8024182023804  0.5501707978098 1.0
C      1  0.6761510163632  0.1964611734154  0.5461627672659 1.0
C      1  0.1415240083332  0.5008503288274  0.4512951298114 1.0
C      1  0.6763759649641  0.1975837666066  0.4498308093839 1.0
C      1  0.6761504991514  0.8035390118666  0.4538372713588 1.0
C      1  0.8584762049430  0.5008507986039  0.4512975897874 1.0
C      1  0.3236247574464  0.1975835737345  0.4498297818407 1.0
C      1  0.3238495715391  0.8035393617890  0.4538366275703 1.0
C      1  0.8584782121982  0.4991500822949  0.5487056002457 1.0
C      1  0.3236244201891  0.8024171431019  0.5501698449957 1.0
C      1  0.3238490636926  0.1964617455568  0.5461619990172 1.0
C      1  0.4461341900992  0.5944742357541  0.6262578527493 1.0
C      1  0.6122623322520  0.4976841531201  0.6257798499773 1.0
C      1  0.4426178507712  0.4069881379762  0.6251716175113 1.0
C      1  0.4461352144645  0.4055227013707  0.3737417258285 1.0
C      1  0.6122650609269  0.5023157106025  0.3742194964065 1.0
C      1  0.4426209971936  0.5930133496105  0.3748264293323 1.0
C      1  0.5538658631453  0.4055231459022  0.3737426334745 1.0
C      1  0.3877380246969  0.5023158988474  0.3742186079147 1.0
C      1  0.5573813367999  0.5930127659246  0.3748274282929 1.0
C      1  0.5538650478284  0.5944746678613  0.6262584778199 1.0
C      1  0.3877345193917  0.4976839479578  0.6257799265027 1.0
C      1  0.5573800515135  0.4069870435568  0.6251730638644 1.0
C      1  0.4067072616652  0.8360995202424  0.5861891903066 1.0
C      1  0.8492547969947  0.4083355218673  0.5832425795229 1.0
C      1  0.2544647411771  0.2537884453099  0.5810547905469 1.0
C      1  0.4067052991411  0.1639004752114  0.4138109140500 1.0
C      1  0.8492520285787  0.5916651946451  0.4167612525931 1.0
C      1  0.2544668209602  0.7462126098113  0.4189439169598 1.0
C      1  0.5932941014272  0.1639011612763  0.4138115957243 1.0
C      1  0.1507475504059  0.5916648078506  0.4167584347314 1.0
C      1  0.7455347489260  0.7462133931027  0.4189444469747 1.0
C      1  0.5932924727377  0.8360978533886  0.5861885305595 1.0
C      1  0.1507451337792  0.4083353355984  0.5832391246705 1.0
C      1  0.7455341060583  0.2537883711986  0.5810553247884 1.0
C      1  0.5461332263033  0.3473849042965  0.2273371430379 1.0
C      1  0.3400560077154  0.5384789056496  0.2288341402037 1.0
C      1  0.6125324403138  0.6173989418215  0.2299840326376 1.0
C      1  0.5461310191507  0.6526135829920  0.7726644215722 1.0
C      1  0.3400530217670  0.4615197732804  0.7711652297964 1.0
C      1  0.6125315768472  0.3826024084405  0.7700165617488 1.0
C      1  0.4538666085969  0.6526139180561  0.7726639609299 1.0
C      1  0.6599450295324  0.4615216596333  0.7711653643603 1.0
C      1  0.3874672987320  0.3826010069346  0.7700150268185 1.0
C      1  0.4538691601499  0.3473851615839  0.2273362047164 1.0
C      1  0.6599466106009  0.5384799628363  0.2288342360534 1.0
C      1  0.3874697386214  0.6173981004066  0.2299831365423 1.0
C      1  0.5514718801525  0.7576184814083  0.1656187123460 1.0
C      1  0.6978888967064  0.3269012285745  0.1610781771524 1.0
C      1  0.2498324064724  0.4161403948164  0.1623110862268 1.0
C      1  0.5514668453227  0.2423833900892  0.8343776985248 1.0
C      1  0.6978861395938  0.6731001379818  0.8389245513937 1.0
C      1  0.2498300240695  0.5838605578294  0.8376855018950 1.0
C      1  0.4485289306366  0.2423821988991  0.8343803066675 1.0
C      1  0.3021110406331  0.6731000592486  0.8389246989094 1.0
C      1  0.7501675295501  0.5838609127976  0.8376884156693 1.0
C      1  0.4485332849770  0.7576172022635  0.1656217132005 1.0
C      1  0.3021139545802  0.3269007104525  0.1610765497587 1.0
C      1  0.7501709662304  0.4161401709598  0.1623127374518 1.0
C      1  0.6988012714802  0.6791035254558  0.6672337364876 1.0
C      1  0.5590112356557  0.2386805159905  0.6636596528008 1.0
C      1  0.2405258335214  0.5795121506157  0.6667646811033 1.0
C      1  0.6988027490620  0.3208969585872  0.3327671876763 1.0
C      1  0.5590115493435  0.7613201158114  0.3363409933230 1.0
C      1  0.2405289608978  0.4204873729011  0.3332332128909 1.0
C      1  0.3011983271301  0.3208969885578  0.3327666901989 1.0
C      1  0.4409893771841  0.7613207674558  0.3363403487763 1.0
C      1  0.7594732692371  0.4204873682131  0.3332353102295 1.0
C      1  0.3011975735901  0.6791031116917  0.6672335601069 1.0
C      1  0.4409878121951  0.2386807293992  0.6636589464460 1.0
C      1  0.7594721537450  0.5795127195957  0.6667667631483 1.0
C      1  0.7054752874425  0.3322756857563  0.6354564153992 1.0
C      1  0.2438153570427  0.4071407893416  0.6386864500831 1.0
C      1  0.5452851076493  0.7605158399585  0.6397562354841 1.0
C      1  0.7054751368487  0.6677258523675  0.3645439533416 1.0
C      1  0.2438185031551  0.5928604791325  0.3613100374668 1.0
C      1  0.5452858781204  0.2394817897486  0.3602426168171 1.0
C      1  0.2945264326645  0.6677250503554  0.3645431174093 1.0
C      1  0.7561823565646  0.5928609644184  0.3613114476414 1.0
C      1  0.4547142532505  0.2394822170565  0.3602431272295 1.0
C      1  0.2945227230640  0.3322769489954  0.6354554288866 1.0
C      1  0.7561832836080  0.4071399452803  0.6386899443996 1.0
C      1  0.4547140153942  0.7605167399565  0.6397562819626 1.0
END
