TITL C-68071-43-23 -1.196 3375.00 -183.79482634 0 0 24 (C1) n - 1
REM
REM Run started: at 2020.11.28 12:45:56 in /rds/project/t2_vol4/rds-t2-cs072/BORA/CARBON/AIRSS/Generating-Clusters/Str-Search/Higher-Symm/C10-100
REM VASP from code version vasp.5.4.4.18Apr17-6-g9f103f2a35 (build Oct 11 2019 16:45:47) gamma-only
REM
REM
REM
REM
REM ./C.cell (f39ce9773e2efe3fa5bbdf770a4156b8)
REM AIRSS Version 0.9.1 bugfix July 2018 build 013d7b7c2542+ Fri, 06 Jul 2018 19:26:36 +0100
REM compiler GCC version 4.8.5 20150623 (Red Hat 4.8.5-39)
REM options -cpp -mtune=generic -march=x86-64 -g -O0
REM seed -75245993 -1614845599 -31283167 1974915793 -1971177422 -2132510919 65441341 796932897 837380203 -461114226 1880472225 -180611016
REM
REM C.POTCAR (d86ddea03c3ceb6dc662c8ad6801f873)
REM 
CELL 1.54180   15.00000   15.00000   15.00000   90.00000   90.00000   90.00000
LATT -1
SFAC C  
C      1  0.6079006704890  0.3497136514798  0.5113237825205 1.0
C      1  0.5034796170598  0.6008657171019  0.4639124672007 1.0
C      1  0.5003953814997  0.6677979109606  0.3284262880192 1.0
C      1  0.3862324839081  0.5444313948832  0.7057132167650 1.0
C      1  0.5780626517250  0.6658118094705  0.4587697223143 1.0
C      1  0.5649668689994  0.7024688852874  0.3711297887812 1.0
C      1  0.5238496381467  0.4842634079467  0.5974118332620 1.0
C      1  0.5131746630296  0.3368408889035  0.5081545890947 1.0
C      1  0.4141039029283  0.4717843723155  0.4669541376098 1.0
C      1  0.6595719796961  0.5736745043846  0.5642554074829 1.0
C      1  0.4587214157195  0.5228941350539  0.6617240162156 1.0
C      1  0.3508065406631  0.4857916720124  0.5399867996943 1.0
C      1  0.4657378759263  0.3081059926235  0.6039301673259 1.0
C      1  0.4907208412298  0.5232288208951  0.5094602745686 1.0
C      1  0.3582169122476  0.5149130264695  0.6189271797263 1.0
C      1  0.4963438641505  0.3891755750040  0.5983087140238 1.0
C      1  0.6431897409811  0.6429463598777  0.5191109702557 1.0
C      1  0.6308287617267  0.4891339504458  0.5816429255262 1.0
C      1  0.4249655608062  0.4494765836289  0.3092961898353 1.0
C      1  0.6595886057308  0.4056262661201  0.5476894917353 1.0
C      1  0.4577392448885  0.3747888074902  0.4395902800420 1.0
C      1  0.4088102919498  0.5188330073758  0.3702481649397 1.0
C      1  0.4487979508420  0.3767815020486  0.3478358307349 1.0
C      1  0.4537945356565  0.6006517582208  0.3761976623261 1.0
END
