TITL C-6826-489-153 -0.846 3375.00 -128.18992913 0 0 17 (C1) n - 1
REM
REM Run started: at 2020.12.18 20:10:10 in /gpfs/home/chem/mssmkc/CARBON/AIRSS/Generating-Clusters/Str-Search/Higher-Symm/C4-100
REM VASP from code version vasp.5.4.4.18Apr17-6-g9f103f2a35 (build Oct 11 2019 16:45:47) gamma-only
REM
REM
REM
REM
REM ./C.cell (6bd13a13d554368a30d355f37ece5b26)
REM AIRSS Version 0.9.1 bugfix July 2018 build 013d7b7c2542+ Fri, 06 Jul 2018 19:26:36 +0100
REM compiler GCC version 6.3.0
REM options -cpp -iprefix /gpfs/warwick/csc/orac/software/Core/GCCcore/6.3.0/bin/../lib/gcc/x86_64-pc-linux-gnu/6.3.0/ -mtune=generic -march=x86-64 -g -O0
REM seed 1033727953 1049398992 -749014183 -1195839469 1698643586 -182874335 851444193 315953225 -980945608 -318926281 523942524 179547286
REM
REM C.POTCAR (d86ddea03c3ceb6dc662c8ad6801f873)
REM 
CELL 1.54180   15.00000   15.00000   15.00000   90.00000   90.00000   90.00000
LATT -1
SFAC C  
C      1  0.5062625609697  0.2893392702857  0.4326228155922 1.0
C      1  0.4239796303002  0.3431600477108  0.4671584521913 1.0
C      1  0.4189731263141  0.3649802391656  0.5613781200099 1.0
C      1  0.5031453901938  0.3249407214552  0.5835239065278 1.0
C      1  0.5917591696613  0.3518540644287  0.5530322529496 1.0
C      1  0.5541901513086  0.6087021591448  0.5243609671065 1.0
C      1  0.4587750809377  0.6079971976151  0.4866986056889 1.0
C      1  0.4201135824402  0.6879001387953  0.4734106879343 1.0
C      1  0.4604092473091  0.7623715579176  0.4995438639997 1.0
C      1  0.5948232267026  0.6874968306308  0.5438284748359 1.0
C      1  0.4546488041747  0.4254335429933  0.4296212074880 1.0
C      1  0.4670078284414  0.5090000544201  0.4801380425631 1.0
C      1  0.5940608170854  0.4230812968757  0.4893895195264 1.0
C      1  0.5416526787560  0.3812093216048  0.4141865786760 1.0
C      1  0.5545905454439  0.5093824792114  0.5114588017155 1.0
C      1  0.5485953048010  0.2738754164778  0.5141194442141 1.0
C      1  0.5451116551602  0.7555334612673  0.5183756589806 1.0
END
