TITL C-68508-4222-22 -2.857 3375.00 -475.96394723 0 0 60 (D2h) n - 1
REM
REM Run started: at 2020.12.16 10:09:18 in /rds/project/t2_vol4/rds-t2-cs072/BORA/CARBON/AIRSS/Generating-Clusters/Str-Search/Higher-Symm/Only-C60
REM VASP from code version vasp.5.4.4.18Apr17-6-g9f103f2a35 (build Oct 11 2019 16:45:47) gamma-only
REM
REM
REM
REM
REM ./C.cell (5f7b7a0d59291d2373303da1f58b8d66)
REM AIRSS Version 0.9.1 bugfix July 2018 build 013d7b7c2542+ Fri, 06 Jul 2018 19:26:36 +0100
REM compiler GCC version 4.8.5 20150623 (Red Hat 4.8.5-39)
REM options -cpp -mtune=generic -march=x86-64 -g -O0
REM seed 1370839264 -1202012396 1331396144 -96611892 -1839474589 -607776870 -1429155148 -532941766 2060524688 1381288394 -525756601 548224383
REM
REM C.POTCAR (d86ddea03c3ceb6dc662c8ad6801f873)
REM 
CELL 1.54180   15.00000   15.00000   15.00000   90.00000   90.00000   90.00000
LATT -1
SFAC C  
C      1  0.3769413322208  0.6208942467415  0.6967884848447 1.0
C      1  0.6230583294148  0.6208920458581  0.3032102760631 1.0
C      1  0.3769405443616  0.3791061297911  0.6967884686526 1.0
C      1  0.6230599256335  0.3791038121739  0.3032127624178 1.0
C      1  0.3769407896895  0.6208934573623  0.3032108242580 1.0
C      1  0.6230590573260  0.6208959458270  0.6967876974429 1.0
C      1  0.3769418057391  0.3791053909504  0.3032115267729 1.0
C      1  0.6230587638101  0.3791074769922  0.6967898833518 1.0
C      1  0.5832418958090  0.5914614503902  0.4458549367362 1.0
C      1  0.4167583655449  0.5914615356785  0.5541435282494 1.0
C      1  0.5832418911159  0.4085378235301  0.4458568858746 1.0
C      1  0.4167578254371  0.4085380166265  0.5541441904094 1.0
C      1  0.5832416468318  0.5914627079888  0.5541430131391 1.0
C      1  0.4167582666254  0.5914614800561  0.4458552683522 1.0
C      1  0.5832422447765  0.4085386223115  0.5541450355033 1.0
C      1  0.4167578123316  0.4085381929822  0.4458565325113 1.0
C      1  0.7388631373494  0.4561674386073  0.6129738995845 1.0
C      1  0.2611375980057  0.4561642251776  0.3870260128727 1.0
C      1  0.7388577617460  0.5438383188361  0.6129746618833 1.0
C      1  0.2611380586963  0.5438351399682  0.3870261709202 1.0
C      1  0.7388605085526  0.4561620288712  0.3870264255099 1.0
C      1  0.2611387587229  0.4561653748898  0.6129743622384 1.0
C      1  0.7388630818011  0.5438332159275  0.3870260683942 1.0
C      1  0.2611377628683  0.5438364311881  0.6129741010638 1.0
C      1  0.6144126360210  0.4584143240636  0.2504375750017 1.0
C      1  0.3855880940936  0.4584176184625  0.7495622104499 1.0
C      1  0.6144115380917  0.5415791703675  0.2504386568572 1.0
C      1  0.3855888730916  0.5415823053492  0.7495614808816 1.0
C      1  0.6144115555134  0.4584196171920  0.7495616992798 1.0
C      1  0.3855889764729  0.4584167420436  0.2504386088259 1.0
C      1  0.6144117351827  0.5415858337370  0.7495623867132 1.0
C      1  0.3855882985280  0.5415822367152  0.2504378645978 1.0
C      1  0.3162002982562  0.3947251103430  0.4477712898016 1.0
C      1  0.6838001832377  0.3947262714511  0.5522304143182 1.0
C      1  0.3161999854249  0.6052744526073  0.4477700781138 1.0
C      1  0.6837995017734  0.6052793032407  0.5522269078487 1.0
C      1  0.3162006608423  0.3947257137360  0.5522290119183 1.0
C      1  0.6838001766079  0.3947214147034  0.4477730665430 1.0
C      1  0.3162000973157  0.6052762342189  0.5522285691101 1.0
C      1  0.6837998418447  0.6052741563375  0.4477698539904 1.0
C      1  0.2950319902352  0.3723653451514  0.6489417022639 1.0
C      1  0.7049700258261  0.3723632992238  0.3510604207625 1.0
C      1  0.2950313063904  0.6276340872714  0.6489412071393 1.0
C      1  0.7049670089188  0.6276315644540  0.3510568310417 1.0
C      1  0.2950329539412  0.3723648564114  0.3510584273203 1.0
C      1  0.7049673044831  0.3723689733771  0.6489427824046 1.0
C      1  0.2950307580564  0.6276349169117  0.3510582538829 1.0
C      1  0.7049690604695  0.6276377872744  0.6489406260531 1.0
C      1  0.5456486795565  0.6413273724367  0.6357149503794 1.0
C      1  0.4543509006544  0.6413262792882  0.3642826831367 1.0
C      1  0.5456488289799  0.3586739739466  0.6357174906403 1.0
C      1  0.4543513301843  0.3586728679914  0.3642845800296 1.0
C      1  0.5456481862342  0.6413259186221  0.3642825131739 1.0
C      1  0.4543508759914  0.6413266133767  0.6357153750282 1.0
C      1  0.5456489229520  0.3586723834104  0.3642851978476 1.0
C      1  0.4543513760365  0.3586732013916  0.6357169184140 1.0
C      1  0.5449917146341  0.4999998077399  0.4244647704189 1.0
C      1  0.4550088531646  0.4999995988527  0.5755346124287 1.0
C      1  0.5449915889763  0.5000003163208  0.5755352048325 1.0
C      1  0.4550087176073  0.4999998232534  0.4244647615039 1.0
END
