TITL C-6826-489-189 -4.441 3375.00 -764.13825550 0 0 93 (C1) n - 1
REM
REM Run started: at 2020.12.19 03:28:56 in /gpfs/home/chem/mssmkc/CARBON/AIRSS/Generating-Clusters/Str-Search/Higher-Symm/C4-100
REM VASP from code version vasp.5.4.4.18Apr17-6-g9f103f2a35 (build Oct 11 2019 16:45:47) gamma-only
REM
REM
REM
REM
REM ./C.cell (6bd13a13d554368a30d355f37ece5b26)
REM AIRSS Version 0.9.1 bugfix July 2018 build 013d7b7c2542+ Fri, 06 Jul 2018 19:26:36 +0100
REM compiler GCC version 6.3.0
REM options -cpp -iprefix /gpfs/warwick/csc/orac/software/Core/GCCcore/6.3.0/bin/../lib/gcc/x86_64-pc-linux-gnu/6.3.0/ -mtune=generic -march=x86-64 -g -O0
REM seed -585210081 -1300493934 -1039019301 1753032274 -1213904442 -1072633375 1408020456 743398802 1654786186 364818965 1258654890 1045591277
REM
REM C.POTCAR (d86ddea03c3ceb6dc662c8ad6801f873)
REM 
CELL 1.54180   15.00000   15.00000   15.00000   90.00000   90.00000   90.00000
LATT -1
SFAC C  
C      1  0.7304268391990  0.4020963249581  0.7382189493975 1.0
C      1  0.3076986152353  0.3417526285208  0.6811687223986 1.0
C      1  0.4736446021138  0.7570695130367  0.6806147075818 1.0
C      1  0.7318973351189  0.4201331733630  0.2665343355992 1.0
C      1  0.3075670004293  0.3502541847412  0.3155560657435 1.0
C      1  0.4536451007851  0.7487965646601  0.2592503007928 1.0
C      1  0.2747252217514  0.4242548103781  0.7130157543457 1.0
C      1  0.6891641731445  0.3391673680153  0.6813033578752 1.0
C      1  0.5441695972655  0.7517515162958  0.7379402124889 1.0
C      1  0.2658549319644  0.4107651720040  0.2607821459597 1.0
C      1  0.6924859024997  0.3552484636710  0.3172315447161 1.0
C      1  0.5246378486583  0.7419777483467  0.3174761346351 1.0
C      1  0.6138381686266  0.6311983805392  0.2420600220152 1.0
C      1  0.5497290395982  0.3399914401859  0.2355583314873 1.0
C      1  0.3285387417483  0.5437560251515  0.2297090290376 1.0
C      1  0.6300464167304  0.6276093719499  0.7750383652091 1.0
C      1  0.5463233003439  0.3556517220621  0.7680875072587 1.0
C      1  0.3375627266738  0.5583644836820  0.7771969757274 1.0
C      1  0.3731391505141  0.6267808606893  0.2274521983935 1.0
C      1  0.4517956337263  0.3379607793056  0.2349506674068 1.0
C      1  0.6660873789907  0.5517189315408  0.2370138390037 1.0
C      1  0.3917595507803  0.6365844044372  0.7646905480982 1.0
C      1  0.4515542941678  0.3576446409628  0.7687724805168 1.0
C      1  0.6758233105001  0.5445520041655  0.7819391533301 1.0
C      1  0.3623520244222  0.2916790055311  0.5430128316882 1.0
C      1  0.4139541064496  0.7363260467977  0.5378234699458 1.0
C      1  0.7378217067810  0.4244503251067  0.5522361028339 1.0
C      1  0.3559574953278  0.2931369650019  0.4496541414724 1.0
C      1  0.4164681705839  0.7307980995082  0.4434442683849 1.0
C      1  0.7350831030435  0.4404216318005  0.4565432360156 1.0
C      1  0.6336350187473  0.2952694450041  0.5418503862977 1.0
C      1  0.5766367251374  0.7401942503858  0.5539531512536 1.0
C      1  0.2564670583446  0.4233977266821  0.5486466074264 1.0
C      1  0.6438711867954  0.2954040677557  0.4495307208577 1.0
C      1  0.5838044196992  0.7284530838646  0.4594283009087 1.0
C      1  0.2638073761646  0.4381262254600  0.4531868451892 1.0
C      1  0.4506961802644  0.4228005442471  0.1829865054447 1.0
C      1  0.4502662381448  0.5881242644010  0.1786658456724 1.0
C      1  0.5941855362771  0.5066940379965  0.1846818183587 1.0
C      1  0.4516626771179  0.4351784764052  0.8305652505243 1.0
C      1  0.4632442744611  0.5997711147231  0.8242199716958 1.0
C      1  0.6016798023276  0.5079442895302  0.8365126884438 1.0
C      1  0.5495525274714  0.4252342822576  0.1849499514087 1.0
C      1  0.5420306123214  0.5903740889216  0.1856970749106 1.0
C      1  0.4025892803461  0.5008315470398  0.1780268876625 1.0
C      1  0.5512009474478  0.4313678701520  0.8314433459498 1.0
C      1  0.5548668303626  0.5962167027613  0.8311850363615 1.0
C      1  0.4086839371436  0.5166094748485  0.8310094568678 1.0
C      1  0.4432506634161  0.4226973372729  0.5689949651780 1.0
C      1  0.3931895859601  0.5828094969660  0.5691980162375 1.0
C      1  0.6119659719384  0.5006922243862  0.6091046618536 1.0
C      1  0.4491687637071  0.4188868399582  0.4660050918204 1.0
C      1  0.4563311935812  0.5800603966492  0.4968389327822 1.0
C      1  0.5587075582108  0.5162029498704  0.4180406376523 1.0
C      1  0.5498936909952  0.4290518916106  0.5701614102293 1.0
C      1  0.6019877337945  0.5886436379547  0.5766633094449 1.0
C      1  0.3795598577858  0.4970593334764  0.6013959791116 1.0
C      1  0.5454069364476  0.4358977111964  0.4678111729367 1.0
C      1  0.5487502266195  0.5865947425523  0.4936105239820 1.0
C      1  0.4591748240513  0.5056261367025  0.4344735914368 1.0
C      1  0.6503822348577  0.6855396026593  0.3980046087008 1.0
C      1  0.5833790846138  0.2638362576252  0.3810312421596 1.0
C      1  0.2736716694809  0.5218628862829  0.3927960576441 1.0
C      1  0.6197225366134  0.6760809306204  0.6139057404778 1.0
C      1  0.5532973566082  0.3239481399512  0.6013281760614 1.0
C      1  0.2843644279056  0.4818438814442  0.6301102761286 1.0
C      1  0.3536767534394  0.6828293262102  0.3831701812907 1.0
C      1  0.4176350302312  0.2611459732454  0.3811492376709 1.0
C      1  0.7298222409014  0.5267932121768  0.3999222601423 1.0
C      1  0.3733224484790  0.6728071357187  0.6009695003780 1.0
C      1  0.4424722337366  0.3207749506374  0.6033913824226 1.0
C      1  0.7072835133346  0.4864323250385  0.6259594114924 1.0
C      1  0.7300113771424  0.4915115656797  0.7229124673947 1.0
C      1  0.3994947333224  0.3275291752877  0.6964704338241 1.0
C      1  0.3975531610436  0.6962086644062  0.6912954809529 1.0
C      1  0.7257046772946  0.5068310119534  0.2952766105771 1.0
C      1  0.3907630317235  0.3029334228629  0.2969470185674 1.0
C      1  0.3788018190498  0.6985019927629  0.2886030661054 1.0
C      1  0.2696561629244  0.5126543234835  0.7270391668634 1.0
C      1  0.5969935504823  0.3266563421314  0.6942485889248 1.0
C      1  0.6140824040804  0.6933572548537  0.7086686993553 1.0
C      1  0.2739630421130  0.4981228593072  0.2923229328257 1.0
C      1  0.6108479814536  0.3061474042874  0.2976654154425 1.0
C      1  0.6101066497541  0.6968398705573  0.3088580496322 1.0
C      1  0.5042364240876  0.7492204867617  0.4091445042258 1.0
C      1  0.4908082624033  0.7686496111432  0.5863086660043 1.0
C      1  0.7055701334012  0.3603211871994  0.4108864782768 1.0
C      1  0.2906879041046  0.3371433704435  0.5852747530793 1.0
C      1  0.2943973270586  0.3570364608608  0.4091557913536 1.0
C      1  0.7062988411814  0.3380283116452  0.5865841139525 1.0
C      1  0.3057205405349  0.6064222995424  0.4120129600562 1.0
C      1  0.7044553454765  0.6117288655298  0.4214452480960 1.0
C      1  0.5007979789106  0.2321539202499  0.4053813426625 1.0
END
