TITL C-68071-43-16 -1.942 3375.00 -338.50336695 0 0 42 (Cs) n - 1
REM
REM Run started: at 2020.11.28 11:12:21 in /rds/project/t2_vol4/rds-t2-cs072/BORA/CARBON/AIRSS/Generating-Clusters/Str-Search/Higher-Symm/C10-100
REM VASP from code version vasp.5.4.4.18Apr17-6-g9f103f2a35 (build Oct 11 2019 16:45:47) gamma-only
REM
REM
REM
REM
REM ./C.cell (f39ce9773e2efe3fa5bbdf770a4156b8)
REM AIRSS Version 0.9.1 bugfix July 2018 build 013d7b7c2542+ Fri, 06 Jul 2018 19:26:36 +0100
REM compiler GCC version 4.8.5 20150623 (Red Hat 4.8.5-39)
REM options -cpp -mtune=generic -march=x86-64 -g -O0
REM seed 1638674059 843860955 -485552499 -1817541090 258874530 131587075 176987087 1037100743 -905393347 -1135123964 -87404504 -125276813
REM
REM C.POTCAR (d86ddea03c3ceb6dc662c8ad6801f873)
REM 
CELL 1.54180   15.00000   15.00000   15.00000   90.00000   90.00000   90.00000
LATT -1
SFAC C  
C      1  0.5032090372403  0.5974739006696  0.3427421870606 1.0
C      1  0.5032090380174  0.4025261062825  0.3427421432349 1.0
C      1  0.3562677290098  0.4473764811720  0.3788470481906 1.0
C      1  0.3562677232149  0.5526235286100  0.3788470373761 1.0
C      1  0.4749906303639  0.6537077489459  0.4197940842898 1.0
C      1  0.4749906460722  0.3462922832537  0.4197940842456 1.0
C      1  0.2877812859404  0.6049541773814  0.4931238570658 1.0
C      1  0.2877812860361  0.3950458285461  0.4931238488117 1.0
C      1  0.2624952825629  0.5505927006384  0.4189979859365 1.0
C      1  0.2624952850311  0.4494072987009  0.4189979797851 1.0
C      1  0.3070032294517  0.5519312126735  0.5758299826313 1.0
C      1  0.3070032243892  0.4480687946624  0.5758299823652 1.0
C      1  0.6156611833776  0.4506204942093  0.6720365662077 1.0
C      1  0.6156611859426  0.5493794747435  0.6720366147836 1.0
C      1  0.6633931928412  0.4515826065811  0.4017411097708 1.0
C      1  0.6633931830011  0.5484173903720  0.4017411710896 1.0
C      1  0.7073558367938  0.4510593349483  0.6409873885133 1.0
C      1  0.7073558527166  0.5489406347529  0.6409874515028 1.0
C      1  0.7335729905746  0.4514169680623  0.5460626642944 1.0
C      1  0.7335729903817  0.5485830447724  0.5460627181148 1.0
C      1  0.4563948612368  0.5528658956073  0.6295054208058 1.0
C      1  0.4563948551376  0.4471340912849  0.6295054302874 1.0
C      1  0.5371857732142  0.3177409540845  0.4805880115984 1.0
C      1  0.5371857533725  0.6822590554132  0.4805880367036 1.0
C      1  0.3922269561654  0.6076149359285  0.4560344706007 1.0
C      1  0.3922269694331  0.3923850792182  0.4560344823681 1.0
C      1  0.4287147621805  0.5483292840328  0.3089710514041 1.0
C      1  0.4287147547395  0.4516707087150  0.3089710084961 1.0
C      1  0.5637622525885  0.3361883035056  0.5713031966816 1.0
C      1  0.5637622473244  0.6638116829979  0.5713032099717 1.0
C      1  0.5849726343161  0.4511720592805  0.3411905960409 1.0
C      1  0.5849726217481  0.5488279553578  0.3411906682459 1.0
C      1  0.6901633252180  0.5980390735418  0.4772596238639 1.0
C      1  0.6901633291258  0.4019609311462  0.4772595800752 1.0
C      1  0.6276290895255  0.3325810478131  0.5032280131370 1.0
C      1  0.6276290774713  0.6674189631504  0.5032280310274 1.0
C      1  0.4078907411940  0.4499413190628  0.5375509830150 1.0
C      1  0.4078907369437  0.5500586960744  0.5375509945972 1.0
C      1  0.3560822279236  0.5482738304329  0.6661274551686 1.0
C      1  0.3560822305007  0.4517261590696  0.6661274128670 1.0
C      1  0.5432470005751  0.6001596321964  0.6380782040815 1.0
C      1  0.5432469871066  0.3998403321079  0.6380782136927 1.0
END
