TITL C-6826-489-97 -2.417 3375.00 -417.93012632 0 0 50 (C1) n - 1
REM
REM Run started: at 2020.12.18 11:33:10 in /gpfs/home/chem/mssmkc/CARBON/AIRSS/Generating-Clusters/Str-Search/Higher-Symm/C4-100
REM VASP from code version vasp.5.4.4.18Apr17-6-g9f103f2a35 (build Oct 11 2019 16:45:47) gamma-only
REM
REM
REM
REM
REM ./C.cell (6bd13a13d554368a30d355f37ece5b26)
REM AIRSS Version 0.9.1 bugfix July 2018 build 013d7b7c2542+ Fri, 06 Jul 2018 19:26:36 +0100
REM compiler GCC version 6.3.0
REM options -cpp -iprefix /gpfs/warwick/csc/orac/software/Core/GCCcore/6.3.0/bin/../lib/gcc/x86_64-pc-linux-gnu/6.3.0/ -mtune=generic -march=x86-64 -g -O0
REM seed 975094459 166495433 -505132699 1446167953 1737280076 62857717 -1209707704 1203209495 -891840241 915592912 -63453166 -406056360
REM
REM C.POTCAR (d86ddea03c3ceb6dc662c8ad6801f873)
REM 
CELL 1.54180   15.00000   15.00000   15.00000   90.00000   90.00000   90.00000
LATT -1
SFAC C  
C      1  0.6372091470506  0.6900689320353  0.4745995305366 1.0
C      1  0.3581467222965  0.6741930129395  0.5048491703238 1.0
C      1  0.6586020947606  0.3319578186704  0.5011695795307 1.0
C      1  0.3727976226887  0.3181046904766  0.4878098656324 1.0
C      1  0.4849803713666  0.6779709859665  0.6785364694321 1.0
C      1  0.5034181490920  0.6762498899835  0.3350819357280 1.0
C      1  0.5275991155083  0.2871259464035  0.6421805096659 1.0
C      1  0.5014276372432  0.3222798836689  0.3400954667866 1.0
C      1  0.3396397607173  0.6417980415790  0.5968509413121 1.0
C      1  0.6574145309281  0.6502757667014  0.3875443849950 1.0
C      1  0.3510036356499  0.3523778779332  0.3986952777961 1.0
C      1  0.6625123102822  0.3685515451619  0.5927398875786 1.0
C      1  0.5965179065893  0.6466718973252  0.3193658494729 1.0
C      1  0.3910498271496  0.6437467807870  0.6727243758027 1.0
C      1  0.4091469825521  0.3530815887532  0.3285103810392 1.0
C      1  0.5975423703891  0.3559479486363  0.6560137215161 1.0
C      1  0.4899939005381  0.7279371650669  0.4096387727098 1.0
C      1  0.5008443886151  0.7626653313788  0.5457575709294 1.0
C      1  0.5242665055657  0.2539684194038  0.5546874602907 1.0
C      1  0.5182458067461  0.2751645596819  0.4169241044059 1.0
C      1  0.4271877531927  0.7307952770978  0.4832426535451 1.0
C      1  0.5634866831927  0.7492055929251  0.4748379036677 1.0
C      1  0.5890731037892  0.2735566710180  0.4833391025172 1.0
C      1  0.4506055445224  0.2651545774790  0.4915882159807 1.0
C      1  0.4383197831129  0.4385035681457  0.2957768902905 1.0
C      1  0.5526485865763  0.4355656170469  0.6849612457922 1.0
C      1  0.4213609356068  0.5571395118324  0.7022335368487 1.0
C      1  0.5640687768322  0.5601751118442  0.2928176439998 1.0
C      1  0.3194422693606  0.4355598920996  0.4343022315050 1.0
C      1  0.6833192610577  0.4559139505930  0.5592182111086 1.0
C      1  0.6831875473902  0.5680012200905  0.4287848205176 1.0
C      1  0.3131679940004  0.5559900404943  0.5603402586437 1.0
C      1  0.3347482117864  0.4689322301591  0.5954377495248 1.0
C      1  0.6640344380575  0.4807750008593  0.3964916084618 1.0
C      1  0.3413020444502  0.5222314576980  0.4006839550999 1.0
C      1  0.6468657945484  0.5387270894687  0.5898542437271 1.0
C      1  0.5977464281311  0.4756776556394  0.3224268681745 1.0
C      1  0.3921531274923  0.4729650567823  0.6750700763696 1.0
C      1  0.4056865034095  0.5234194040664  0.3250978397558 1.0
C      1  0.5799674489227  0.5262754087682  0.6638977404513 1.0
C      1  0.5146452529404  0.5871712757728  0.6995751556638 1.0
C      1  0.4707408220029  0.5888820473964  0.3034194330196 1.0
C      1  0.5323426284400  0.4098141208778  0.3048695979754 1.0
C      1  0.4580324843490  0.4066230851627  0.6941476195823 1.0
C      1  0.6633508207959  0.6043010466459  0.5191036467423 1.0
C      1  0.3269444920825  0.5868048332785  0.4693096732165 1.0
C      1  0.3312748650409  0.4032695915232  0.5262604345397 1.0
C      1  0.6816540253905  0.4208718948214  0.4674049208351 1.0
C      1  0.5247033435492  0.7435335239748  0.6321076313071 1.0
C      1  0.4455802442474  0.3143703638855  0.6796238356521 1.0
END
