TITL C-6826-489-38 -2.912 3375.00 -466.65959640 0 0 59 (C1) n - 1
REM
REM Run started: at 2020.12.18 00:24:44 in /gpfs/home/chem/mssmkc/CARBON/AIRSS/Generating-Clusters/Str-Search/Higher-Symm/C4-100
REM VASP from code version vasp.5.4.4.18Apr17-6-g9f103f2a35 (build Oct 11 2019 16:45:47) gamma-only
REM
REM
REM
REM
REM ./C.cell (6bd13a13d554368a30d355f37ece5b26)
REM AIRSS Version 0.9.1 bugfix July 2018 build 013d7b7c2542+ Fri, 06 Jul 2018 19:26:36 +0100
REM compiler GCC version 6.3.0
REM options -cpp -iprefix /gpfs/warwick/csc/orac/software/Core/GCCcore/6.3.0/bin/../lib/gcc/x86_64-pc-linux-gnu/6.3.0/ -mtune=generic -march=x86-64 -g -O0
REM seed -1563578887 1796291941 -1569028036 46845707 -1548789616 -2085331287 477513579 1739517758 1722221662 907497036 -21079947 -255983730
REM
REM C.POTCAR (d86ddea03c3ceb6dc662c8ad6801f873)
REM 
CELL 1.54180   15.00000   15.00000   15.00000   90.00000   90.00000   90.00000
LATT -1
SFAC C  
C      1  0.3947669083959  0.5613727771541  0.2168640917711 1.0
C      1  0.5200959138825  0.3998093425475  0.1890930059739 1.0
C      1  0.6265458136424  0.5567009279702  0.2148431005333 1.0
C      1  0.4153808303022  0.5408920220654  0.7777593671102 1.0
C      1  0.5170447477165  0.4091908057869  0.7774891441293 1.0
C      1  0.5792772079904  0.5626322986676  0.7710492066178 1.0
C      1  0.5990633752232  0.3245917707190  0.6467293256311 1.0
C      1  0.6071154296307  0.6751273388540  0.6390360288031 1.0
C      1  0.2927651404183  0.5165767738711  0.6521522483538 1.0
C      1  0.5441212086359  0.3703541527945  0.5818471267399 1.0
C      1  0.5855341434690  0.6034950796279  0.5772342582306 1.0
C      1  0.3629248340750  0.5286462695249  0.5855281703271 1.0
C      1  0.5917842985613  0.5336650533123  0.1420050591907 1.0
C      1  0.4297858862955  0.5258812779122  0.1495051549464 1.0
C      1  0.5120636223270  0.4820460755383  0.1436755607390 1.0
C      1  0.5747235850842  0.4490190309318  0.5411949564455 1.0
C      1  0.5005662131530  0.5904325884659  0.5424832035080 1.0
C      1  0.4162131853821  0.4564569607775  0.5602688927771 1.0
C      1  0.5046770051753  0.7460462271786  0.4437434828297 1.0
C      1  0.2714925017060  0.3930355039639  0.4636640401620 1.0
C      1  0.7103334418221  0.3694947447307  0.4482457917850 1.0
C      1  0.6713509549330  0.4843089472127  0.3691839242672 1.0
C      1  0.4256958821788  0.6510929912960  0.3658355187477 1.0
C      1  0.3759108856873  0.3578579142562  0.3744361944423 1.0
C      1  0.5247951179218  0.6711738073679  0.3854891496608 1.0
C      1  0.3204091622361  0.4395279518094  0.3901874555387 1.0
C      1  0.6368029098479  0.3907691500189  0.3895461476304 1.0
C      1  0.4665394669231  0.3340142569716  0.4019090970852 1.0
C      1  0.6505589774911  0.5584500008856  0.4414354804345 1.0
C      1  0.3693636180788  0.6020251468291  0.4402083209772 1.0
C      1  0.6713984826235  0.5818502258078  0.7842533259141 1.0
C      1  0.3552644646926  0.6104161841610  0.7984731450700 1.0
C      1  0.4863816933573  0.3207087210663  0.7917469177011 1.0
C      1  0.7272517764504  0.5305806712305  0.4965262592050 1.0
C      1  0.3561519959490  0.6839829664532  0.4930374132720 1.0
C      1  0.4189664789453  0.3119241761322  0.4910419597262 1.0
C      1  0.6411205993944  0.5243412919522  0.5434007453898 1.0
C      1  0.4024678686528  0.6120370094346  0.5423326275593 1.0
C      1  0.4450577908624  0.3613948042460  0.5682742145679 1.0
C      1  0.6810743301477  0.3054807058753  0.6051418609471 1.0
C      1  0.5841658021565  0.7542436647873  0.5952282541566 1.0
C      1  0.2265524110382  0.4643375282138  0.6132353151852 1.0
C      1  0.6012087080034  0.6124076718022  0.3758652273378 1.0
C      1  0.3428764327370  0.5306679293886  0.3764265620753 1.0
C      1  0.5472249918549  0.3593409657589  0.3589125519587 1.0
C      1  0.5486497338756  0.7703868781752  0.5209371080031 1.0
C      1  0.2321046979962  0.4235435130825  0.5382781203849 1.0
C      1  0.7088618400290  0.3231179794506  0.5283035697531 1.0
C      1  0.3318018225247  0.3149736141422  0.4502010847429 1.0
C      1  0.7480803300562  0.4597355013232  0.4356622992227 1.0
C      1  0.4080239417943  0.7334402692545  0.4300008640051 1.0
C      1  0.5577295804620  0.3361705197807  0.7321754780529 1.0
C      1  0.6200826260918  0.6341284095003  0.7246062771652 1.0
C      1  0.3312581110812  0.5436798467279  0.7348116139816 1.0
C      1  0.5327784738781  0.3766435353790  0.2676325990871 1.0
C      1  0.6365184411280  0.5571538345396  0.3050749192798 1.0
C      1  0.3812375707308  0.5822507494220  0.3040397571207 1.0
C      1  0.5044080395631  0.5035702855038  0.7798843328898 1.0
C      1  0.4959600957372  0.4971695583669  0.5283939908564 1.0
END
