TITL C-6826-489-183 -3.302 3375.00 -536.06147354 0 0 67 (C1) n - 1
REM
REM Run started: at 2020.12.19 02:37:28 in /gpfs/home/chem/mssmkc/CARBON/AIRSS/Generating-Clusters/Str-Search/Higher-Symm/C4-100
REM VASP from code version vasp.5.4.4.18Apr17-6-g9f103f2a35 (build Oct 11 2019 16:45:47) gamma-only
REM
REM
REM
REM
REM ./C.cell (6bd13a13d554368a30d355f37ece5b26)
REM AIRSS Version 0.9.1 bugfix July 2018 build 013d7b7c2542+ Fri, 06 Jul 2018 19:26:36 +0100
REM compiler GCC version 6.3.0
REM options -cpp -iprefix /gpfs/warwick/csc/orac/software/Core/GCCcore/6.3.0/bin/../lib/gcc/x86_64-pc-linux-gnu/6.3.0/ -mtune=generic -march=x86-64 -g -O0
REM seed 205931099 710215009 -1608589262 624912664 1935388149 -43398479 -408503488 1961121449 -759293320 -328079806 894860660 -974166386
REM
REM C.POTCAR (d86ddea03c3ceb6dc662c8ad6801f873)
REM 
CELL 1.54180   15.00000   15.00000   15.00000   90.00000   90.00000   90.00000
LATT -1
SFAC C  
C      1  0.7442682899180  0.3612826491806  0.4024956674959 1.0
C      1  0.7451021806305  0.5240290305563  0.3247321592647 1.0
C      1  0.7478790906701  0.6745685140472  0.4216381064736 1.0
C      1  0.6980426031063  0.6562100726972  0.6058618527692 1.0
C      1  0.7338574592261  0.4866083183265  0.6860544046884 1.0
C      1  0.7398419416935  0.3431782953705  0.5759563643090 1.0
C      1  0.2632418611563  0.3608201469962  0.4010471643601 1.0
C      1  0.2699988274831  0.5242230308672  0.3272132042232 1.0
C      1  0.2760845366911  0.6666869378173  0.4308508039295 1.0
C      1  0.2816758790543  0.6461289837694  0.6127989499541 1.0
C      1  0.2629664032172  0.4779941228577  0.6828947106944 1.0
C      1  0.2594108617106  0.3401308485662  0.5724209193332 1.0
C      1  0.4542690524889  0.5710201913234  0.6001643120298 1.0
C      1  0.4502977370231  0.4692669861292  0.6203960000651 1.0
C      1  0.4502643082588  0.3976407138568  0.5412009426956 1.0
C      1  0.4545482883813  0.4146546584919  0.4363934836228 1.0
C      1  0.4601329389469  0.5022488942600  0.3796130242670 1.0
C      1  0.4722908712607  0.5998920835932  0.4218846520032 1.0
C      1  0.5576484699809  0.5635806606139  0.5785949320116 1.0
C      1  0.5528656999591  0.4679231117973  0.6176459375705 1.0
C      1  0.5533331505484  0.3942525389051  0.5438859551696 1.0
C      1  0.5576051867956  0.4103449640857  0.4395050168368 1.0
C      1  0.5632648308336  0.4971988545440  0.3775849316883 1.0
C      1  0.5669073365179  0.5978379425117  0.3930650600210 1.0
C      1  0.3459131800918  0.7019866938549  0.4045500789265 1.0
C      1  0.3516966698234  0.6754297180845  0.6470827399705 1.0
C      1  0.3306994222104  0.4581336408490  0.7261986437365 1.0
C      1  0.3304352333194  0.2986643732669  0.5829975890635 1.0
C      1  0.3345231378755  0.3260541566538  0.3768685926435 1.0
C      1  0.3379387852348  0.5161141479105  0.2801545101167 1.0
C      1  0.6834882870263  0.7048133177697  0.3800217588911 1.0
C      1  0.6852539245037  0.7449427284637  0.5971681285191 1.0
C      1  0.6675802506808  0.4670392492105  0.7312707682253 1.0
C      1  0.6710304928122  0.2980174007530  0.5871877628024 1.0
C      1  0.6747819578666  0.3235147709483  0.3774788789443 1.0
C      1  0.6802609034327  0.5116536129441  0.2741043454763 1.0
C      1  0.7817711044734  0.4230847692205  0.5460313518481 1.0
C      1  0.7848273606869  0.4321084412594  0.4511245052234 1.0
C      1  0.7841153532978  0.5192276333667  0.4117944230294 1.0
C      1  0.7767074221664  0.5974698364246  0.4681324541887 1.0
C      1  0.7584537998096  0.5883721672445  0.5618781563915 1.0
C      1  0.7703364879361  0.5021264164951  0.6008672294969 1.0
C      1  0.2148667261146  0.4186713516816  0.5423999841400 1.0
C      1  0.2169473165151  0.4295605832902  0.4474472932131 1.0
C      1  0.2226867880389  0.5174816154369  0.4096536813978 1.0
C      1  0.2277921205501  0.5939947629536  0.4675094380763 1.0
C      1  0.2296713015478  0.5837194740538  0.5630725788927 1.0
C      1  0.2201853496103  0.4953648424857  0.6004105060389 1.0
C      1  0.4231031032857  0.3030194122073  0.5737557902352 1.0
C      1  0.4273314077624  0.3299871319134  0.3826316431429 1.0
C      1  0.4310783844010  0.5056102366988  0.2816549949026 1.0
C      1  0.4373538876489  0.6925052676811  0.3909220005944 1.0
C      1  0.4444471109247  0.6570620809045  0.6507280096766 1.0
C      1  0.4232133118696  0.4493245163802  0.7164167892540 1.0
C      1  0.5779515724258  0.3004250987577  0.5769889606777 1.0
C      1  0.5818017160832  0.3258176441100  0.3848184189819 1.0
C      1  0.5862905365010  0.5001602983304  0.2782521250498 1.0
C      1  0.5917523279870  0.6858426883242  0.3693957783913 1.0
C      1  0.6012691143711  0.6407328791716  0.6249776309977 1.0
C      1  0.5762461985937  0.4539512381103  0.7167000077979 1.0
C      1  0.5115147608264  0.7387157908566  0.3626073691042 1.0
C      1  0.5070537062949  0.5045437684823  0.2268029900932 1.0
C      1  0.4995760352415  0.2516351724634  0.5914907113653 1.0
C      1  0.5040384676323  0.2832650917911  0.3566274909767 1.0
C      1  0.5317668814597  0.6881595035326  0.6692841756306 1.0
C      1  0.4998654082630  0.4415292201825  0.7693515183691 1.0
C      1  0.4886034872513  0.5806480043163  0.5137695400294 1.0
END
