TITL C-68134-4351-34 -4.491 3375.00 -777.98914476 0 0 95 (C1) n - 1
REM
REM Run started: at 2020.12.28 11:58:06 in /rds/project/t2_vol4/rds-t2-cs072/BORA/CARBON/AIRSS/Generating-Clusters/Str-Search/Higher-Symm/C10-100
REM VASP from code version vasp.5.4.4.18Apr17-6-g9f103f2a35 (build Oct 11 2019 16:45:47) gamma-only
REM
REM
REM
REM
REM ./C.cell (f39ce9773e2efe3fa5bbdf770a4156b8)
REM AIRSS Version 0.9.1 bugfix July 2018 build 013d7b7c2542+ Fri, 06 Jul 2018 19:26:36 +0100
REM compiler GCC version 4.8.5 20150623 (Red Hat 4.8.5-39)
REM options -cpp -mtune=generic -march=x86-64 -g -O0
REM seed -1721333758 -1033491416 614749323 951155945 2125338013 -714802917 815664146 1106083501 -1632208151 -1909269234 -2004290144 -282045285
REM
REM C.POTCAR (d86ddea03c3ceb6dc662c8ad6801f873)
REM 
CELL 1.54180   15.00000   15.00000   15.00000   90.00000   90.00000   90.00000
LATT -1
SFAC C  
C      1  0.5772557406559  0.2985276888634  0.6894743496763 1.0
C      1  0.5784900337422  0.5240453464056  0.7802585845599 1.0
C      1  0.5690847893882  0.7159499788146  0.6521885973729 1.0
C      1  0.5728498375322  0.7616291408080  0.4222485463333 1.0
C      1  0.5872689777452  0.6010478176974  0.2403390953560 1.0
C      1  0.5749663650758  0.3627395541714  0.2680310664304 1.0
C      1  0.5739148075553  0.2275579434009  0.4616868195952 1.0
C      1  0.3613065483255  0.7292186180396  0.6576087005573 1.0
C      1  0.3620702340844  0.7379529535159  0.4140934522674 1.0
C      1  0.3823087156024  0.6077366383641  0.2255629215049 1.0
C      1  0.3649259559911  0.3720377116727  0.2721269885469 1.0
C      1  0.3606447756999  0.2372117429596  0.4705836657989 1.0
C      1  0.3760934709742  0.2901703936768  0.7033013961217 1.0
C      1  0.3595633336511  0.5161459556301  0.7638745409977 1.0
C      1  0.2736445963674  0.6023111922494  0.3621414601959 1.0
C      1  0.2766857844334  0.5086208170918  0.3220927356186 1.0
C      1  0.2833338723648  0.3845672268410  0.4252724165326 1.0
C      1  0.2744589324471  0.3468864679479  0.5811914806964 1.0
C      1  0.2714751440254  0.4221232154246  0.6500569728601 1.0
C      1  0.2568739086446  0.5958643489943  0.6368832750647 1.0
C      1  0.2843290352967  0.6416211578817  0.5386270731377 1.0
C      1  0.6472216905127  0.2884182933634  0.4735392776622 1.0
C      1  0.6511763297407  0.3445783275399  0.6511138437465 1.0
C      1  0.6520019845412  0.5189708110236  0.7187874101498 1.0
C      1  0.6477440570948  0.6729831058957  0.6207897460688 1.0
C      1  0.6484177774399  0.7013603888978  0.4362663012160 1.0
C      1  0.6569513893707  0.5756544761899  0.3006336156811 1.0
C      1  0.6516819531903  0.3914210479995  0.3199480977437 1.0
C      1  0.6827380906003  0.3252559599116  0.5592757539067 1.0
C      1  0.6851976582291  0.4348466919763  0.6759609160877 1.0
C      1  0.6856935156407  0.5927031562813  0.6616518067465 1.0
C      1  0.6824892620420  0.6779155228206  0.5275001809499 1.0
C      1  0.6869662582265  0.6339195767212  0.3748610546771 1.0
C      1  0.6875276971189  0.4826164810255  0.3177724094150 1.0
C      1  0.6848142147256  0.3473825200696  0.4022967164833 1.0
C      1  0.4728432420303  0.4312497304081  0.6168751759664 1.0
C      1  0.4781243316604  0.5220816609137  0.6309815475059 1.0
C      1  0.3773041267575  0.6001869816909  0.5397640786335 1.0
C      1  0.4906742057385  0.6156089048685  0.4296539056115 1.0
C      1  0.4812455301255  0.5462201990049  0.3703597149664 1.0
C      1  0.4695334828326  0.4057315534852  0.4093316344365 1.0
C      1  0.4714413327886  0.3661146340723  0.4896675588969 1.0
C      1  0.4275116437417  0.5958473750761  0.6235249197014 1.0
C      1  0.4383249860942  0.6555524546078  0.4909233691070 1.0
C      1  0.4889601553363  0.6302641463850  0.3364013632011 1.0
C      1  0.4580912862758  0.4657613503973  0.3427120022154 1.0
C      1  0.4675655623805  0.3139039200359  0.4137531289971 1.0
C      1  0.4533169563227  0.3542778487582  0.5768045919330 1.0
C      1  0.4816952333810  0.4596174174666  0.7020591278292 1.0
C      1  0.3053422778113  0.5834727271476  0.2755209755419 1.0
C      1  0.2945490237244  0.4128338337173  0.3312031974117 1.0
C      1  0.2946536186408  0.3127217493788  0.4896897709736 1.0
C      1  0.3007082412719  0.3342054032095  0.6691918693793 1.0
C      1  0.2871689837234  0.5121186796839  0.6847327548668 1.0
C      1  0.2799432098320  0.6852710872548  0.6278365551131 1.0
C      1  0.2878971347930  0.6677672490783  0.4307502835174 1.0
C      1  0.4310692551423  0.4438449722008  0.2443560115275 1.0
C      1  0.4100096598176  0.2411153176025  0.3805182418125 1.0
C      1  0.4305611196390  0.2632402245541  0.6236819790338 1.0
C      1  0.4196893798222  0.4366611748944  0.7828801584069 1.0
C      1  0.4195430780835  0.6622141720972  0.7031843540181 1.0
C      1  0.4198413355123  0.7564458197895  0.4951588762768 1.0
C      1  0.4324095288819  0.6820770032910  0.2656167889297 1.0
C      1  0.5272729300826  0.2414897873366  0.6286361600428 1.0
C      1  0.5256311903132  0.4391674997502  0.7870663766049 1.0
C      1  0.5173544044340  0.6753711919309  0.7224590916727 1.0
C      1  0.5191792270877  0.7838650791706  0.4981157390969 1.0
C      1  0.5337150496019  0.6852520355619  0.2682053131300 1.0
C      1  0.5286691197789  0.4350618722126  0.2238869698567 1.0
C      1  0.5177116678841  0.2352962347850  0.3771211389889 1.0
C      1  0.4352618162071  0.5360330646911  0.1986290330347 1.0
C      1  0.4124905369004  0.2925315821569  0.2896365734335 1.0
C      1  0.4191899545770  0.2075779572542  0.5390084180008 1.0
C      1  0.4290016217545  0.3366487268179  0.7658724498485 1.0
C      1  0.4131689162542  0.5934414602676  0.7771300874802 1.0
C      1  0.4164038871489  0.7709905985294  0.5959896283935 1.0
C      1  0.4206909118099  0.7525559979120  0.3355072980493 1.0
C      1  0.5331593172527  0.5300542424706  0.1997153482815 1.0
C      1  0.5166439948088  0.2895325597289  0.2905820234984 1.0
C      1  0.5205219569195  0.2024248575558  0.5384119397168 1.0
C      1  0.5259843324334  0.3375361471709  0.7640389724124 1.0
C      1  0.5163176801709  0.5999491315800  0.7811275889171 1.0
C      1  0.5161986321923  0.7716154448550  0.5932982443192 1.0
C      1  0.5218082941203  0.7640847385466  0.3395503818456 1.0
C      1  0.7441715519821  0.3953400064629  0.5365473452110 1.0
C      1  0.7440979327646  0.4609845748982  0.6048177949876 1.0
C      1  0.7459413055421  0.5549741123213  0.5971884667916 1.0
C      1  0.7447171027193  0.6074115049931  0.5191116388016 1.0
C      1  0.8367087953573  0.5421303153493  0.3783694530532 1.0
C      1  0.7566027282032  0.4867842302361  0.3895824420263 1.0
C      1  0.7454345541730  0.4067449992515  0.4436406888802 1.0
C      1  0.3483427866640  0.5172460946558  0.5039459348993 1.0
C      1  0.9104676098866  0.5860829672947  0.3715202792407 1.0
C      1  0.7529089066993  0.5828846837487  0.4268315579140 1.0
C      1  0.2950980240385  0.4628532392668  0.4743080160003 1.0
END
