TITL C-6826-489-214 -1.791 3375.00 -294.30788671 0 0 38 (C1) n - 1
REM
REM Run started: at 2020.12.19 08:57:40 in /gpfs/home/chem/mssmkc/CARBON/AIRSS/Generating-Clusters/Str-Search/Higher-Symm/C4-100
REM VASP from code version vasp.5.4.4.18Apr17-6-g9f103f2a35 (build Oct 11 2019 16:45:47) gamma-only
REM
REM
REM
REM
REM ./C.cell (6bd13a13d554368a30d355f37ece5b26)
REM AIRSS Version 0.9.1 bugfix July 2018 build 013d7b7c2542+ Fri, 06 Jul 2018 19:26:36 +0100
REM compiler GCC version 6.3.0
REM options -cpp -iprefix /gpfs/warwick/csc/orac/software/Core/GCCcore/6.3.0/bin/../lib/gcc/x86_64-pc-linux-gnu/6.3.0/ -mtune=generic -march=x86-64 -g -O0
REM seed -848784939 1886335143 995741085 -338965123 -1829995762 1594826157 439835615 1407959981 -1082967200 1505674936 -995144951 474269449
REM
REM C.POTCAR (d86ddea03c3ceb6dc662c8ad6801f873)
REM 
CELL 1.54180   15.00000   15.00000   15.00000   90.00000   90.00000   90.00000
LATT -1
SFAC C  
C      1  0.2828213106309  0.4681631805256  0.4126578919970 1.0
C      1  0.2850884317948  0.4069357179617  0.4875056704691 1.0
C      1  0.2880548676146  0.4310524221324  0.5816631782521 1.0
C      1  0.2762534640252  0.5224137360392  0.6098465670062 1.0
C      1  0.2722235205447  0.6085393232346  0.5046779110574 1.0
C      1  0.2823810606306  0.5650515135761  0.4193345503559 1.0
C      1  0.7095324249270  0.4710744889059  0.4110700704411 1.0
C      1  0.7099608084469  0.4018727615660  0.4792941801085 1.0
C      1  0.7205389377035  0.4243471950066  0.5724000892220 1.0
C      1  0.7168265780596  0.5581402589634  0.5964221592187 1.0
C      1  0.7048926006903  0.6092857825082  0.5156539609786 1.0
C      1  0.7074038425668  0.5662088098555  0.4284957823862 1.0
C      1  0.6064249484833  0.4663374976939  0.3950792851990 1.0
C      1  0.6070874744574  0.3982005507896  0.4764671955724 1.0
C      1  0.6141761757905  0.4358263500922  0.5767398382459 1.0
C      1  0.6100114191680  0.5402247431122  0.5952431194795 1.0
C      1  0.6020605766394  0.6090999235297  0.5132838790844 1.0
C      1  0.6050497342526  0.5719376955188  0.4136756136822 1.0
C      1  0.3859528307196  0.4615151140019  0.3971980527772 1.0
C      1  0.3875212193588  0.3931418368681  0.4796639539086 1.0
C      1  0.3909497153700  0.4296771177758  0.5793428251311 1.0
C      1  0.3827067363679  0.5352459920614  0.5970971792666 1.0
C      1  0.3786891470233  0.6028629844697  0.5154338530039 1.0
C      1  0.3854004267198  0.5661613113218  0.4149164538830 1.0
C      1  0.5379947853762  0.3301108141366  0.4665166959755 1.0
C      1  0.5455338096959  0.3902598693308  0.6288238694670 1.0
C      1  0.5373048084934  0.5614735502509  0.6571106064899 1.0
C      1  0.5294615544339  0.6728469447045  0.5265758595745 1.0
C      1  0.5362181318878  0.6154394014266  0.3595952951732 1.0
C      1  0.5371221054537  0.4407094474845  0.3306157329580 1.0
C      1  0.4561802986679  0.3249314403526  0.4666615802418 1.0
C      1  0.4636756879636  0.3898216860874  0.6305542728209 1.0
C      1  0.4552738230718  0.5592882198923  0.6580485128747 1.0
C      1  0.4475681467825  0.6712782909249  0.5259539780097 1.0
C      1  0.4543915572930  0.6112428111710  0.3628371198190 1.0
C      1  0.4549784389777  0.4391146060320  0.3312827643378 1.0
C      1  0.2124393701297  0.5774137407645  0.5691913555926 1.0
C      1  0.7805292297876  0.4897944699311  0.6009844959384 1.0
END
