TITL C-68071-43-17 -2.87 3375.00 -484.43482411 0 0 59 (C1) n - 1
REM
REM Run started: at 2020.11.28 11:36:49 in /rds/project/t2_vol4/rds-t2-cs072/BORA/CARBON/AIRSS/Generating-Clusters/Str-Search/Higher-Symm/C10-100
REM VASP from code version vasp.5.4.4.18Apr17-6-g9f103f2a35 (build Oct 11 2019 16:45:47) gamma-only
REM
REM
REM
REM
REM ./C.cell (f39ce9773e2efe3fa5bbdf770a4156b8)
REM AIRSS Version 0.9.1 bugfix July 2018 build 013d7b7c2542+ Fri, 06 Jul 2018 19:26:36 +0100
REM compiler GCC version 4.8.5 20150623 (Red Hat 4.8.5-39)
REM options -cpp -mtune=generic -march=x86-64 -g -O0
REM seed 316807482 -350529944 64515961 2022523387 1150191128 309659510 -1259394001 -852991805 1315244562 -1869277312 -27391018 -2073277013
REM
REM C.POTCAR (d86ddea03c3ceb6dc662c8ad6801f873)
REM 
CELL 1.54180   15.00000   15.00000   15.00000   90.00000   90.00000   90.00000
LATT -1
SFAC C  
C      1  0.3880500447425  0.5053853924323  0.6506098452133 1.0
C      1  0.3323911162700  0.6701667006007  0.3902258226978 1.0
C      1  0.6310223546280  0.6720577797117  0.3733949245904 1.0
C      1  0.6201010443516  0.7187183709384  0.4589292505065 1.0
C      1  0.2080865246012  0.4649591056475  0.4085631201983 1.0
C      1  0.5369543224616  0.6892422798740  0.3518872943816 1.0
C      1  0.3835527339190  0.6669530646292  0.6119883564362 1.0
C      1  0.7188058833205  0.5432471932895  0.5484512531518 1.0
C      1  0.3481028996553  0.5291665484456  0.3344289289338 1.0
C      1  0.4696678244066  0.3324351730037  0.6707074924759 1.0
C      1  0.4138943272095  0.4756853212830  0.3809569808734 1.0
C      1  0.6662632046381  0.3021142010742  0.5002901294326 1.0
C      1  0.6720868776467  0.6721973601261  0.5206681549118 1.0
C      1  0.6177475896218  0.5305562459108  0.2614332466076 1.0
C      1  0.6267891367646  0.3913556776389  0.7037655645167 1.0
C      1  0.5674456249916  0.4592507297692  0.4158571703128 1.0
C      1  0.5309335285450  0.5502408647171  0.2816956229087 1.0
C      1  0.4225439219142  0.4400993083419  0.4702781281082 1.0
C      1  0.5312654379900  0.4454962949606  0.5845581455357 1.0
C      1  0.1942480832553  0.4629334622412  0.4912584699968 1.0
C      1  0.6538295256871  0.4292273702459  0.3883756911399 1.0
C      1  0.3855589325200  0.6204471638409  0.3267448963807 1.0
C      1  0.5188651376607  0.6205438414119  0.6679454725174 1.0
C      1  0.4448976770064  0.4239630191051  0.6292565090572 1.0
C      1  0.5167111260341  0.4415615345839  0.4939466670633 1.0
C      1  0.7208074926095  0.6015678126220  0.4714141104477 1.0
C      1  0.3866107421752  0.3007873864393  0.5352381562336 1.0
C      1  0.5263264029786  0.7379427939676  0.4376251377471 1.0
C      1  0.4533725101445  0.2585851059828  0.4703569404209 1.0
C      1  0.7072592408090  0.3625027424060  0.5647818667510 1.0
C      1  0.3637608601955  0.7139970967853  0.4670478724271 1.0
C      1  0.6820839216146  0.3312761877549  0.6503155546292 1.0
C      1  0.6923976642212  0.4589003854573  0.5727981637811 1.0
C      1  0.6880604854562  0.5941932917470  0.3830083042116 1.0
C      1  0.4579886425491  0.7281117196902  0.5886291231320 1.0
C      1  0.4944517572313  0.2651524892870  0.3866240976258 1.0
C      1  0.2569873483776  0.6125307800193  0.4177827796668 1.0
C      1  0.4238959441445  0.5930109480104  0.6597291189294 1.0
C      1  0.6002261689662  0.5719456316695  0.6532067840988 1.0
C      1  0.6214039902236  0.2565590242510  0.6494810871098 1.0
C      1  0.5602821879193  0.3208733520704  0.6960053065308 1.0
C      1  0.5093542162644  0.2291396700570  0.5420752522039 1.0
C      1  0.5037560011312  0.4918223434382  0.3542459933376 1.0
C      1  0.4511310702980  0.7455894823823  0.4933451392284 1.0
C      1  0.3745727266467  0.4032898716470  0.5508723463874 1.0
C      1  0.2552866046019  0.6049662049022  0.5130912021843 1.0
C      1  0.5308603027862  0.7144630431590  0.6437398858295 1.0
C      1  0.6026267183179  0.2409923954677  0.5564967938487 1.0
C      1  0.6134249715309  0.4711313278660  0.6395042562471 1.0
C      1  0.3144852693759  0.4749375541130  0.5990681286619 1.0
C      1  0.3208154012825  0.6695522058302  0.5436300635783 1.0
C      1  0.6651614360476  0.6113674554459  0.5968403759646 1.0
C      1  0.6750325839447  0.5105415390746  0.3333534683275 1.0
C      1  0.2417219784519  0.5164400367288  0.5524795716419 1.0
C      1  0.4782823766188  0.6320860801438  0.3030383994789 1.0
C      1  0.4433809362670  0.2699269072019  0.6057868706304 1.0
C      1  0.6524110605915  0.3286998484538  0.4087429141709 1.0
C      1  0.5745662487744  0.2880520929575  0.3768128847964 1.0
C      1  0.2573998576110  0.5310614891477  0.3666151117914 1.0
END
