TITL C-68071-43-30 -4.58 3375.00 -758.43812019 0 0 94 (C1) n - 1
REM
REM Run started: at 2020.11.28 16:27:33 in /rds/project/t2_vol4/rds-t2-cs072/BORA/CARBON/AIRSS/Generating-Clusters/Str-Search/Higher-Symm/C10-100
REM VASP from code version vasp.5.4.4.18Apr17-6-g9f103f2a35 (build Oct 11 2019 16:45:47) gamma-only
REM
REM
REM
REM
REM ./C.cell (f39ce9773e2efe3fa5bbdf770a4156b8)
REM AIRSS Version 0.9.1 bugfix July 2018 build 013d7b7c2542+ Fri, 06 Jul 2018 19:26:36 +0100
REM compiler GCC version 4.8.5 20150623 (Red Hat 4.8.5-39)
REM options -cpp -mtune=generic -march=x86-64 -g -O0
REM seed -200623704 -121981366 -1061484605 707713454 -1789624711 -643398087 -598003171 -257884602 -1920151582 56145141 -1710525568 448944220
REM
REM C.POTCAR (d86ddea03c3ceb6dc662c8ad6801f873)
REM 
CELL 1.54180   15.00000   15.00000   15.00000   90.00000   90.00000   90.00000
LATT -1
SFAC C  
C      1  0.6365662583349  0.3943254542597  0.7481430039914 1.0
C      1  0.6342135385545  0.7622609872669  0.4732589620873 1.0
C      1  0.6357898052203  0.3407979102297  0.2876635678355 1.0
C      1  0.2274476463750  0.4867568697494  0.5921999046231 1.0
C      1  0.2273841364809  0.5827277993082  0.4685810017753 1.0
C      1  0.2127617725974  0.4291944754162  0.4414886657160 1.0
C      1  0.4576557921529  0.6284608098296  0.2336615496294 1.0
C      1  0.4550809407686  0.2020373531055  0.5309974063761 1.0
C      1  0.4592699410364  0.6733600331534  0.7481791973132 1.0
C      1  0.7091850176500  0.3215006273920  0.5892678051297 1.0
C      1  0.7009944767331  0.6545587424252  0.6129580830823 1.0
C      1  0.6988256274692  0.5146643929931  0.3143981444083 1.0
C      1  0.4610306726584  0.2086665913506  0.4373353490349 1.0
C      1  0.4636649830763  0.5881588747408  0.7869137105028 1.0
C      1  0.4595296042843  0.7036715983712  0.2880910274100 1.0
C      1  0.7507532480126  0.4035429189598  0.6201059785085 1.0
C      1  0.7447845277214  0.6415773903460  0.5265402841444 1.0
C      1  0.7451437358856  0.4464388611779  0.3659943748066 1.0
C      1  0.6666100322546  0.5366785136064  0.7961942720951 1.0
C      1  0.6625680423192  0.7342561588649  0.3265241060405 1.0
C      1  0.6697909465341  0.2226194510812  0.3779436143177 1.0
C      1  0.5951133290804  0.4725171416468  0.7976860254488 1.0
C      1  0.5917166647400  0.7682180019170  0.3819549910944 1.0
C      1  0.5945585460447  0.2562383483892  0.3295565720167 1.0
C      1  0.2425289994661  0.4708385392750  0.3594247704369 1.0
C      1  0.2762451001953  0.4055097882851  0.5770593540290 1.0
C      1  0.2765340539601  0.6209923454041  0.5394524063559 1.0
C      1  0.2549568216104  0.5709213644514  0.3749292895164 1.0
C      1  0.2589948885564  0.3577123596791  0.4938752626725 1.0
C      1  0.2685929731539  0.5696320731683  0.6232157352541 1.0
C      1  0.5874752426143  0.3808387679509  0.4952966199942 1.0
C      1  0.5681353105775  0.5551630989939  0.5982974664328 1.0
C      1  0.5479581824909  0.5455676649875  0.3736844298938 1.0
C      1  0.4922646696532  0.2176325849415  0.6220180203022 1.0
C      1  0.4944915918439  0.7481118632639  0.6923690868460 1.0
C      1  0.4950272377789  0.5403252653466  0.2042647246051 1.0
C      1  0.7175401247930  0.7052852717942  0.4601064412372 1.0
C      1  0.7206804138669  0.3563417471296  0.3399033746362 1.0
C      1  0.7217489065701  0.4310413047184  0.7076142127329 1.0
C      1  0.6530553844539  0.3368964514905  0.5157239155698 1.0
C      1  0.6386613115277  0.5879703873836  0.6285229357499 1.0
C      1  0.6290881615334  0.5573019093995  0.3605739044601 1.0
C      1  0.5142333861025  0.4378805399276  0.4854172110049 1.0
C      1  0.5092846349260  0.5313224828948  0.5343971750850 1.0
C      1  0.4819592248801  0.4777256809804  0.3929465691102 1.0
C      1  0.4054083110466  0.7512250944727  0.6420261705974 1.0
C      1  0.4073343212959  0.4974120607117  0.2274792745911 1.0
C      1  0.4019745375411  0.2569834742194  0.6495087004256 1.0
C      1  0.3822846224235  0.4012321228030  0.1970491734951 1.0
C      1  0.3576684209219  0.2858322412110  0.7417451568886 1.0
C      1  0.3581492203858  0.8170661849528  0.5724591715537 1.0
C      1  0.6617073844357  0.2684395576510  0.6500378760361 1.0
C      1  0.6605464297506  0.7375757632459  0.6309932380922 1.0
C      1  0.6633125570799  0.4907847246755  0.2302867220732 1.0
C      1  0.3808752259550  0.5393676873959  0.7596248335313 1.0
C      1  0.3743545135762  0.7058732361844  0.3418503203843 1.0
C      1  0.3765560000736  0.2528585898288  0.4073829637970 1.0
C      1  0.3923980970633  0.4894614920707  0.4500104841248 1.0
C      1  0.4209929503218  0.4219359735531  0.5180555693085 1.0
C      1  0.4226639900826  0.5657217491039  0.5044386775507 1.0
C      1  0.4068533168112  0.3541982538406  0.2702352163021 1.0
C      1  0.4052206763149  0.3656901844618  0.7552953569509 1.0
C      1  0.4053881953834  0.7930342305770  0.4951596152694 1.0
C      1  0.6139840808556  0.3079900449760  0.7205486275748 1.0
C      1  0.6148699279957  0.7826575788580  0.5624605869056 1.0
C      1  0.6158960721815  0.4088798426690  0.2265365696811 1.0
C      1  0.3723854378571  0.6373669501312  0.5259245279543 1.0
C      1  0.3366816987157  0.4645556413212  0.3736941772855 1.0
C      1  0.3736119752004  0.4038290584885  0.5923823285987 1.0
C      1  0.5737605960155  0.4937258302632  0.1998530612823 1.0
C      1  0.5713030795759  0.2417967796690  0.6603882645949 1.0
C      1  0.5734254161709  0.7667341712299  0.6507044996249 1.0
C      1  0.5062959947872  0.5003086680688  0.8033662465067 1.0
C      1  0.5018257343529  0.7618781604689  0.3555501151550 1.0
C      1  0.5057095561097  0.2392126891914  0.3546165857614 1.0
C      1  0.4144014518289  0.4432567449868  0.3179660547622 1.0
C      1  0.4124106522678  0.3538419543241  0.6623181478419 1.0
C      1  0.4154381107212  0.7174674964563  0.5514909553392 1.0
C      1  0.7391402925806  0.2715952279486  0.3798586923566 1.0
C      1  0.7377521267827  0.5109797705865  0.7570057385208 1.0
C      1  0.7337862614991  0.7107302661472  0.3662250371651 1.0
C      1  0.7719947338854  0.5508738700487  0.5099807116526 1.0
C      1  0.7713270082746  0.4744826313744  0.4540036111792 1.0
C      1  0.7743514188507  0.4644678761957  0.5487541365603 1.0
C      1  0.3705854348331  0.5868990384208  0.2503609354095 1.0
C      1  0.3673718977250  0.2364826350142  0.5556881230811 1.0
C      1  0.3734928755508  0.6767664066256  0.7025261478746 1.0
C      1  0.4148899124629  0.7717455344710  0.4009570684967 1.0
C      1  0.4190181252037  0.2785746977745  0.3256006987868 1.0
C      1  0.4193727874988  0.4557542747164  0.7856499019589 1.0
C      1  0.3275817629618  0.5923153552554  0.6969355633053 1.0
C      1  0.3198663612063  0.6254025014469  0.3230758145634 1.0
C      1  0.3191361943398  0.2798292489810  0.4812963672700 1.0
C      1  0.1910806447065  0.5007652358846  0.5035693786653 1.0
END
