TITL C-6826-489-236 -1.012 3375.00 -154.66962809 0 0 20 (C1) n - 1
REM
REM Run started: at 2020.12.19 13:32:15 in /gpfs/home/chem/mssmkc/CARBON/AIRSS/Generating-Clusters/Str-Search/Higher-Symm/C4-100
REM VASP from code version vasp.5.4.4.18Apr17-6-g9f103f2a35 (build Oct 11 2019 16:45:47) gamma-only
REM
REM
REM
REM
REM ./C.cell (6bd13a13d554368a30d355f37ece5b26)
REM AIRSS Version 0.9.1 bugfix July 2018 build 013d7b7c2542+ Fri, 06 Jul 2018 19:26:36 +0100
REM compiler GCC version 6.3.0
REM options -cpp -iprefix /gpfs/warwick/csc/orac/software/Core/GCCcore/6.3.0/bin/../lib/gcc/x86_64-pc-linux-gnu/6.3.0/ -mtune=generic -march=x86-64 -g -O0
REM seed 1465533600 -1882398284 705475519 -117687805 581694039 -572205578 -2120809841 471625336 -896782066 -1133807321 -2084993463 -442926515
REM
REM C.POTCAR (d86ddea03c3ceb6dc662c8ad6801f873)
REM 
CELL 1.54180   15.00000   15.00000   15.00000   90.00000   90.00000   90.00000
LATT -1
SFAC C  
C      1  0.4192665850180  0.3610762185731  0.4521906757689 1.0
C      1  0.4812398473551  0.4261762049352  0.4359268538696 1.0
C      1  0.5677002161605  0.4224004479846  0.4835102024225 1.0
C      1  0.5848101342579  0.3518088069909  0.5382465535801 1.0
C      1  0.5800203732934  0.2796610646391  0.5824776946758 1.0
C      1  0.5154379775812  0.2268341416466  0.6090082515490 1.0
C      1  0.4407537124628  0.1843903545396  0.5929066044803 1.0
C      1  0.3884764262242  0.2347230481024  0.5445430936544 1.0
C      1  0.3776426630462  0.2927075933730  0.4796465308623 1.0
C      1  0.4396318189559  0.5994485821921  0.4201787408672 1.0
C      1  0.4767903045292  0.5128740468878  0.3906757673016 1.0
C      1  0.5618531439171  0.5542740230834  0.4012254626866 1.0
C      1  0.6085525650756  0.5121263171690  0.4750416281704 1.0
C      1  0.6069395594567  0.5814031330621  0.5387061417302 1.0
C      1  0.5505905702193  0.5784996085712  0.6215370335487 1.0
C      1  0.5025551140085  0.6522652372846  0.5869845721944 1.0
C      1  0.4132409412027  0.6416513225190  0.5575489438490 1.0
C      1  0.3744975013234  0.6298623261635  0.4824991613282 1.0
C      1  0.5280898148582  0.6453984342197  0.4210222119719 1.0
C      1  0.5618153310542  0.6670134880632  0.5046453754888 1.0
END
