TITL C-68134-4351-24 -1.412 3375.00 -223.23647906 0 0 28 (C1) n - 1
REM
REM Run started: at 2020.12.28 08:41:47 in /rds/project/t2_vol4/rds-t2-cs072/BORA/CARBON/AIRSS/Generating-Clusters/Str-Search/Higher-Symm/C10-100
REM VASP from code version vasp.5.4.4.18Apr17-6-g9f103f2a35 (build Oct 11 2019 16:45:47) gamma-only
REM
REM
REM
REM
REM ./C.cell (f39ce9773e2efe3fa5bbdf770a4156b8)
REM AIRSS Version 0.9.1 bugfix July 2018 build 013d7b7c2542+ Fri, 06 Jul 2018 19:26:36 +0100
REM compiler GCC version 4.8.5 20150623 (Red Hat 4.8.5-39)
REM options -cpp -mtune=generic -march=x86-64 -g -O0
REM seed -748205014 1433508731 -457882377 -685685795 670104822 325249472 1231725786 -1220163782 459039198 -1046043855 -162387932 -845173625
REM
REM C.POTCAR (d86ddea03c3ceb6dc662c8ad6801f873)
REM 
CELL 1.54180   15.00000   15.00000   15.00000   90.00000   90.00000   90.00000
LATT -1
SFAC C  
C      1  0.4079154672278  0.4932771397375  0.3171926468521 1.0
C      1  0.4198367416397  0.6533777577297  0.5812503948401 1.0
C      1  0.4175955749454  0.3471663353176  0.5973729765400 1.0
C      1  0.3767175231606  0.6280796236381  0.4247494498394 1.0
C      1  0.3866255072126  0.5019983743015  0.6573828182964 1.0
C      1  0.3884972793741  0.3649667032947  0.4230445230510 1.0
C      1  0.6005462055810  0.3911026144389  0.3812950761163 1.0
C      1  0.5753776128664  0.6547449812893  0.4773166414311 1.0
C      1  0.5941508426658  0.4447536957191  0.6514981129301 1.0
C      1  0.3740834401302  0.4209291874723  0.3617217462854 1.0
C      1  0.3726766972307  0.6571419208712  0.5037066046820 1.0
C      1  0.3812042451219  0.4205482752692  0.6370073710629 1.0
C      1  0.4329225077977  0.5788230257168  0.6431158074127 1.0
C      1  0.4323561237112  0.3352589678176  0.4961105995740 1.0
C      1  0.4187581953924  0.5841662586480  0.3585395663547 1.0
C      1  0.5284126443896  0.3413223785577  0.5163387154730 1.0
C      1  0.5164178639030  0.5630797701321  0.3591603198634 1.0
C      1  0.5316494983694  0.5914116887567  0.6287018815125 1.0
C      1  0.5135081885975  0.3383944200278  0.6112880300586 1.0
C      1  0.5051198443288  0.4869004916203  0.3023798134261 1.0
C      1  0.5185928996870  0.6713524056334  0.5796440763327 1.0
C      1  0.5925131352923  0.4016984881481  0.4728131291447 1.0
C      1  0.5740120358157  0.5694419939203  0.4375972619384 1.0
C      1  0.5892623693246  0.5189873984142  0.5971190214501 1.0
C      1  0.5773832006612  0.3652745455056  0.6746917120498 1.0
C      1  0.5637326177426  0.4172655881924  0.3113646471125 1.0
C      1  0.5804798123858  0.7256351743569  0.5257673226568 1.0
C      1  0.5983322254452  0.4969181954730  0.5012797337132 1.0
END
