TITL C-6826-489-45 -1.867 3375.00 -293.63483175 0 0 38 (C1) n - 1
REM
REM Run started: at 2020.12.18 02:03:56 in /gpfs/home/chem/mssmkc/CARBON/AIRSS/Generating-Clusters/Str-Search/Higher-Symm/C4-100
REM VASP from code version vasp.5.4.4.18Apr17-6-g9f103f2a35 (build Oct 11 2019 16:45:47) gamma-only
REM
REM
REM
REM
REM ./C.cell (6bd13a13d554368a30d355f37ece5b26)
REM AIRSS Version 0.9.1 bugfix July 2018 build 013d7b7c2542+ Fri, 06 Jul 2018 19:26:36 +0100
REM compiler GCC version 6.3.0
REM options -cpp -iprefix /gpfs/warwick/csc/orac/software/Core/GCCcore/6.3.0/bin/../lib/gcc/x86_64-pc-linux-gnu/6.3.0/ -mtune=generic -march=x86-64 -g -O0
REM seed -198542786 -614452338 -52254302 167779945 -2124971203 1652313229 -109162584 1837078643 1267773221 159922115 819729545 -154861748
REM
REM C.POTCAR (d86ddea03c3ceb6dc662c8ad6801f873)
REM 
CELL 1.54180   15.00000   15.00000   15.00000   90.00000   90.00000   90.00000
LATT -1
SFAC C  
C      1  0.5934839273304  0.6894294264018  0.6065149901991 1.0
C      1  0.4378902806107  0.3195310723207  0.6122940396759 1.0
C      1  0.6516091810183  0.4022044616739  0.4217401349426 1.0
C      1  0.3647870307016  0.6079743071464  0.4496377281772 1.0
C      1  0.6452313430570  0.5363663735425  0.7002357281450 1.0
C      1  0.3964939774557  0.4754543451850  0.6997827694338 1.0
C      1  0.4475175623349  0.6346614710803  0.4094875391531 1.0
C      1  0.5666898199321  0.3692595303874  0.3957967298819 1.0
C      1  0.4785371001365  0.3065951724607  0.5385222390047 1.0
C      1  0.5590247677606  0.6954804636829  0.5276466201933 1.0
C      1  0.3431725030573  0.5233847900129  0.4128994055260 1.0
C      1  0.6693283263203  0.4859022262803  0.3800977212012 1.0
C      1  0.3928498962343  0.3920071446481  0.6459384538017 1.0
C      1  0.6118770697355  0.6034108798755  0.6374186242185 1.0
C      1  0.6537274078236  0.5675190015696  0.3732597540802 1.0
C      1  0.3575826921518  0.4416494023198  0.4067723962964 1.0
C      1  0.5317813503065  0.6779927583085  0.4429555346917 1.0
C      1  0.4922840198203  0.3311264085079  0.4523983068433 1.0
C      1  0.4956471547338  0.5861560301980  0.3404398539968 1.0
C      1  0.5020308817520  0.4173877902533  0.3397214850317 1.0
C      1  0.5789743785595  0.6226907957773  0.3756657476247 1.0
C      1  0.4322704083221  0.3878376436394  0.3977261999899 1.0
C      1  0.6715757043984  0.3805858403497  0.6040308902706 1.0
C      1  0.3594346425318  0.6290588858386  0.6287425082463 1.0
C      1  0.3231211288233  0.5276231330999  0.5812613085431 1.0
C      1  0.6703641309531  0.4885733906576  0.5560420109635 1.0
C      1  0.3311716849612  0.6146754702002  0.5392105596470 1.0
C      1  0.6832366596975  0.4036797273854  0.5129948295517 1.0
C      1  0.5807158808610  0.5342993059323  0.5690024097859 1.0
C      1  0.4044038574995  0.4691739458611  0.5866996917141 1.0
C      1  0.6922563780297  0.4693741855774  0.6471160190523 1.0
C      1  0.3286986231460  0.5483995826163  0.6759208583945 1.0
C      1  0.5317744700771  0.5033984762076  0.2028188471183 1.0
C      1  0.5027481962797  0.5014787635143  0.2887770716921 1.0
C      1  0.5354187251041  0.5009022757863  0.1168670827883 1.0
C      1  0.4979645419600  0.5063309956286  0.5976020903202 1.0
C      1  0.5654008768773  0.5290465543134  0.7467023025667 1.0
C      1  0.4902557196455  0.5109184717591  0.6985984172368 1.0
END
