TITL C-68188-4378-8 -8.157 3375.00 -1482.30304946 0 0 180 (C2) n - 1
REM
REM Run started: at 2020.12.24 19:52:30 in /rds/project/t2_vol4/rds-t2-cs072/BORA/CARBON/AIRSS/Generating-Clusters/Str-Search/Higher-Symm/Only-C180
REM VASP from code version vasp.5.4.4.18Apr17-6-g9f103f2a35 (build Oct 11 2019 16:45:47) gamma-only
REM
REM
REM
REM
REM ./C.cell (f712cfaf3acf65fd2d5dcba0fd1fd40b)
REM AIRSS Version 0.9.1 bugfix July 2018 build 013d7b7c2542+ Fri, 06 Jul 2018 19:26:36 +0100
REM compiler GCC version 4.8.5 20150623 (Red Hat 4.8.5-39)
REM options -cpp -mtune=generic -march=x86-64 -g -O0
REM seed 252137377 -1501159350 1277956581 -1157834606 883284431 1376575399 -1369401223 1529801813 -1287122667 -1680269652 -2090396175 1462511572
REM
REM C.POTCAR (d86ddea03c3ceb6dc662c8ad6801f873)
REM 
CELL 1.54180   15.00000   15.00000   15.00000   90.00000   90.00000   90.00000
LATT -1
SFAC C  
C      1  0.4586499726328  0.5662634101015  0.7560566341221 1.0
C      1  0.4586511878926  0.4337361731135  0.2439431939401 1.0
C      1  0.4323177992587  0.4113313040243  0.6784901222015 1.0
C      1  0.4323160317403  0.5886689754782  0.3215085514430 1.0
C      1  0.6590941444965  0.8028095131548  0.4654052942479 1.0
C      1  0.6591002123343  0.1971936427425  0.5345932278488 1.0
C      1  0.7810218942070  0.6246806115857  0.2992412623489 1.0
C      1  0.7810214872808  0.3753238741975  0.7007595117840 1.0
C      1  0.6103305410313  0.7137163191071  0.4647138118091 1.0
C      1  0.6103353856108  0.2862860306979  0.5352861098847 1.0
C      1  0.7135245942850  0.5512046625065  0.4960090212361 1.0
C      1  0.7135255505033  0.4487992684376  0.5039916760179 1.0
C      1  0.3822098966893  0.7135657089881  0.5723328625246 1.0
C      1  0.3822134963208  0.2864317602511  0.4276667570815 1.0
C      1  0.6546527991420  0.3279197699874  0.1432443638432 1.0
C      1  0.6546542049660  0.6720792735891  0.8567583339141 1.0
C      1  0.3257369145977  0.3884754919655  0.5429334138216 1.0
C      1  0.3257350380304  0.6115208551001  0.4570669597834 1.0
C      1  0.7200191005098  0.5012430118859  0.2014683167858 1.0
C      1  0.7200164085586  0.4987601160647  0.7985314789079 1.0
C      1  0.4742719076798  0.3092378344994  0.8560619205605 1.0
C      1  0.4742711150103  0.6907634200730  0.1439414186957 1.0
C      1  0.3893112851407  0.3823319707623  0.4659785658181 1.0
C      1  0.3893092264376  0.6176657116841  0.5340215189922 1.0
C      1  0.5079568741670  0.1948295086793  0.7414896280913 1.0
C      1  0.5079517986633  0.8051689651469  0.2585120930951 1.0
C      1  0.7441053161745  0.3350402659976  0.3766772850737 1.0
C      1  0.7441012265662  0.6649645682242  0.6233234495823 1.0
C      1  0.5659779030330  0.5628612973015  0.1786767062759 1.0
C      1  0.5659761302450  0.4371373164648  0.8213232787494 1.0
C      1  0.7163719275854  0.4072511401243  0.7685696654029 1.0
C      1  0.7163724806541  0.5927524990792  0.2314304314868 1.0
C      1  0.4956254284484  0.3396432019699  0.2592389346841 1.0
C      1  0.4956225360774  0.6603562666556  0.7407600247972 1.0
C      1  0.4466450948778  0.4016999429489  0.0888021519412 1.0
C      1  0.4466427762778  0.5983028596493  0.9111980765032 1.0
C      1  0.3568703895461  0.2910124025860  0.3312957792719 1.0
C      1  0.3568668658839  0.7089853397791  0.6687041957484 1.0
C      1  0.7461764925565  0.6574221609063  0.3770638178814 1.0
C      1  0.7461775348816  0.3425814071157  0.6229370804077 1.0
C      1  0.2341686195443  0.5831385605186  0.2416599623869 1.0
C      1  0.2341711214512  0.4168584557330  0.7583413432035 1.0
C      1  0.7523410577466  0.3569535730426  0.2776445086535 1.0
C      1  0.7523378608025  0.6430491798579  0.7223549721168 1.0
C      1  0.6381467926734  0.5614328256209  0.4271514585132 1.0
C      1  0.6381479750385  0.4385706543166  0.5728489606173 1.0
C      1  0.5923686028599  0.6720182030023  0.3113613744781 1.0
C      1  0.5923696122812  0.3279843330253  0.6886377777654 1.0
C      1  0.4178428289197  0.7450811786572  0.3723928492624 1.0
C      1  0.4178470368828  0.2549168757899  0.6276063178334 1.0
C      1  0.5882370360732  0.3537954340644  0.2811456863278 1.0
C      1  0.5882337051843  0.6462082969199  0.7188540739194 1.0
C      1  0.3432717081363  0.8127720949231  0.3324690165512 1.0
C      1  0.3432776334603  0.1872258953900  0.6675321304167 1.0
C      1  0.3928486184298  0.5469614177189  0.1503855154076 1.0
C      1  0.3928502946276  0.4530358329153  0.8496154113539 1.0
C      1  0.5103486752459  0.2032171788247  0.3555759853054 1.0
C      1  0.5103437688078  0.7967831459557  0.6444242591248 1.0
C      1  0.5255832970440  0.1196494238614  0.4973391440513 1.0
C      1  0.5255776826753  0.8803527819596  0.5026605669441 1.0
C      1  0.5216611052593  0.8709162455098  0.4069565181483 1.0
C      1  0.5216672979742  0.1290820178158  0.5930432090717 1.0
C      1  0.7445510703433  0.2336305242695  0.4761787623161 1.0
C      1  0.7445415705316  0.7663722397983  0.5238203832315 1.0
C      1  0.2271304702750  0.7488128789153  0.5346954599124 1.0
C      1  0.2271336588030  0.2511824780044  0.4653039952937 1.0
C      1  0.3144824822087  0.2765840757542  0.7217500180006 1.0
C      1  0.3144777908621  0.7234149707610  0.2782503557964 1.0
C      1  0.6103463278757  0.1477236434131  0.4637876599949 1.0
C      1  0.6103401780548  0.8522790454882  0.5362114995282 1.0
C      1  0.4735702795588  0.4009669521621  0.8548701532003 1.0
C      1  0.4735706010758  0.5990260851465  0.1451268045244 1.0
C      1  0.8506348153970  0.5187298276702  0.6855094016134 1.0
C      1  0.8506374357009  0.4812741688917  0.3144898155543 1.0
C      1  0.5876098166122  0.7744747478326  0.3022011973008 1.0
C      1  0.5876135144068  0.2255260948934  0.6977979171179 1.0
C      1  0.6269111930373  0.3765985318749  0.7704727190524 1.0
C      1  0.6269112381326  0.6234040732933  0.2295254057336 1.0
C      1  0.3984887227155  0.5543292342771  0.8373196186065 1.0
C      1  0.3984880235147  0.4456697234396  0.1626809703103 1.0
C      1  0.2291044319792  0.3240994943174  0.7265988924638 1.0
C      1  0.2291011961943  0.6758975046230  0.2734009462833 1.0
C      1  0.6109258614082  0.6048733986583  0.8969233382754 1.0
C      1  0.6109273727854  0.3951268919047  0.1030794140038 1.0
C      1  0.8875556328181  0.3933635709448  0.4724210615847 1.0
C      1  0.8875524419001  0.6066446825031  0.5275790521608 1.0
C      1  0.5150210170205  0.6143324625360  0.3518197843260 1.0
C      1  0.5150225322448  0.3856692731880  0.6481788489828 1.0
C      1  0.3125028936550  0.5173388069614  0.4526946767467 1.0
C      1  0.3125030841331  0.4826574168442  0.5473059709753 1.0
C      1  0.4829244919662  0.2346659326879  0.8198790740789 1.0
C      1  0.4829164807558  0.7653183402088  0.1801200063384 1.0
C      1  0.6997655796347  0.2450655672398  0.3936485480235 1.0
C      1  0.6997593929332  0.7549384477944  0.6063532923489 1.0
C      1  0.6038349996005  0.8271563880021  0.3804772974457 1.0
C      1  0.6038392671553  0.1728459638864  0.6195193527201 1.0
C      1  0.4716139916782  0.2471712928664  0.4409450202975 1.0
C      1  0.4716087264732  0.7528292831377  0.5590542687680 1.0
C      1  0.5106291142337  0.4655234275765  0.3960900604793 1.0
C      1  0.5106287206278  0.5344775775585  0.6039105896709 1.0
C      1  0.5507986084453  0.4791959840542  0.2343967498525 1.0
C      1  0.5507980975411  0.5208058073293  0.7656045566744 1.0
C      1  0.5244498634024  0.3914183166043  0.0638659561026 1.0
C      1  0.5244467971426  0.6085848833627  0.9361332290226 1.0
C      1  0.8732236712751  0.4347195536610  0.5689923758798 1.0
C      1  0.8732230504604  0.5652877177264  0.4310072515350 1.0
C      1  0.1363154903205  0.5206633882171  0.5458848915191 1.0
C      1  0.1363144860752  0.4793300903777  0.4541145728140 1.0
C      1  0.6702182167846  0.3292955049434  0.2341199017352 1.0
C      1  0.6702153153975  0.6707051664052  0.7658823018463 1.0
C      1  0.8049614940255  0.6774372394970  0.5350692570226 1.0
C      1  0.8049658547627  0.3225689324058  0.4649310800683 1.0
C      1  0.3587003597750  0.4568892286116  0.4029320848778 1.0
C      1  0.3587003485681  0.5431075439475  0.5970686039238 1.0
C      1  0.3019955958654  0.4504340192319  0.1941072961518 1.0
C      1  0.3019955981048  0.5495634779632  0.8058946849603 1.0
C      1  0.5338209612271  0.6923680021349  0.5127987298359 1.0
C      1  0.5338255570836  0.3076340852495  0.4872007432997 1.0
C      1  0.6506530655723  0.6563163954196  0.3925300105959 1.0
C      1  0.6506546616400  0.3436868126571  0.6074704590901 1.0
C      1  0.3190863376721  0.2310338670941  0.4805459352949 1.0
C      1  0.3190827293018  0.7689636200027  0.5194536965041 1.0
C      1  0.1201164063742  0.6194037205472  0.3798726487494 1.0
C      1  0.1201182440699  0.3805917065026  0.6201277506453 1.0
C      1  0.5367554839085  0.5568936770703  0.4321959984116 1.0
C      1  0.5367569752989  0.4431083304090  0.5678036016701 1.0
C      1  0.5834350553709  0.5535222816639  0.6777407606396 1.0
C      1  0.5834360244188  0.4464800016593  0.3222605348914 1.0
C      1  0.1242061253099  0.3454800369414  0.5323453884936 1.0
C      1  0.1242023443069  0.6545150963235  0.4676544986495 1.0
C      1  0.3382970215268  0.2266468041990  0.5758430756800 1.0
C      1  0.3382940168240  0.7733498412416  0.4241573862958 1.0
C      1  0.6139470796326  0.8043033419529  0.6174905943546 1.0
C      1  0.6139528261831  0.1956991814228  0.3825094929115 1.0
C      1  0.4507348479509  0.8324360590403  0.3357753507282 1.0
C      1  0.4507415301772  0.1675619510367  0.6642236984542 1.0
C      1  0.2694528454311  0.6576218161185  0.6746674096000 1.0
C      1  0.2694542762383  0.3423751071109  0.3253322916036 1.0
C      1  0.8790015019338  0.5365126768769  0.5904319429721 1.0
C      1  0.8790028488583  0.4634955339226  0.4095685519765 1.0
C      1  0.6581691771629  0.4830692056547  0.3684327331437 1.0
C      1  0.6581700837915  0.5169350583740  0.6315677155336 1.0
C      1  0.1982528517341  0.5062614690107  0.2923023074509 1.0
C      1  0.1982536466513  0.4937353740432  0.7076984029613 1.0
C      1  0.3005322840645  0.4540024722544  0.8183562752050 1.0
C      1  0.3005308544084  0.5459950191027  0.1816422382614 1.0
C      1  0.7004621050252  0.4187401623753  0.4133507280481 1.0
C      1  0.7004608988671  0.5812638898854  0.5866500850924 1.0
C      1  0.4946547370672  0.5985472578073  0.5193112401031 1.0
C      1  0.4946572015681  0.4014531901280  0.4806886151892 1.0
C      1  0.7836462308821  0.6111793891274  0.4565781727352 1.0
C      1  0.7836475395820  0.3888242900936  0.5434222944177 1.0
C      1  0.1622211450836  0.6951572704270  0.3367298613489 1.0
C      1  0.1622238776683  0.3048370714275  0.6632693708625 1.0
C      1  0.3860379321347  0.6726948212558  0.3101827163586 1.0
C      1  0.3860416769443  0.3273041899149  0.6898156823484 1.0
C      1  0.2076609379187  0.6758903010815  0.5992827273649 1.0
C      1  0.2076626499389  0.3241032271512  0.4007163121410 1.0
C      1  0.6270826425418  0.4797163784755  0.1595979445388 1.0
C      1  0.6270804658673  0.5202847769114  0.8404023831755 1.0
C      1  0.7839556375768  0.5581894706832  0.7484885625511 1.0
C      1  0.7839591508321  0.4418136607900  0.2515105106639 1.0
C      1  0.2501109414949  0.5778844703462  0.7331191324798 1.0
C      1  0.2501109173176  0.4221107975362  0.2668815051239 1.0
C      1  0.2795869814895  0.6951680095492  0.4433776057860 1.0
C      1  0.2795896625392  0.3048280734746  0.5566215725924 1.0
C      1  0.1832332723393  0.2741549116637  0.5587117010850 1.0
C      1  0.1832296789239  0.7258408689033  0.4412886269546 1.0
C      1  0.4638809740443  0.1488449567901  0.4290274053938 1.0
C      1  0.4638752173644  0.8511551962290  0.5709724913791 1.0
C      1  0.4484033909485  0.7313944303673  0.7057098675913 1.0
C      1  0.4484071008410  0.2686043849984  0.2942885734576 1.0
C      1  0.8588243373766  0.4266301442993  0.6738115962508 1.0
C      1  0.8588237427747  0.5733750328750  0.3261885227636 1.0
C      1  0.1473671931916  0.3842117872161  0.4511203935469 1.0
C      1  0.1473678009545  0.6157818478800  0.5488782093235 1.0
C      1  0.1444962503156  0.5285055499651  0.3699891883507 1.0
C      1  0.1444968611398  0.4714897361239  0.6300115285971 1.0
C      1  0.4259648276994  0.5150049826908  0.6636855283722 1.0
C      1  0.4259653882615  0.4849935948075  0.3363147250037 1.0
END
