TITL C-6826-489-202 -4.03 3375.00 -685.33854909 0 0 84 (C1) n - 1
REM
REM Run started: at 2020.12.19 07:06:47 in /gpfs/home/chem/mssmkc/CARBON/AIRSS/Generating-Clusters/Str-Search/Higher-Symm/C4-100
REM VASP from code version vasp.5.4.4.18Apr17-6-g9f103f2a35 (build Oct 11 2019 16:45:47) gamma-only
REM
REM
REM
REM
REM ./C.cell (6bd13a13d554368a30d355f37ece5b26)
REM AIRSS Version 0.9.1 bugfix July 2018 build 013d7b7c2542+ Fri, 06 Jul 2018 19:26:36 +0100
REM compiler GCC version 6.3.0
REM options -cpp -iprefix /gpfs/warwick/csc/orac/software/Core/GCCcore/6.3.0/bin/../lib/gcc/x86_64-pc-linux-gnu/6.3.0/ -mtune=generic -march=x86-64 -g -O0
REM seed 1088259214 -235727408 1761696170 868931667 -106981809 1288349384 -579835305 -2128323093 -1241891348 2124183960 -520791919 536515649
REM
REM C.POTCAR (d86ddea03c3ceb6dc662c8ad6801f873)
REM 
CELL 1.54180   15.00000   15.00000   15.00000   90.00000   90.00000   90.00000
LATT -1
SFAC C  
C      1  0.3952539202683  0.3753901015407  0.5432702706466 1.0
C      1  0.4575833371821  0.6846564944587  0.5473225639136 1.0
C      1  0.4875516499078  0.7225851094523  0.3579245360596 1.0
C      1  0.5605580419017  0.2485561576156  0.3871966333488 1.0
C      1  0.5130435607255  0.6716776869837  0.2822290936441 1.0
C      1  0.5876569075943  0.2841103708613  0.3012020186887 1.0
C      1  0.4901974393377  0.4885926118606  0.2182685812651 1.0
C      1  0.4558160906619  0.6048900009993  0.2396663072291 1.0
C      1  0.3299932316175  0.3537117083717  0.3941681635577 1.0
C      1  0.3042605687679  0.6437998700848  0.4585509398414 1.0
C      1  0.5054259743122  0.5145893490097  0.5794410940412 1.0
C      1  0.4484696962630  0.5919194454108  0.6014687777356 1.0
C      1  0.2854502547028  0.5779920896426  0.3771285855014 1.0
C      1  0.2835887457279  0.4289054404290  0.3548286384777 1.0
C      1  0.6293941368357  0.2542327095535  0.4533802351463 1.0
C      1  0.5624195808625  0.7245286777716  0.4206977605996 1.0
C      1  0.7050983302677  0.6389701170046  0.4254290218781 1.0
C      1  0.7825370872403  0.3220064064145  0.4386904965338 1.0
C      1  0.2606539979582  0.5904958148061  0.6654379579813 1.0
C      1  0.2593486808550  0.4361961101464  0.6713456167221 1.0
C      1  0.6389590069497  0.6864788178077  0.3761298073783 1.0
C      1  0.7016616574162  0.3008865006045  0.4051973178748 1.0
C      1  0.3996638739712  0.2978909756654  0.3731561893602 1.0
C      1  0.3280691061549  0.7322298676189  0.4214337728018 1.0
C      1  0.6699055489851  0.5936667957811  0.6700599893848 1.0
C      1  0.6608451986449  0.3567372275419  0.6990970921842 1.0
C      1  0.4011414114573  0.7429139126902  0.3834825653444 1.0
C      1  0.4676474376873  0.2529821261598  0.3894590644179 1.0
C      1  0.5936922631945  0.4022446883367  0.7500300705707 1.0
C      1  0.5953867072088  0.5823533699617  0.7305811632830 1.0
C      1  0.5955013932727  0.5051494868623  0.5628229654196 1.0
C      1  0.6415470603825  0.3779266748906  0.5489764312819 1.0
C      1  0.5305649323653  0.4441050876184  0.4363501901126 1.0
C      1  0.4753054878269  0.5056931294783  0.3858290759543 1.0
C      1  0.4547145096850  0.5685846293062  0.1526870962067 1.0
C      1  0.4374378163083  0.4840064337035  0.1299709109568 1.0
C      1  0.3140072994906  0.3670195937968  0.4885447304450 1.0
C      1  0.3940362901296  0.6124530687186  0.5110767288956 1.0
C      1  0.5536716247117  0.2636480695264  0.6322850189288 1.0
C      1  0.5978655509719  0.7202679521479  0.5941692852647 1.0
C      1  0.6845149068358  0.5126793185439  0.6143262742683 1.0
C      1  0.6826678125117  0.4137298544913  0.6262399392476 1.0
C      1  0.2879765783590  0.6791545771584  0.6752645354164 1.0
C      1  0.2835122356140  0.3483191896895  0.6808733125163 1.0
C      1  0.3222096599899  0.2766837040931  0.6568980271185 1.0
C      1  0.3743123435359  0.6978562348386  0.6860650888130 1.0
C      1  0.4426854469158  0.7402694400365  0.6332984385618 1.0
C      1  0.4009112987212  0.3227579019173  0.6177065164536 1.0
C      1  0.4671974807684  0.4690618565371  0.7590429374510 1.0
C      1  0.4325658872921  0.6135808230952  0.7052493614998 1.0
C      1  0.5331777334796  0.7228701131068  0.6670076453893 1.0
C      1  0.4825510345934  0.3158808212763  0.6693706871913 1.0
C      1  0.2079180858697  0.5472659435220  0.4240487125892 1.0
C      1  0.2116466503354  0.4529623504880  0.4206308582840 1.0
C      1  0.6583673004111  0.3432734326926  0.3178977146567 1.0
C      1  0.6059327118121  0.6508629299884  0.2905454386163 1.0
C      1  0.6739955692749  0.6629108494626  0.5994183687798 1.0
C      1  0.6406123776101  0.2702183153559  0.6575836334926 1.0
C      1  0.6582676328494  0.4311038526920  0.2809232959619 1.0
C      1  0.6365482898553  0.5682934545427  0.2560208456460 1.0
C      1  0.5454990769042  0.7182617599309  0.5130223243201 1.0
C      1  0.6181371271165  0.2821403992127  0.5528999386284 1.0
C      1  0.5008765557634  0.3751787543713  0.7388677919002 1.0
C      1  0.5260080028198  0.6478370588165  0.7235053107385 1.0
C      1  0.7496962768056  0.5363395389685  0.5402350074759 1.0
C      1  0.8001605610607  0.4633608455562  0.4966144397932 1.0
C      1  0.8294146873202  0.3776192751442  0.4848123738810 1.0
C      1  0.7222096715808  0.6321003940958  0.5200149927397 1.0
C      1  0.2184182803940  0.4630185657611  0.5880742395851 1.0
C      1  0.2145374995374  0.5600779609707  0.5864641909524 1.0
C      1  0.2316523044243  0.4147708718926  0.5058081082956 1.0
C      1  0.2201090701615  0.6011034834162  0.5009911163761 1.0
C      1  0.7244771756007  0.5515099443820  0.3850500322249 1.0
C      1  0.3292022688721  0.5089818231437  0.3253535901994 1.0
C      1  0.3943626202756  0.5264206229098  0.7407169306611 1.0
C      1  0.7039115839189  0.5182740312509  0.3031131344012 1.0
C      1  0.4301558146473  0.5204244833764  0.2975518520781 1.0
C      1  0.5631166939064  0.4958203558415  0.7568129934039 1.0
C      1  0.4603459867476  0.4513040794902  0.5160400436287 1.0
C      1  0.3027625931944  0.5145051229889  0.7096663781867 1.0
C      1  0.7152892127034  0.4888242257105  0.4566039316135 1.0
C      1  0.6219770713019  0.4474983060097  0.4804942021602 1.0
C      1  0.5888469889875  0.4869285583140  0.2353823253488 1.0
C      1  0.4290596295169  0.5314151942831  0.4635639605759 1.0
END
