TITL C-6826-489-35 -2.029 3375.00 -348.36312854 0 0 42 (C2) n - 1
REM
REM Run started: at 2020.12.18 00:03:46 in /gpfs/home/chem/mssmkc/CARBON/AIRSS/Generating-Clusters/Str-Search/Higher-Symm/C4-100
REM VASP from code version vasp.5.4.4.18Apr17-6-g9f103f2a35 (build Oct 11 2019 16:45:47) gamma-only
REM
REM
REM
REM
REM ./C.cell (6bd13a13d554368a30d355f37ece5b26)
REM AIRSS Version 0.9.1 bugfix July 2018 build 013d7b7c2542+ Fri, 06 Jul 2018 19:26:36 +0100
REM compiler GCC version 6.3.0
REM options -cpp -iprefix /gpfs/warwick/csc/orac/software/Core/GCCcore/6.3.0/bin/../lib/gcc/x86_64-pc-linux-gnu/6.3.0/ -mtune=generic -march=x86-64 -g -O0
REM seed -293067700 -2112224185 -79565856 -1254931936 990588729 -849406071 -1793597064 -2143087791 298928932 -462535503 -1281952724 -1520520901
REM
REM C.POTCAR (d86ddea03c3ceb6dc662c8ad6801f873)
REM 
CELL 1.54180   15.00000   15.00000   15.00000   90.00000   90.00000   90.00000
LATT -1
SFAC C  
C      1  0.7047879386251  0.5230652493607  0.5271108797040 1.0
C      1  0.4679182628335  0.5273256394225  0.7022468564031 1.0
C      1  0.2945091239853  0.5270895861501  0.4704369361771 1.0
C      1  0.5337628559917  0.5308391066518  0.3033687621242 1.0
C      1  0.2978874140540  0.4584562953687  0.5323067317824 1.0
C      1  0.5297242633614  0.4586077706880  0.7057033625406 1.0
C      1  0.6968403114544  0.4547195622162  0.4663347553238 1.0
C      1  0.4729363578240  0.4625690299896  0.2952171757238 1.0
C      1  0.4156588007838  0.3658675629543  0.3735913030876 1.0
C      1  0.6401567429181  0.3639710416537  0.3736903289741 1.0
C      1  0.5978677488686  0.3714947104134  0.6255108639972 1.0
C      1  0.3628421859755  0.3671296058135  0.6147472548815 1.0
C      1  0.6264073133705  0.6215304925452  0.3601996518546 1.0
C      1  0.3745232611688  0.6141970734756  0.4022599191526 1.0
C      1  0.3855065815341  0.6185303459422  0.6370845711194 1.0
C      1  0.6265889606002  0.6198132060768  0.5844445407926 1.0
C      1  0.4790057285810  0.6138088000689  0.6587663189403 1.0
C      1  0.3219453902022  0.6201802313816  0.4829636561399 1.0
C      1  0.5304830655642  0.6188743856179  0.3497278183049 1.0
C      1  0.6854721213085  0.6202874965020  0.5078178156847 1.0
C      1  0.5170824339335  0.3656338484218  0.6780428334465 1.0
C      1  0.6505794059755  0.3665835889417  0.4696163551535 1.0
C      1  0.4922558172696  0.3654284820785  0.3147933276001 1.0
C      1  0.3411589527013  0.3717739229553  0.5212239664137 1.0
C      1  0.4654923864287  0.6435744195335  0.4156980559738 1.0
C      1  0.6638457203218  0.6626746446428  0.4315255676983 1.0
C      1  0.5339500153636  0.6441427161472  0.5855907094528 1.0
C      1  0.3779632060128  0.6520105801946  0.5502986807687 1.0
C      1  0.5686865266927  0.3232956165280  0.3362094751569 1.0
C      1  0.4144283982043  0.3414994252535  0.4662279732323 1.0
C      1  0.4497150834080  0.3337726838557  0.6221450194269 1.0
C      1  0.5844568682209  0.3420035664157  0.5345796783609 1.0
C      1  0.3282722810577  0.4579334412352  0.6284455558905 1.0
C      1  0.3890242761367  0.4561510647437  0.3438456726284 1.0
C      1  0.6736691200125  0.4575932448561  0.3695342103199 1.0
C      1  0.6160954846116  0.4614042106045  0.6579108036326 1.0
C      1  0.6562152721302  0.5294965581233  0.6110436294921 1.0
C      1  0.6306048506083  0.5279595807111  0.3266405879430 1.0
C      1  0.3422428573074  0.5242613153306  0.3840698910622 1.0
C      1  0.3717309926317  0.5277622778061  0.6718695844100 1.0
C      1  0.4874755358258  0.3203870842943  0.5298291547146 1.0
C      1  0.4702648861405  0.6654166350341  0.5125527645140 1.0
END
