TITL C-68400-6454-4 -7.949 3375.00 -1378.95130269 0 0 172 (C2h) n - 1
REM
REM Run started: at 2020.11.23 01:26:05 in /rds/project/t2_vol4/rds-t2-cs072/BORA/CARBON/AIRSS/Generating-Clusters/Str-Search/Higher-Symm
REM VASP from code version vasp.5.4.4.18Apr17-6-g9f103f2a35 (build Oct 11 2019 16:45:47) gamma-only
REM
REM
REM
REM
REM ./C.cell (e5ae0387ce4d49c7c0135a1433873289)
REM AIRSS Version 0.9.1 bugfix July 2018 build 013d7b7c2542+ Fri, 06 Jul 2018 19:26:36 +0100
REM compiler GCC version 4.8.5 20150623 (Red Hat 4.8.5-39)
REM options -cpp -mtune=generic -march=x86-64 -g -O0
REM seed -370862407 812034485 1168861418 1127432821 1512440557 -510307817 1558541266 944790787 -1792499669 -803606524 -239532063 -944553026
REM
REM C.POTCAR (d86ddea03c3ceb6dc662c8ad6801f873)
REM 
CELL 1.54180   15.00000   15.00000   15.00000   90.00000   90.00000   90.00000
LATT -1
SFAC C  
C      1  0.6001823294602  0.3109217137463  0.5860782565241 1.0
C      1  0.3973479582307  0.6916393918980  0.5848157193736 1.0
C      1  0.6026361000619  0.3083575527953  0.4151693523951 1.0
C      1  0.3998195108389  0.6890801581038  0.4139245668782 1.0
C      1  0.6025996487175  0.6916503407263  0.5847701007364 1.0
C      1  0.3997948060466  0.3109111331344  0.5860954591231 1.0
C      1  0.6001827878403  0.6890973464760  0.4139130964066 1.0
C      1  0.3974079012118  0.3083506415237  0.4152143669572 1.0
C      1  0.7814002569076  0.3991146321646  0.5532792416574 1.0
C      1  0.2153252166414  0.6012666506287  0.5526519558199 1.0
C      1  0.7846655428476  0.3987219370528  0.4473550369397 1.0
C      1  0.2185964345945  0.6008793598254  0.4467204663736 1.0
C      1  0.7846787821909  0.6012821012626  0.5525839526581 1.0
C      1  0.2185993897399  0.3991130989292  0.5533164466420 1.0
C      1  0.7813987183409  0.6008861815774  0.4466660522962 1.0
C      1  0.2153208127681  0.3987136944005  0.4474082616822 1.0
C      1  0.7455983071358  0.6821135650915  0.6899621571383 1.0
C      1  0.2555730423098  0.3195408217130  0.6906529633647 1.0
C      1  0.7444266182623  0.6804523940402  0.3093287072477 1.0
C      1  0.2544039079488  0.3178854447975  0.3100324141701 1.0
C      1  0.7444807403540  0.3195769107382  0.6906316159198 1.0
C      1  0.2544211676367  0.6820824057820  0.6899866517479 1.0
C      1  0.7455834963238  0.3179215637254  0.3100064428374 1.0
C      1  0.2555215572718  0.6804029799068  0.3093662500871 1.0
C      1  0.4587986825193  0.8376041908815  0.7691385095363 1.0
C      1  0.5412389083999  0.1646895390352  0.7723068195302 1.0
C      1  0.4587559532629  0.8352992709221  0.2277144707467 1.0
C      1  0.5412206578285  0.1624336420095  0.2308079518019 1.0
C      1  0.4588244616781  0.1646855083627  0.7722951333464 1.0
C      1  0.5412164987893  0.8376091495689  0.7691141710340 1.0
C      1  0.4588010673288  0.1624110736881  0.2308659090829 1.0
C      1  0.5411715721032  0.8353318140476  0.2277501329878 1.0
C      1  0.6849699185398  0.5443281302958  0.2195402705310 1.0
C      1  0.3146921208582  0.4540817275437  0.2200296478315 1.0
C      1  0.6853314353292  0.5459156248663  0.7799690566324 1.0
C      1  0.3150056894786  0.4556909220993  0.7804568493202 1.0
C      1  0.6853275164712  0.4541086948508  0.2199517350268 1.0
C      1  0.3150200991521  0.5442946560073  0.2195874036828 1.0
C      1  0.6849865024381  0.4557000770007  0.7804163057132 1.0
C      1  0.3146672790440  0.5459090100018  0.7800426006778 1.0
C      1  0.1426914097864  0.4529726252467  0.5894731728926 1.0
C      1  0.8701790164447  0.5476085394133  0.5766214466129 1.0
C      1  0.1298126807530  0.4523728602463  0.4233670841274 1.0
C      1  0.8572942887390  0.5470103109769  0.4105043382688 1.0
C      1  0.1298135400911  0.5476058689005  0.5766422997003 1.0
C      1  0.8572948315986  0.4529712962504  0.5894317419496 1.0
C      1  0.1426998339820  0.5470183014711  0.4105730233496 1.0
C      1  0.8701773864603  0.4523702054755  0.4233264971062 1.0
C      1  0.8412754157762  0.8591351287609  0.5699460985382 1.0
C      1  0.2167137617243  0.1594422658996  0.5058131058754 1.0
C      1  0.7833057778840  0.8405441727475  0.4942017709105 1.0
C      1  0.1587050944439  0.1408497370997  0.4301030854603 1.0
C      1  0.7833125805262  0.1594465831710  0.5057599589466 1.0
C      1  0.1587289152686  0.8591132068406  0.5699923638240 1.0
C      1  0.8412649832309  0.1408827869174  0.4300073479624 1.0
C      1  0.2166693291543  0.8405302241975  0.4942329641651 1.0
C      1  0.3984488736109  0.3790582382283  0.3328609418793 1.0
C      1  0.5999135255180  0.6192504381089  0.3313080371369 1.0
C      1  0.4000520264814  0.3807398614618  0.6686984265018 1.0
C      1  0.6015675713847  0.6209485104605  0.6671428732210 1.0
C      1  0.4000954988978  0.6192244396366  0.3313263995019 1.0
C      1  0.6015944515423  0.3790509891848  0.3328005710735 1.0
C      1  0.3984020572360  0.6209550863953  0.6671985073225 1.0
C      1  0.5999146826378  0.3807554636516  0.6686936157277 1.0
C      1  0.6229562325962  0.5992113588747  0.1643792841648 1.0
C      1  0.3771685527950  0.3984231233731  0.1660102239257 1.0
C      1  0.6228497751214  0.6015779255068  0.8339847703459 1.0
C      1  0.3770267999310  0.4008129530669  0.8356315401810 1.0
C      1  0.6228347557629  0.3984481810816  0.1659771420165 1.0
C      1  0.3770044148822  0.5991907357528  0.1643926036708 1.0
C      1  0.6230024473595  0.4008171006607  0.8356155946893 1.0
C      1  0.3771765777730  0.6015688195836  0.8340051071662 1.0
C      1  0.3049720903984  0.2671109084126  0.2470256376727 1.0
C      1  0.6947923224604  0.7310809838406  0.2447066235652 1.0
C      1  0.3051796319081  0.2689379458540  0.7553108904458 1.0
C      1  0.6950551057719  0.7328907273200  0.7529765370823 1.0
C      1  0.3051731401922  0.7310434007225  0.2447478517241 1.0
C      1  0.6950586750477  0.2671412179115  0.2469790169926 1.0
C      1  0.3049481416323  0.7328610260498  0.7530148868142 1.0
C      1  0.6948319004102  0.2689542148985  0.7552624684366 1.0
C      1  0.9548678723189  0.4538146926470  0.3738489433665 1.0
C      1  0.0966611231069  0.5303066822158  0.3311336181416 1.0
C      1  0.9033333662469  0.4696672001317  0.6688758297595 1.0
C      1  0.0451268607542  0.5461802765606  0.6261262628538 1.0
C      1  0.9033818552522  0.5302838880487  0.3310903348324 1.0
C      1  0.0451561300927  0.4538137283047  0.3738557827494 1.0
C      1  0.9548385340131  0.5461640370220  0.6261214091523 1.0
C      1  0.0966235214652  0.4697017423798  0.6688982721244 1.0
C      1  0.7053160500403  0.5511116783086  0.5968477181927 1.0
C      1  0.2976033328023  0.4500826067615  0.5969759794017 1.0
C      1  0.7023873701143  0.5499208456348  0.4030330384798 1.0
C      1  0.2946907823862  0.4488798691894  0.4031567886197 1.0
C      1  0.7024103370837  0.4501005791175  0.5969374107962 1.0
C      1  0.2947000886092  0.5510877636095  0.5968990448074 1.0
C      1  0.7052858384176  0.4489158528454  0.4031082838589 1.0
C      1  0.2976014273348  0.5498983622264  0.4030771911423 1.0
C      1  0.4497380005163  0.5479373333235  0.1332021567326 1.0
C      1  0.5501235288127  0.4496162156390  0.1342048030427 1.0
C      1  0.4498810664557  0.5504047104582  0.8658133714905 1.0
C      1  0.5502696888779  0.4520794187240  0.8668222386540 1.0
C      1  0.4498598338004  0.4495959968071  0.1342101938065 1.0
C      1  0.5502178240823  0.5479460073573  0.1331984948670 1.0
C      1  0.4497772720356  0.4520792416222  0.8668223656161 1.0
C      1  0.5501594488764  0.5504176735414  0.8658110749773 1.0
C      1  0.6094505959879  0.5932037444013  0.5771317121691 1.0
C      1  0.3936608301259  0.4092992932940  0.5785500835205 1.0
C      1  0.6063460791377  0.5907090306859  0.4214558769079 1.0
C      1  0.3905484399956  0.4067899155431  0.4228716467581 1.0
C      1  0.6063643784024  0.4093105477877  0.5785580011885 1.0
C      1  0.3905468145262  0.5932095650986  0.5771928877396 1.0
C      1  0.6094459724900  0.4067959791894  0.4228049566655 1.0
C      1  0.3936369509321  0.5906855313850  0.4214686065574 1.0
C      1  0.8289539105702  0.7647881911248  0.4519602476151 1.0
C      1  0.1635536577070  0.2378331876223  0.4511085007858 1.0
C      1  0.8364450442776  0.7621883866529  0.5489031111377 1.0
C      1  0.1710717158290  0.2351849692198  0.5480323154269 1.0
C      1  0.8364407066928  0.2378416197083  0.4510766406712 1.0
C      1  0.1710153854423  0.7647424706878  0.4519719780569 1.0
C      1  0.8289750215562  0.2352402505409  0.5480183145975 1.0
C      1  0.1635559072791  0.7621579673427  0.5489183682034 1.0
C      1  0.6989000860042  0.5923374554285  0.3062980478352 1.0
C      1  0.2998567914357  0.4064928406842  0.3067726317636 1.0
C      1  0.7001578877584  0.5935001035048  0.6932172367877 1.0
C      1  0.3010844622729  0.4076693862590  0.6936967245723 1.0
C      1  0.7001610002691  0.4065374354412  0.3067191933301 1.0
C      1  0.3010825969487  0.5923185920774  0.3063421156233 1.0
C      1  0.6989352367634  0.4076680150284  0.6936613383231 1.0
C      1  0.2998334033038  0.5934669417952  0.6932748900942 1.0
C      1  0.2288530784499  0.6980036342833  0.5919540778024 1.0
C      1  0.7689731739121  0.3026429046200  0.5940229717946 1.0
C      1  0.2310167297331  0.6973478256521  0.4059747918528 1.0
C      1  0.7711351933625  0.3019920698643  0.4080407396046 1.0
C      1  0.2310498147936  0.3026235293118  0.5940515444951 1.0
C      1  0.7711339363024  0.6980373785782  0.5919263461432 1.0
C      1  0.2288797059499  0.3019475477470  0.4080683577334 1.0
C      1  0.7689602853662  0.6973770775561  0.4059406733700 1.0
C      1  0.3202268224241  0.2638030837403  0.5530165912334 1.0
C      1  0.6818603886129  0.7381512177760  0.5502523437304 1.0
C      1  0.3181582029044  0.2618225912972  0.4497473929837 1.0
C      1  0.6797708692540  0.7361907090430  0.4469784620566 1.0
C      1  0.3181121581811  0.7381250743720  0.5502760731065 1.0
C      1  0.6797581519978  0.2638324944975  0.5529785633824 1.0
C      1  0.3202421898200  0.7361717086024  0.4470056881140 1.0
C      1  0.6818613459236  0.2618569094188  0.4497107439868 1.0
C      1  0.6366722559370  0.6929348200779  0.1839541234206 1.0
C      1  0.3635123591998  0.3048632759803  0.1859345507246 1.0
C      1  0.6365101655859  0.6951398860778  0.8140616505935 1.0
C      1  0.3632995526588  0.3070874459032  0.8160561304277 1.0
C      1  0.6365072184663  0.3049018626539  0.1858998421956 1.0
C      1  0.3632731101584  0.6929091027234  0.1839733139943 1.0
C      1  0.6367394735895  0.3070895903920  0.8160441401472 1.0
C      1  0.3635145917981  0.6951174279609  0.8140813826569 1.0
C      1  0.4490595123707  0.2953642084816  0.6744858062064 1.0
C      1  0.5511682108144  0.7062089292992  0.6716263521828 1.0
C      1  0.4488393108321  0.2938063021532  0.3283502772372 1.0
C      1  0.5509263371576  0.7046470248576  0.3255333654580 1.0
C      1  0.4487958613451  0.7062281392874  0.6716413408008 1.0
C      1  0.5509319440654  0.2953545458580  0.6744515448517 1.0
C      1  0.4490658273974  0.7046500277326  0.3255667140746 1.0
C      1  0.5512081421418  0.2937776052731  0.3283323592314 1.0
C      1  0.5989090158944  0.7608354635135  0.2494982102840 1.0
C      1  0.4008508739345  0.2370051794384  0.2516819451843 1.0
C      1  0.5991746712716  0.7630099524860  0.7483147021629 1.0
C      1  0.4010763294054  0.2391761927351  0.7505327446149 1.0
C      1  0.5991718580506  0.2370341202517  0.2516277547642 1.0
C      1  0.4010489907093  0.7608020977361  0.2495146144670 1.0
C      1  0.5989509546958  0.2391949260627  0.7505125132402 1.0
C      1  0.4008316170000  0.7629982678874  0.7483531994615 1.0
C      1  0.3144635846816  0.8225500319622  0.4960704676005 1.0
C      1  0.6855233138640  0.1774382925427  0.5039146054120 1.0
C      1  0.3144772537499  0.1774208009936  0.5039521164386 1.0
C      1  0.6855200929148  0.8225680854660  0.4960504835743 1.0
END
