TITL C-6826-489-9 -0.92 3375.00 -144.14481390 0 0 19 (C1) n - 1
REM
REM Run started: at 2020.12.17 19:32:09 in /gpfs/home/chem/mssmkc/CARBON/AIRSS/Generating-Clusters/Str-Search/Higher-Symm/C4-100
REM VASP from code version vasp.5.4.4.18Apr17-6-g9f103f2a35 (build Oct 11 2019 16:45:47) gamma-only
REM
REM
REM
REM
REM ./C.cell (6bd13a13d554368a30d355f37ece5b26)
REM AIRSS Version 0.9.1 bugfix July 2018 build 013d7b7c2542+ Fri, 06 Jul 2018 19:26:36 +0100
REM compiler GCC version 6.3.0
REM options -cpp -iprefix /gpfs/warwick/csc/orac/software/Core/GCCcore/6.3.0/bin/../lib/gcc/x86_64-pc-linux-gnu/6.3.0/ -mtune=generic -march=x86-64 -g -O0
REM seed -1847002786 821151554 571151008 -430393941 -699453316 -365967782 243705490 -1790926327 -1406197063 -1300955125 491271696 1528550851
REM
REM C.POTCAR (d86ddea03c3ceb6dc662c8ad6801f873)
REM 
CELL 1.54180   15.00000   15.00000   15.00000   90.00000   90.00000   90.00000
LATT -1
SFAC C  
C      1  0.5112977956655  0.5905028541914  0.3676208324387 1.0
C      1  0.6028665914340  0.5957196236554  0.4017343066035 1.0
C      1  0.6335257902941  0.5984549154460  0.4923113505766 1.0
C      1  0.5859201579369  0.6098700397659  0.5731461837369 1.0
C      1  0.4374909410613  0.5803728870057  0.5671565927863 1.0
C      1  0.3833913252320  0.5664484930299  0.4915992998945 1.0
C      1  0.4183898597234  0.5825679708495  0.4022916730538 1.0
C      1  0.5729453162502  0.5130034709738  0.5793123654379 1.0
C      1  0.4790663183088  0.4945484951458  0.5870081467671 1.0
C      1  0.3817025971549  0.4659490078325  0.4763406036601 1.0
C      1  0.4198314704534  0.4838003672742  0.3914544420160 1.0
C      1  0.5126269737157  0.4926484971060  0.3643842319634 1.0
C      1  0.5998749521142  0.4950595674950  0.4092044604286 1.0
C      1  0.6307579532227  0.4978579873355  0.4995564199577 1.0
C      1  0.4328256870426  0.4196246621523  0.5441952510405 1.0
C      1  0.4987773113415  0.6558722844886  0.5814362227763 1.0
C      1  0.4611296144389  0.2487380735005  0.5727123561585 1.0
C      1  0.4860084825757  0.7433599561365  0.5893893213301 1.0
C      1  0.4518277620341  0.3312813466154  0.5535439393734 1.0
END
