TITL C-68453-8018-33 -1.921 3375.00 -316.05503411 0 0 40 (C1) n - 1
REM
REM Run started: at 2020.12.01 08:24:45 in /rds/project/t2_vol4/rds-t2-cs072/BORA/CARBON/AIRSS/Generating-Clusters/Str-Search/Higher-Symm/C10-100
REM VASP from code version vasp.5.4.4.18Apr17-6-g9f103f2a35 (build Oct 11 2019 16:45:47) gamma-only
REM
REM
REM
REM
REM ./C.cell (f39ce9773e2efe3fa5bbdf770a4156b8)
REM AIRSS Version 0.9.1 bugfix July 2018 build 013d7b7c2542+ Fri, 06 Jul 2018 19:26:36 +0100
REM compiler GCC version 4.8.5 20150623 (Red Hat 4.8.5-39)
REM options -cpp -mtune=generic -march=x86-64 -g -O0
REM seed -1613784609 -129667735 -1848855863 1444462432 -1703095373 479355010 1579539560 -896942748 1508338544 -1667777922 1471796355 214883726
REM
REM C.POTCAR (d86ddea03c3ceb6dc662c8ad6801f873)
REM 
CELL 1.54180   15.00000   15.00000   15.00000   90.00000   90.00000   90.00000
LATT -1
SFAC C  
C      1  0.3914795211542  0.6432744149351  0.5360465768181 1.0
C      1  0.3375753253870  0.5634049749824  0.5189154553983 1.0
C      1  0.3280176669219  0.4677789479965  0.5209840861980 1.0
C      1  0.3836709632817  0.3707941308465  0.5203290053752 1.0
C      1  0.4710453099893  0.3308057832752  0.5175612909698 1.0
C      1  0.5674400016604  0.3377016404834  0.5338424539071 1.0
C      1  0.6422728321825  0.3999602500941  0.5158645812873 1.0
C      1  0.6714588364060  0.4910685362112  0.5192062867780 1.0
C      1  0.6467676337863  0.5870664219947  0.5359202814236 1.0
C      1  0.5759591096769  0.6566074100868  0.5203584209456 1.0
C      1  0.4825511691500  0.6769498011640  0.5176886530378 1.0
C      1  0.4692144632238  0.3483487228237  0.3508718408838 1.0
C      1  0.5369400237091  0.4105360727365  0.3215119679113 1.0
C      1  0.6286849989426  0.4102198862616  0.3531045206373 1.0
C      1  0.6656881880665  0.5000235799104  0.3575125117461 1.0
C      1  0.5993177878185  0.5609335011302  0.3288519310526 1.0
C      1  0.5799406689215  0.6486097565292  0.3584600444542 1.0
C      1  0.4837709544341  0.6613961551722  0.3546910042934 1.0
C      1  0.4379956928512  0.5822987100254  0.3222118237836 1.0
C      1  0.3507190463329  0.5545362634714  0.3520577851898 1.0
C      1  0.3264138571193  0.4623462357894  0.3573752004809 1.0
C      1  0.3772642375950  0.3736366364474  0.3569222506198 1.0
C      1  0.7087159829090  0.6233402463426  0.4664104895369 1.0
C      1  0.6283610955674  0.6712214614943  0.4382775758951 1.0
C      1  0.4444470986435  0.7063789402298  0.4294056288690 1.0
C      1  0.3539716415299  0.6902053963963  0.4539392877821 1.0
C      1  0.3184266504326  0.6061932976290  0.4285608755554 1.0
C      1  0.2863318355372  0.4359445010131  0.4411474624680 1.0
C      1  0.3346124498629  0.3515396054937  0.4406843392823 1.0
C      1  0.4983432132322  0.2939579989328  0.4267767504596 1.0
C      1  0.5891767351860  0.2821848997613  0.4514832756273 1.0
C      1  0.6480677217129  0.3530988847294  0.4273119236140 1.0
C      1  0.7098559141535  0.5300118570461  0.4373740674789 1.0
C      1  0.4951476214823  0.5002332137867  0.8528889221474 1.0
C      1  0.4973325853065  0.5001438000508  0.6791455408011 1.0
C      1  0.4973912466078  0.5003775981643  0.5064172456277 1.0
C      1  0.4969262909945  0.5003069453083  0.7672469341470 1.0
C      1  0.5123727613261  0.5107689589478  0.3259667460136 1.0
C      1  0.4970710359344  0.5008097857751  0.4234377592348 1.0
C      1  0.4972813309706  0.4997569765312  0.5952575022681 1.0
END
