TITL C-6826-489-138 -2.526 3375.00 -439.86980731 0 0 56 (D4h) n - 1
REM
REM Run started: at 2020.12.18 18:33:07 in /gpfs/home/chem/mssmkc/CARBON/AIRSS/Generating-Clusters/Str-Search/Higher-Symm/C4-100
REM VASP from code version vasp.5.4.4.18Apr17-6-g9f103f2a35 (build Oct 11 2019 16:45:47) gamma-only
REM
REM
REM
REM
REM ./C.cell (6bd13a13d554368a30d355f37ece5b26)
REM AIRSS Version 0.9.1 bugfix July 2018 build 013d7b7c2542+ Fri, 06 Jul 2018 19:26:36 +0100
REM compiler GCC version 6.3.0
REM options -cpp -iprefix /gpfs/warwick/csc/orac/software/Core/GCCcore/6.3.0/bin/../lib/gcc/x86_64-pc-linux-gnu/6.3.0/ -mtune=generic -march=x86-64 -g -O0
REM seed 1992255335 -801902371 1855630811 1055515331 817900529 1812768031 -913834221 -1099718510 -2103029345 643450140 265344233 -1752702998
REM
REM C.POTCAR (d86ddea03c3ceb6dc662c8ad6801f873)
REM 
CELL 1.54180   15.00000   15.00000   15.00000   90.00000   90.00000   90.00000
LATT -1
SFAC C  
C      1  0.2793532483139  0.6003949403706  0.5279081897013 1.0
C      1  0.2793517404926  0.4720772435670  0.6003921546427 1.0
C      1  0.2793530782687  0.3996048530157  0.4720921299250 1.0
C      1  0.2793534361388  0.5279220365285  0.3996101613208 1.0
C      1  0.7206467064935  0.6003940468476  0.5279118637343 1.0
C      1  0.7206463816677  0.4720821089092  0.6003910560471 1.0
C      1  0.7206467112044  0.3996060303675  0.4720880459401 1.0
C      1  0.7206464753860  0.5279179805693  0.3996087729578 1.0
C      1  0.4485420507897  0.5631964325882  0.4643569438359 1.0
C      1  0.4485411221806  0.5356429869117  0.5631962460297 1.0
C      1  0.4485420396318  0.4368036332241  0.5356430050329 1.0
C      1  0.4485412103340  0.4643570787920  0.4368036871758 1.0
C      1  0.5514579859039  0.5631962579494  0.4643570258666 1.0
C      1  0.5514583189759  0.5356431202358  0.5631964451790 1.0
C      1  0.5514579526101  0.4368038234441  0.5356428923539 1.0
C      1  0.5514582899329  0.4643569739112  0.4368034679843 1.0
C      1  0.6890372076000  0.3939316228126  0.5599731688447 1.0
C      1  0.6890410180270  0.4400292177807  0.3939364585989 1.0
C      1  0.6890372568193  0.6060684390508  0.4400267426726 1.0
C      1  0.6890409551566  0.5599708968532  0.6060634644540 1.0
C      1  0.3109653161680  0.3939284229108  0.5599747501860 1.0
C      1  0.3109561563868  0.4400308467450  0.3939394874194 1.0
C      1  0.3109652928594  0.6060714434361  0.4400250136692 1.0
C      1  0.3109555489572  0.5599683115645  0.6060602002562 1.0
C      1  0.5500526331990  0.6375791489239  0.3279970537473 1.0
C      1  0.5500528251557  0.6720022928992  0.6375788416394 1.0
C      1  0.5500526244916  0.3624209212018  0.6720028789881 1.0
C      1  0.5500528482274  0.3279977959688  0.3624211047828 1.0
C      1  0.4499476878788  0.6375793516727  0.3279972350639 1.0
C      1  0.4499463859501  0.6720024882119  0.6375786261530 1.0
C      1  0.4499476802888  0.3624207434400  0.6720026662469 1.0
C      1  0.4499464195928  0.3279975793687  0.3624212756766 1.0
C      1  0.4499627485594  0.7181731220720  0.4715128434677 1.0
C      1  0.4499614584950  0.5284867025488  0.7181725068236 1.0
C      1  0.4499627095096  0.2818269855870  0.5284870741366 1.0
C      1  0.4499614507018  0.4715133871977  0.2818273857729 1.0
C      1  0.5500375919181  0.7181731795163  0.4715131214980 1.0
C      1  0.5500377970630  0.5284869732211  0.7181724536072 1.0
C      1  0.5500375501321  0.2818268897044  0.5284868098831 1.0
C      1  0.5500378044497  0.4715131192321  0.2818274883471 1.0
C      1  0.5941703139713  0.6439590814532  0.4188127653079 1.0
C      1  0.5941724940831  0.5811866035972  0.6439579082551 1.0
C      1  0.5941702922306  0.3560409831962  0.5811871839063 1.0
C      1  0.5941725249026  0.4188134904601  0.3560420473912 1.0
C      1  0.4058350548031  0.6439602000668  0.4188120677956 1.0
C      1  0.4058256738850  0.5811859959046  0.6439569338782 1.0
C      1  0.4058350815323  0.3560399575308  0.5811877788008 1.0
C      1  0.4058257750340  0.4188139508382  0.3560428848411 1.0
C      1  0.4484294822502  0.5649839250485  0.2672099285229 1.0
C      1  0.4484294673290  0.7327901055341  0.5649836027596 1.0
C      1  0.4484294900273  0.4350161605341  0.7327899672576 1.0
C      1  0.4484294736208  0.2672099783690  0.4350162861600 1.0
C      1  0.5515702798633  0.5649836761280  0.2672098928090 1.0
C      1  0.5515702974215  0.7327900346964  0.5649838756406 1.0
C      1  0.5515702891238  0.4350163904879  0.7327900602868 1.0
C      1  0.5515702940106  0.2672100370030  0.4350160767244 1.0
END
