TITL C-6826-489-141 -0.797 3375.00 -114.66584860 0 0 16 (C1) n - 1
REM
REM Run started: at 2020.12.18 19:05:50 in /gpfs/home/chem/mssmkc/CARBON/AIRSS/Generating-Clusters/Str-Search/Higher-Symm/C4-100
REM VASP from code version vasp.5.4.4.18Apr17-6-g9f103f2a35 (build Oct 11 2019 16:45:47) gamma-only
REM
REM
REM
REM
REM ./C.cell (6bd13a13d554368a30d355f37ece5b26)
REM AIRSS Version 0.9.1 bugfix July 2018 build 013d7b7c2542+ Fri, 06 Jul 2018 19:26:36 +0100
REM compiler GCC version 6.3.0
REM options -cpp -iprefix /gpfs/warwick/csc/orac/software/Core/GCCcore/6.3.0/bin/../lib/gcc/x86_64-pc-linux-gnu/6.3.0/ -mtune=generic -march=x86-64 -g -O0
REM seed 530156808 -1877762421 -1772382408 -959500469 694943410 639709150 -1327234786 -1288353487 -439013226 -2018022415 1531012051 2045858349
REM
REM C.POTCAR (d86ddea03c3ceb6dc662c8ad6801f873)
REM 
CELL 1.54180   15.00000   15.00000   15.00000   90.00000   90.00000   90.00000
LATT -1
SFAC C  
C      1  0.6809135021462  0.5269599040486  0.4969799720274 1.0
C      1  0.4338661429209  0.3379983607376  0.5033858408768 1.0
C      1  0.4082515891292  0.6450161807449  0.5020515183523 1.0
C      1  0.6076636228895  0.6411590370337  0.5143275736180 1.0
C      1  0.5679872288813  0.3349487045141  0.5139129637968 1.0
C      1  0.3316674820593  0.5357422830830  0.5150514494497 1.0
C      1  0.6787135038535  0.6962884339797  0.5302670549691 1.0
C      1  0.5775207429559  0.2440346456382  0.5122647120208 1.0
C      1  0.2498734224126  0.5778316595016  0.5108824819795 1.0
C      1  0.7084295132536  0.6104022452205  0.5172765099081 1.0
C      1  0.4888845792188  0.2667924343531  0.5026184508062 1.0
C      1  0.3177665729242  0.6386311947159  0.5001744866717 1.0
C      1  0.5009103976889  0.4056306298429  0.5009956597450 1.0
C      1  0.4270542929695  0.5520196034528  0.4983604458676 1.0
C      1  0.5880777628096  0.5443956701822  0.5048978871909 1.0
C      1  0.5055097438869  0.4994051129511  0.5012655927200 1.0
END
