TITL C-68134-4351-2 -1.053 3375.00 -165.27429722 0 0 21 (C1) n - 1
REM
REM Run started: at 2020.12.28 01:07:26 in /rds/project/t2_vol4/rds-t2-cs072/BORA/CARBON/AIRSS/Generating-Clusters/Str-Search/Higher-Symm/C10-100
REM VASP from code version vasp.5.4.4.18Apr17-6-g9f103f2a35 (build Oct 11 2019 16:45:47) gamma-only
REM
REM
REM
REM
REM ./C.cell (f39ce9773e2efe3fa5bbdf770a4156b8)
REM AIRSS Version 0.9.1 bugfix July 2018 build 013d7b7c2542+ Fri, 06 Jul 2018 19:26:36 +0100
REM compiler GCC version 4.8.5 20150623 (Red Hat 4.8.5-39)
REM options -cpp -mtune=generic -march=x86-64 -g -O0
REM seed -1972051663 -1740768729 428256204 -1120811573 -1194911236 -962215859 -1204681126 484272068 -688258078 -1708679179 -1814963897 -1984687862
REM
REM C.POTCAR (d86ddea03c3ceb6dc662c8ad6801f873)
REM 
CELL 1.54180   15.00000   15.00000   15.00000   90.00000   90.00000   90.00000
LATT -1
SFAC C  
C      1  0.4624495145009  0.4155055682309  0.5627318458109 1.0
C      1  0.3821552034300  0.4706982012776  0.5493760079521 1.0
C      1  0.4051979292859  0.5621894621276  0.5667850014969 1.0
C      1  0.4968497635955  0.5597389722138  0.6015695937959 1.0
C      1  0.5833448018664  0.5894480304564  0.5671685163400 1.0
C      1  0.6127807259031  0.4953998224928  0.5685369558759 1.0
C      1  0.5280047232920  0.4674385277159  0.6049332328657 1.0
C      1  0.6428727496333  0.5517397299752  0.4312601233710 1.0
C      1  0.6330853629461  0.3837341806180  0.4503029441874 1.0
C      1  0.6299501184551  0.2999006803923  0.4069803686303 1.0
C      1  0.3845805488076  0.3537500520847  0.4487987581254 1.0
C      1  0.2935898149235  0.3620861175827  0.4217528661234 1.0
C      1  0.4111809370254  0.7038171052761  0.4884353398040 1.0
C      1  0.5605630434436  0.7000201206893  0.4512141124947 1.0
C      1  0.4870278914041  0.7396434321788  0.4542032365985 1.0
C      1  0.6090137164343  0.6252015732405  0.4800733377217 1.0
C      1  0.6489188603422  0.4714091191276  0.4837868832111 1.0
C      1  0.5550824719774  0.3310636883708  0.4562080143800 1.0
C      1  0.4700641337002  0.3501655197610  0.4930652947954 1.0
C      1  0.3306518269970  0.4247574763152  0.4836611513750 1.0
C      1  0.3726356620365  0.6422927198728  0.5291564150449 1.0
END
