TITL C-6826-489-78 -2.094 3375.00 -338.28976129 0 0 42 (C1) n - 1
REM
REM Run started: at 2020.12.18 07:38:42 in /gpfs/home/chem/mssmkc/CARBON/AIRSS/Generating-Clusters/Str-Search/Higher-Symm/C4-100
REM VASP from code version vasp.5.4.4.18Apr17-6-g9f103f2a35 (build Oct 11 2019 16:45:47) gamma-only
REM
REM
REM
REM
REM ./C.cell (6bd13a13d554368a30d355f37ece5b26)
REM AIRSS Version 0.9.1 bugfix July 2018 build 013d7b7c2542+ Fri, 06 Jul 2018 19:26:36 +0100
REM compiler GCC version 6.3.0
REM options -cpp -iprefix /gpfs/warwick/csc/orac/software/Core/GCCcore/6.3.0/bin/../lib/gcc/x86_64-pc-linux-gnu/6.3.0/ -mtune=generic -march=x86-64 -g -O0
REM seed -739576824 534183221 -1291318408 1357041222 -1215205360 -1779824098 1841833060 2142246081 1925994736 1022772412 1361088064 187668615
REM
REM C.POTCAR (d86ddea03c3ceb6dc662c8ad6801f873)
REM 
CELL 1.54180   15.00000   15.00000   15.00000   90.00000   90.00000   90.00000
LATT -1
SFAC C  
C      1  0.4577511663459  0.6805009255903  0.6230579170143 1.0
C      1  0.3289647479992  0.6807039362800  0.5035549641320 1.0
C      1  0.4666084696131  0.6802030988651  0.3915916654347 1.0
C      1  0.6418118895572  0.6717586693530  0.3849713342939 1.0
C      1  0.6244061561747  0.6892946774887  0.5584891700361 1.0
C      1  0.7012859052448  0.5455321496787  0.4506208645005 1.0
C      1  0.5897718762246  0.5979386679365  0.6600733552808 1.0
C      1  0.3878930262126  0.5298604011451  0.5909898951539 1.0
C      1  0.3135214146365  0.5407360905209  0.4403156406112 1.0
C      1  0.5067633651297  0.5217108026622  0.3251925143849 1.0
C      1  0.6596498315752  0.5769858972684  0.3768456612966 1.0
C      1  0.6561422155398  0.6008714047307  0.5918211233097 1.0
C      1  0.4317024977549  0.5885816032551  0.6540838565498 1.0
C      1  0.2739409608506  0.6025367164128  0.4951260016473 1.0
C      1  0.4482625667821  0.5951911454263  0.3505146887736 1.0
C      1  0.4976201909907  0.3622920897272  0.6712832527842 1.0
C      1  0.3280236397560  0.3618175166774  0.5741820581047 1.0
C      1  0.4302750467081  0.3663787976726  0.3735792734700 1.0
C      1  0.6319556851898  0.3516396356392  0.3860195273891 1.0
C      1  0.6478009027730  0.3652125226554  0.5700233598688 1.0
C      1  0.2760144528076  0.4258767940035  0.5640591367790 1.0
C      1  0.4337465213116  0.4550033106645  0.3482653009498 1.0
C      1  0.6311159067532  0.4224023477926  0.3438668308452 1.0
C      1  0.6872529659638  0.4377126638384  0.5664973802092 1.0
C      1  0.5103860854451  0.4400615696594  0.6956730945227 1.0
C      1  0.5513683137781  0.6804580805526  0.6245224116615 1.0
C      1  0.4028102841327  0.7124328666761  0.5525472005658 1.0
C      1  0.4057939580917  0.7103236189421  0.4577910159759 1.0
C      1  0.5568823970190  0.7078592554738  0.3994510734460 1.0
C      1  0.6204625240615  0.7133436983641  0.4702702411452 1.0
C      1  0.3785421854107  0.5306270361747  0.3742485011179 1.0
C      1  0.6001589492188  0.5108585774133  0.3351247833683 1.0
C      1  0.6951029394297  0.5287785256113  0.5409694630707 1.0
C      1  0.5150028345374  0.5331347038733  0.6677319649274 1.0
C      1  0.3044776328234  0.5171894749988  0.5405518832309 1.0
C      1  0.4043378456291  0.3140883375386  0.5439008449124 1.0
C      1  0.4098800846033  0.3072615917393  0.4493822761566 1.0
C      1  0.5753138255150  0.3021821817213  0.4423984533612 1.0
C      1  0.5751531193137  0.3129342844409  0.5379314902817 1.0
C      1  0.4906877759546  0.3145539506127  0.5884449631470 1.0
C      1  0.4745613409226  0.5123774822195  0.5704092542821 1.0
C      1  0.4891862022189  0.2976158987036  0.4042316120075 1.0
END
