TITL C-6826-489-93 -4.724 3375.00 -796.21548802 0 0 98 (C1) n - 1
REM
REM Run started: at 2020.12.18 10:35:23 in /gpfs/home/chem/mssmkc/CARBON/AIRSS/Generating-Clusters/Str-Search/Higher-Symm/C4-100
REM VASP from code version vasp.5.4.4.18Apr17-6-g9f103f2a35 (build Oct 11 2019 16:45:47) gamma-only
REM
REM
REM
REM
REM ./C.cell (6bd13a13d554368a30d355f37ece5b26)
REM AIRSS Version 0.9.1 bugfix July 2018 build 013d7b7c2542+ Fri, 06 Jul 2018 19:26:36 +0100
REM compiler GCC version 6.3.0
REM options -cpp -iprefix /gpfs/warwick/csc/orac/software/Core/GCCcore/6.3.0/bin/../lib/gcc/x86_64-pc-linux-gnu/6.3.0/ -mtune=generic -march=x86-64 -g -O0
REM seed 320242071 1905415499 -975042034 1309605550 -1187160425 -1614789686 -1006117721 1496117256 1326953653 -1686402166 -510919964 -1441071332
REM
REM C.POTCAR (d86ddea03c3ceb6dc662c8ad6801f873)
REM 
CELL 1.54180   15.00000   15.00000   15.00000   90.00000   90.00000   90.00000
LATT -1
SFAC C  
C      1  0.2790592217601  0.5080792435269  0.3297363883668 1.0
C      1  0.2849581631882  0.6801194559792  0.4492859098614 1.0
C      1  0.3031877068111  0.5683269899812  0.6663799609414 1.0
C      1  0.2686781691817  0.4076671616526  0.6507401271442 1.0
C      1  0.2812042344657  0.3596974408731  0.4041683502708 1.0
C      1  0.3932068745675  0.6298535700322  0.2505594553058 1.0
C      1  0.3909070409405  0.7552354577997  0.5582695058200 1.0
C      1  0.3903721049056  0.5242921186818  0.8006534127369 1.0
C      1  0.3637195498798  0.2783538368376  0.6121846351571 1.0
C      1  0.3750455758120  0.3065526891777  0.2795558371811 1.0
C      1  0.3002646032293  0.4398614278517  0.4681876655068 1.0
C      1  0.2656330286353  0.5240011293534  0.4226284631874 1.0
C      1  0.2680425699622  0.5927125990930  0.4847456257756 1.0
C      1  0.3000392938491  0.5430374195495  0.5668048299702 1.0
C      1  0.2716116488541  0.4455870443177  0.5632292429742 1.0
C      1  0.6177157901951  0.2637699321628  0.2759670513721 1.0
C      1  0.6393315651599  0.6255958096854  0.1852551120113 1.0
C      1  0.6219119493538  0.8119881712990  0.4886728911132 1.0
C      1  0.6193022743967  0.5622443253710  0.8628611276482 1.0
C      1  0.6008659649341  0.2054398783378  0.6615378797859 1.0
C      1  0.7392707098896  0.3759073272716  0.6159885038316 1.0
C      1  0.7325320820120  0.3814253678273  0.4257972534474 1.0
C      1  0.7590619585376  0.5365008918543  0.3349503192406 1.0
C      1  0.6908700073266  0.6580335195470  0.4339194980819 1.0
C      1  0.7367992973816  0.5672591273706  0.6575833863918 1.0
C      1  0.4551305698810  0.3121345979244  0.2253947322923 1.0
C      1  0.4853401951159  0.6532197875000  0.2459244733877 1.0
C      1  0.4824670046826  0.7776768139072  0.5850243377035 1.0
C      1  0.4642352368858  0.4828230513984  0.8447440020599 1.0
C      1  0.4549680115118  0.2592074978983  0.5978753983762 1.0
C      1  0.5381877278156  0.2707861446155  0.6507100478422 1.0
C      1  0.5493023270108  0.3147945615263  0.2482255557362 1.0
C      1  0.5628066870638  0.5939324084364  0.2257131877910 1.0
C      1  0.5521224591081  0.8102384319797  0.5352891162242 1.0
C      1  0.5461647437250  0.5227416626668  0.8609267315900 1.0
C      1  0.5016406557667  0.7108112846947  0.6537433605704 1.0
C      1  0.4537701301115  0.3977073285167  0.7916485499948 1.0
C      1  0.4733984279750  0.2704476319490  0.5004888264826 1.0
C      1  0.4539816128653  0.4061796642925  0.1969043642156 1.0
C      1  0.5057938112792  0.7165789673317  0.3202171196312 1.0
C      1  0.8089186359641  0.5234724251043  0.6060316329101 1.0
C      1  0.7981224283965  0.4396759883989  0.5659352384959 1.0
C      1  0.7922321715976  0.4457937452837  0.4715959878464 1.0
C      1  0.7947186092969  0.5318671399748  0.4274310580062 1.0
C      1  0.7684199965468  0.6113895687977  0.4769819459312 1.0
C      1  0.7195877867404  0.6052178883445  0.2082712067405 1.0
C      1  0.6432823740855  0.7453480930251  0.4235121574034 1.0
C      1  0.6899496074585  0.5907253372540  0.8150740715437 1.0
C      1  0.6847688390444  0.2332688726550  0.6533309674266 1.0
C      1  0.6832616130501  0.2669078155927  0.3303382248465 1.0
C      1  0.5250977983235  0.3487835389611  0.4821331914506 1.0
C      1  0.5398235014692  0.4187905597842  0.2442300603454 1.0
C      1  0.4567191933306  0.5934988728223  0.4048732544150 1.0
C      1  0.5613433193122  0.6431232657876  0.6206212269507 1.0
C      1  0.5054904834854  0.4220224143642  0.7152509984604 1.0
C      1  0.2641291577372  0.4147233034091  0.3191234568092 1.0
C      1  0.2674153132329  0.6846580131242  0.3557576868648 1.0
C      1  0.2704959769839  0.6625209007114  0.6543711297253 1.0
C      1  0.2697023731490  0.4824611874033  0.7103281683181 1.0
C      1  0.2405809770984  0.3085959692877  0.4846062191027 1.0
C      1  0.3501122704237  0.6840997707641  0.3174577998708 1.0
C      1  0.3492696554784  0.7087811716082  0.6366330031877 1.0
C      1  0.3208820194508  0.4585838483048  0.7835299618640 1.0
C      1  0.3217010095079  0.2741106140130  0.5216137154645 1.0
C      1  0.3202485787645  0.3832163572086  0.2518133227748 1.0
C      1  0.3263132363373  0.3358128542247  0.6829534609877 1.0
C      1  0.3574507685138  0.2987234812824  0.3719922133756 1.0
C      1  0.3649474020606  0.5331027199810  0.2715736487901 1.0
C      1  0.3697414083733  0.7255463210828  0.4725715887219 1.0
C      1  0.4033256120796  0.5756996210706  0.7112825560199 1.0
C      1  0.4232077339181  0.6725100520713  0.6884061455303 1.0
C      1  0.3620254132903  0.3706199838918  0.7673206805072 1.0
C      1  0.3903237480228  0.2631278425782  0.4538353783058 1.0
C      1  0.3738050048388  0.4512849527301  0.2118727364955 1.0
C      1  0.4240049439223  0.6933255299813  0.3865635458311 1.0
C      1  0.7395735770633  0.6003962818914  0.7491981078621 1.0
C      1  0.7494825146996  0.2823044192805  0.6282387058888 1.0
C      1  0.7403500745870  0.2991033846862  0.3880912851781 1.0
C      1  0.7862717563708  0.5847509571830  0.2616181014134 1.0
C      1  0.5843862093582  0.7429514412456  0.3529513264201 1.0
C      1  0.5444407922403  0.5973879985797  0.4500465315018 1.0
C      1  0.5690884848544  0.5540847590372  0.6580872738799 1.0
C      1  0.5634496169867  0.3717720942851  0.6498284353033 1.0
C      1  0.5593908729518  0.4056866802136  0.4082722847930 1.0
C      1  0.5834885565859  0.5050311536422  0.2749905741853 1.0
C      1  0.5595526457312  0.6295036436226  0.5324858168217 1.0
C      1  0.4800658434280  0.5086714016335  0.6677582352421 1.0
C      1  0.5205887490036  0.4025150469929  0.5618301811891 1.0
C      1  0.5114511895009  0.4577115909498  0.3367078284032 1.0
C      1  0.4382738284659  0.5231477549850  0.3481091916470 1.0
C      1  0.6292980057309  0.5906940660369  0.4040967961094 1.0
C      1  0.6509863792573  0.5115290079000  0.6524423021035 1.0
C      1  0.6589129652629  0.4156178488250  0.6460733809289 1.0
C      1  0.6480641660583  0.4277305002347  0.4039432069537 1.0
C      1  0.6597495049096  0.5124225364594  0.3470660667569 1.0
C      1  0.7832054658856  0.6032267992650  0.5700151446754 1.0
C      1  0.3723593949851  0.4795110534196  0.5325265301226 1.0
C      1  0.4554567587700  0.4662755886804  0.5762150142793 1.0
END
