TITL C-68302-2133-31 -2.649 3375.00 -448.39052736 0 0 60 (Td) n - 1
REM
REM Run started: at 2020.12.15 10:45:43 in /rds/project/t2_vol4/rds-t2-cs072/BORA/CARBON/AIRSS/Generating-Clusters/Str-Search/Higher-Symm/Only-C60
REM VASP from code version vasp.5.4.4.18Apr17-6-g9f103f2a35 (build Oct 11 2019 16:45:47) gamma-only
REM
REM
REM
REM
REM ./C.cell (5f7b7a0d59291d2373303da1f58b8d66)
REM AIRSS Version 0.9.1 bugfix July 2018 build 013d7b7c2542+ Fri, 06 Jul 2018 19:26:36 +0100
REM compiler GCC version 4.8.5 20150623 (Red Hat 4.8.5-39)
REM options -cpp -mtune=generic -march=x86-64 -g -O0
REM seed -1193337184 249150179 -497372116 1530903621 -1108343245 1330821361 563154383 -275149562 1182168072 495242523 -1031250125 -1530880363
REM
REM C.POTCAR (d86ddea03c3ceb6dc662c8ad6801f873)
REM 
CELL 1.54180   15.00000   15.00000   15.00000   90.00000   90.00000   90.00000
LATT -1
SFAC C  
C      1  0.5746700114784  0.7071236320046  0.5049491889489 1.0
C      1  0.7071237148910  0.5049490565140  0.5746699536986 1.0
C      1  0.5049492118908  0.5746700490684  0.7071238209607 1.0
C      1  0.5746699449095  0.2928763450000  0.4950508717202 1.0
C      1  0.4253299745176  0.7071237805139  0.4950508558235 1.0
C      1  0.4253300409259  0.2928762369477  0.5049490952419 1.0
C      1  0.7071236791734  0.4950508261101  0.4253300207787 1.0
C      1  0.2928762486466  0.5049491202340  0.4253299896490 1.0
C      1  0.2928762815095  0.4950507786696  0.5746700261468 1.0
C      1  0.5049491002089  0.4253300315459  0.2928762075889 1.0
C      1  0.4950508172435  0.5746700148667  0.2928763772042 1.0
C      1  0.4950509345371  0.4253300734911  0.7071236005208 1.0
C      1  0.5746700510022  0.5049492147792  0.7071238277184 1.0
C      1  0.7071236312068  0.5746700112892  0.5049491875302 1.0
C      1  0.5049490528567  0.7071237126038  0.5746699519586 1.0
C      1  0.5746700159897  0.4950508138051  0.2928763746274 1.0
C      1  0.4253300708973  0.4950509275796  0.7071236029561 1.0
C      1  0.4253300276298  0.5049491059331  0.2928762016197 1.0
C      1  0.7071237756455  0.4253299746159  0.4950508570015 1.0
C      1  0.2928762363069  0.4253300419984  0.5049490907612 1.0
C      1  0.2928763536106  0.5746699471943  0.4950508686557 1.0
C      1  0.5049491186018  0.2928762557588  0.4253299930649 1.0
C      1  0.4950507852805  0.2928762751384  0.5746700231257 1.0
C      1  0.4950508291639  0.7071236781006  0.4253300230781 1.0
C      1  0.7145731251242  0.4236283135013  0.3524362803501 1.0
C      1  0.4236283412001  0.3524363674926  0.7145731045595 1.0
C      1  0.3524362456243  0.7145731292294  0.4236283307579 1.0
C      1  0.7145730508212  0.5763716861592  0.6475636854269 1.0
C      1  0.2854268156488  0.4236283586995  0.6475637600858 1.0
C      1  0.2854268729845  0.5763716400227  0.3524362650390 1.0
C      1  0.4236282952916  0.6475637301079  0.2854269196873 1.0
C      1  0.5763716361933  0.3524362783882  0.2854268531686 1.0
C      1  0.5763716639135  0.6475638181996  0.7145731198551 1.0
C      1  0.3524362642860  0.2854269567109  0.5763716482138 1.0
C      1  0.6475637036420  0.7145731839093  0.5763716746641 1.0
C      1  0.6475636939989  0.2854269056972  0.4236283503657 1.0
C      1  0.7145731260517  0.3524362445635  0.4236283297734 1.0
C      1  0.4236283163187  0.7145731225699  0.3524362805110 1.0
C      1  0.3524363691129  0.4236283366069  0.7145731101186 1.0
C      1  0.7145731816870  0.6475637052040  0.5763716761178 1.0
C      1  0.2854269081651  0.6475636956150  0.4236283449241 1.0
C      1  0.2854269608557  0.3524362644094  0.5763716507065 1.0
C      1  0.4236283669004  0.2854268155296  0.6475637601065 1.0
C      1  0.5763716358084  0.2854268757940  0.3524362661816 1.0
C      1  0.5763716810903  0.7145730506349  0.6475636843387 1.0
C      1  0.3524362768665  0.5763716379141  0.2854268478253 1.0
C      1  0.6475638176060  0.5763716667125  0.7145731226342 1.0
C      1  0.6475637290206  0.4236282944423  0.2854269159580 1.0
C      1  0.5344670875504  0.5344671015090  0.6120095276581 1.0
C      1  0.5344670467741  0.4655331186650  0.3879900937901 1.0
C      1  0.4655331378105  0.5344670721014  0.3879900952339 1.0
C      1  0.4655331699199  0.4655331391031  0.6120102136998 1.0
C      1  0.5344669695192  0.3879901600117  0.4655330036899 1.0
C      1  0.4655329714999  0.6120098335121  0.4655330876960 1.0
C      1  0.6120100810627  0.5344665824266  0.5344673037687 1.0
C      1  0.5344665794537  0.6120100652032  0.5344673110954 1.0
C      1  0.6120098530794  0.4655329576078  0.4655331066800 1.0
C      1  0.3879901334094  0.5344669806952  0.4655330176388 1.0
C      1  0.3879903407491  0.4655326379563  0.5344666155902 1.0
C      1  0.4655326428359  0.3879903693324  0.5344666317099 1.0
END
