TITL C-69359-5796-19 -1.667 3375.00 -276.25642567 0 0 34 (C1) n - 1
REM
REM Run started: at 2020.11.27 09:48:13 in /rds/project/t2_vol4/rds-t2-cs072/BORA/CARBON/AIRSS/Generating-Clusters/Str-Search/Higher-Symm/C10-100
REM VASP from code version vasp.5.4.4.18Apr17-6-g9f103f2a35 (build Oct 11 2019 16:45:47) gamma-only
REM
REM
REM
REM
REM ./C.cell (f39ce9773e2efe3fa5bbdf770a4156b8)
REM AIRSS Version 0.9.1 bugfix July 2018 build 013d7b7c2542+ Fri, 06 Jul 2018 19:26:36 +0100
REM compiler GCC version 4.8.5 20150623 (Red Hat 4.8.5-39)
REM options -cpp -mtune=generic -march=x86-64 -g -O0
REM seed -1282882433 -1570964430 988866451 -1417338359 408611038 534318016 1278162812 -946592741 1680487581 -239155848 1045237388 742744495
REM
REM C.POTCAR (d86ddea03c3ceb6dc662c8ad6801f873)
REM 
CELL 1.54180   15.00000   15.00000   15.00000   90.00000   90.00000   90.00000
LATT -1
SFAC C  
C      1  0.4206512526383  0.3429534071058  0.3685910516961 1.0
C      1  0.5181856487757  0.3286623564629  0.3709874198715 1.0
C      1  0.5883648052250  0.2959446469516  0.4208414717784 1.0
C      1  0.6579831227733  0.3575551903814  0.4427050612697 1.0
C      1  0.6296568395684  0.2971377606653  0.5087531635815 1.0
C      1  0.6075658332007  0.3317493160096  0.5919843853396 1.0
C      1  0.5224984487550  0.3300449337404  0.6406065570153 1.0
C      1  0.4454156223266  0.2853806581948  0.6132025940775 1.0
C      1  0.3768273151948  0.3454457463097  0.5983517145985 1.0
C      1  0.3304526174978  0.3808776682034  0.5185361224798 1.0
C      1  0.3517017291058  0.3813031265428  0.4271301530800 1.0
C      1  0.6484262955327  0.4494794264098  0.4450614759605 1.0
C      1  0.6443655516805  0.4897366164761  0.5345175641236 1.0
C      1  0.6174417269331  0.4283235917211  0.6041013426435 1.0
C      1  0.5325756571334  0.4255586318135  0.6598487710688 1.0
C      1  0.4565385105704  0.4817938934854  0.6620143819957 1.0
C      1  0.3776142182656  0.4368838337590  0.6342721263595 1.0
C      1  0.3271318864162  0.4715898638211  0.5608227741901 1.0
C      1  0.3623975167370  0.4689130092581  0.3812665519493 1.0
C      1  0.4325983464994  0.4302213777842  0.3253920536370 1.0
C      1  0.5296491563090  0.4207497933265  0.3363427666166 1.0
C      1  0.5923657073479  0.4850428565113  0.3730112750209 1.0
C      1  0.5619846115890  0.5752843724330  0.3784904118623 1.0
C      1  0.5648839193589  0.6149887720670  0.4689505650970 1.0
C      1  0.6213660402785  0.5839379971206  0.5393898145556 1.0
C      1  0.6256993237606  0.6371152499491  0.6224531457576 1.0
C      1  0.5488279437744  0.6127279837654  0.6488358003431 1.0
C      1  0.4643791306465  0.5767334160039  0.6398742634903 1.0
C      1  0.4210137751634  0.6045203418778  0.5583911345767 1.0
C      1  0.3492229715993  0.5513769177972  0.5194521750620 1.0
C      1  0.3588864078294  0.5531566752113  0.4218612316802 1.0
C      1  0.4271263957107  0.6177135453104  0.4002355696803 1.0
C      1  0.4861580969042  0.6037628979639  0.3282527300492 1.0
C      1  0.4723278748983  0.6403820255664  0.4847714794922 1.0
END
