TITL C-6964-7684-32 -7.449 3375.00 -1283.08877730 0 0 157 (C1) n - 1
REM
REM Run started: at 2020.12.21 13:49:44 in /gpfs/home/chem/mssmkc/CARBON/AIRSS/Generating-Clusters/Str-Search/Higher-Symm/C100-200
REM VASP from code version vasp.5.4.4.18Apr17-6-g9f103f2a35 (build Oct 11 2019 16:45:47) gamma-only
REM
REM
REM
REM
REM ./C.cell (533062f00bc710175b3da973d35f2034)
REM AIRSS Version 0.9.1 bugfix July 2018 build 013d7b7c2542+ Fri, 06 Jul 2018 19:26:36 +0100
REM compiler GCC version 6.3.0
REM options -cpp -iprefix /gpfs/warwick/csc/orac/software/Core/GCCcore/6.3.0/bin/../lib/gcc/x86_64-pc-linux-gnu/6.3.0/ -mtune=generic -march=x86-64 -g -O0
REM seed 970366743 1077805083 -1174088165 584317958 -1126243781 -1403294936 -925405831 57121499 846408276 -990850978 -1044961709 -1564999964
REM
REM C.POTCAR (d86ddea03c3ceb6dc662c8ad6801f873)
REM 
CELL 1.54180   15.00000   15.00000   15.00000   90.00000   90.00000   90.00000
LATT -1
SFAC C  
C      1  0.3549975680402  0.7343051973263  0.2987568657170 1.0
C      1  0.2467310283257  0.6011804628789  0.2769706237262 1.0
C      1  0.1783512121110  0.3457460964671  0.4004800024790 1.0
C      1  0.8366336077688  0.3563828590350  0.5928006013674 1.0
C      1  0.4370030073084  0.1520072912410  0.4350502706237 1.0
C      1  0.5952854850339  0.5587215039170  0.1455699695555 1.0
C      1  0.8016563218089  0.2625503560626  0.4733469267295 1.0
C      1  0.2282581080743  0.3019488515149  0.5442622407523 1.0
C      1  0.5439221862702  0.3231558357965  0.2009349333637 1.0
C      1  0.7583109894925  0.4197349992200  0.7529947542976 1.0
C      1  0.5797574287410  0.3565135948389  0.2891471284357 1.0
C      1  0.5473095102483  0.7315361981871  0.7663569406075 1.0
C      1  0.4916362800350  0.4152440762810  0.5952591921579 1.0
C      1  0.5316581277390  0.4194033399717  0.7872402101100 1.0
C      1  0.8441435311807  0.4413463243096  0.4527332052129 1.0
C      1  0.5375657079492  0.5050758916985  0.4007929079024 1.0
C      1  0.2810214965536  0.5086394605615  0.4991755291210 1.0
C      1  0.6790302922571  0.6411232201199  0.7679377869470 1.0
C      1  0.1825933516940  0.4666895240917  0.7182113646115 1.0
C      1  0.2961935976166  0.5147069487538  0.2512009599988 1.0
C      1  0.4883499596350  0.2456187904991  0.2163030216289 1.0
C      1  0.2639046483614  0.2358396282578  0.3130854719497 1.0
C      1  0.2179666868554  0.6817744283667  0.3904072812444 1.0
C      1  0.7566820222251  0.6580791861236  0.7044623828263 1.0
C      1  0.3941381228764  0.7773201248857  0.7368346324364 1.0
C      1  0.4012682995352  0.4605959641270  0.5911491842539 1.0
C      1  0.3682111296443  0.4000521279155  0.3646029354167 1.0
C      1  0.8428653304119  0.4073071388329  0.7494030990092 1.0
C      1  0.5118857255046  0.3525812094405  0.3498253783341 1.0
C      1  0.3174784078221  0.2355056185531  0.2500669717910 1.0
C      1  0.4457230216039  0.4693120905630  0.1469931522593 1.0
C      1  0.5379586797753  0.4855075809733  0.1247232264230 1.0
C      1  0.6429031117401  0.7719887277273  0.4578003161581 1.0
C      1  0.7521326944508  0.6953419629012  0.3595853754300 1.0
C      1  0.5940644939272  0.1696022005881  0.3372429952816 1.0
C      1  0.3972647356084  0.7869589877665  0.3698273931314 1.0
C      1  0.6043884265066  0.2421391669566  0.5521829240109 1.0
C      1  0.2978302740165  0.5767891701561  0.6460937413614 1.0
C      1  0.3725409773639  0.8527335801192  0.6031681556248 1.0
C      1  0.7253856268381  0.2144920184843  0.4291983798269 1.0
C      1  0.5126912957050  0.4090959754108  0.4324701641096 1.0
C      1  0.2800641437285  0.3576512655391  0.7856743032696 1.0
C      1  0.1516903759345  0.5886820458917  0.5521089475349 1.0
C      1  0.2721529341847  0.6903373330983  0.3099584607891 1.0
C      1  0.4694792210580  0.5665951375720  0.4582360323864 1.0
C      1  0.4114706930077  0.8536630652391  0.5170452810873 1.0
C      1  0.4868564964789  0.5462840216317  0.3281663696224 1.0
C      1  0.6751409056148  0.6810986348667  0.4234832814003 1.0
C      1  0.5109686581718  0.3995947053832  0.1521385009115 1.0
C      1  0.7286324661242  0.4160736220312  0.2507574382605 1.0
C      1  0.4771445336046  0.4795554735701  0.8323729030681 1.0
C      1  0.2978869756668  0.6471361345279  0.7167158680816 1.0
C      1  0.4274524851246  0.6406184045316  0.8171631754156 1.0
C      1  0.4609686763569  0.3126870973617  0.5969930077600 1.0
C      1  0.7611135289927  0.5070115490038  0.2327683301744 1.0
C      1  0.2464779212128  0.5621401844103  0.5697262194263 1.0
C      1  0.5148600616042  0.8020784339649  0.6220488145690 1.0
C      1  0.2119593071267  0.7180069464911  0.4776358889625 1.0
C      1  0.8306824994740  0.5121305188659  0.6188453376021 1.0
C      1  0.3859481835492  0.4529733354387  0.8515090991637 1.0
C      1  0.4628200780630  0.5536488192654  0.6910156404302 1.0
C      1  0.5223688228565  0.2282535791170  0.5876186972592 1.0
C      1  0.4163991129197  0.6154671327152  0.1812719257345 1.0
C      1  0.2317459464736  0.2651332357297  0.3945191617614 1.0
C      1  0.8011190543409  0.4974507813612  0.5255760759319 1.0
C      1  0.2243477821790  0.4396936306151  0.2583769850863 1.0
C      1  0.8385348832600  0.3495541083871  0.4914121336893 1.0
C      1  0.2387411412452  0.3321148568635  0.6394707789034 1.0
C      1  0.5038313999874  0.1514660845392  0.3662752493252 1.0
C      1  0.7071535154889  0.7915209159661  0.3657871961053 1.0
C      1  0.1702888840013  0.4115973551540  0.6475103034555 1.0
C      1  0.3772333844668  0.5236175748997  0.6541959044785 1.0
C      1  0.4635670786566  0.1509872005282  0.6090877299196 1.0
C      1  0.4086824463210  0.7016611205651  0.2261657689019 1.0
C      1  0.3697059086409  0.2188827938657  0.4828419224346 1.0
C      1  0.8252365879084  0.6328424588219  0.3439651307087 1.0
C      1  0.6760986621619  0.5545906838394  0.2020963924880 1.0
C      1  0.5211718345469  0.6279801567858  0.1839135399907 1.0
C      1  0.6859244503870  0.3467474765828  0.6383504611760 1.0
C      1  0.4843018418996  0.3397812091149  0.7634520464746 1.0
C      1  0.1843714543085  0.4013593997785  0.3218398960844 1.0
C      1  0.8764303441143  0.5998066703882  0.4153979641739 1.0
C      1  0.2482711630760  0.2806821900788  0.7300738271312 1.0
C      1  0.3555170060752  0.8093138142433  0.4541796423148 1.0
C      1  0.4197301334109  0.3434820186720  0.3115015894272 1.0
C      1  0.5394576074591  0.5875938825266  0.2697428658767 1.0
C      1  0.4015832487343  0.2784162392884  0.2443683490385 1.0
C      1  0.7211545086504  0.2558497173885  0.2752613851948 1.0
C      1  0.5691349488349  0.4079199863212  0.5222666022608 1.0
C      1  0.3555359954638  0.4531411096582  0.5138473535073 1.0
C      1  0.4100281053524  0.2234057707016  0.7454974179302 1.0
C      1  0.7706497407084  0.2936112188254  0.6262398966081 1.0
C      1  0.8545047634879  0.4304578067038  0.6542004275723 1.0
C      1  0.8164534608887  0.5435550288783  0.2993121961063 1.0
C      1  0.7135485575039  0.4993070898610  0.5123654344106 1.0
C      1  0.1314203758292  0.4268308749340  0.5598613241064 1.0
C      1  0.5005042469553  0.7231938762849  0.2203689514478 1.0
C      1  0.4517216387828  0.7278758479352  0.7933681211887 1.0
C      1  0.6652759937036  0.6704425759884  0.3199176418944 1.0
C      1  0.2464712449789  0.4555692264608  0.7814547255984 1.0
C      1  0.4312260186734  0.1546607193872  0.6937983773497 1.0
C      1  0.4207462489029  0.1401385194520  0.5222581787514 1.0
C      1  0.5209924309250  0.1842230929790  0.2794907939091 1.0
C      1  0.7672656346093  0.2276797556978  0.5611115574333 1.0
C      1  0.6784243476116  0.4119384111079  0.7078588196552 1.0
C      1  0.5024921464715  0.8265399518248  0.5269718861907 1.0
C      1  0.4849363970510  0.6364649582378  0.6350055730482 1.0
C      1  0.0976911826951  0.5129977926542  0.5479274972670 1.0
C      1  0.5898965618268  0.6244514308989  0.6526679088827 1.0
C      1  0.8180810718744  0.6064386260011  0.6505840172378 1.0
C      1  0.4199513617294  0.3105239305642  0.6881924849329 1.0
C      1  0.3215396498591  0.3431395507931  0.6928914643708 1.0
C      1  0.4062218040031  0.3928118764640  0.4550584268675 1.0
C      1  0.5326909874233  0.4861874275678  0.6519680133786 1.0
C      1  0.4952808740993  0.5691982677876  0.7919369661382 1.0
C      1  0.6873003431454  0.2012584737767  0.5188464666109 1.0
C      1  0.3161983407557  0.7378985060689  0.6922666221535 1.0
C      1  0.8643370243802  0.6484061140452  0.5789263969724 1.0
C      1  0.4077517422779  0.3065656948242  0.5095583005267 1.0
C      1  0.6276015272453  0.7104072798923  0.7989603305106 1.0
C      1  0.5980424380280  0.4688635455120  0.7260155826504 1.0
C      1  0.1406993274472  0.6767881254561  0.5249439301255 1.0
C      1  0.6279637651023  0.3367233251389  0.5609907947567 1.0
C      1  0.4954398071906  0.7986177635661  0.3666666774202 1.0
C      1  0.7493708097442  0.7454884416727  0.6650952684186 1.0
C      1  0.6841606864251  0.2033822703602  0.3455498247901 1.0
C      1  0.7361639885952  0.8553041820781  0.4351614580692 1.0
C      1  0.6477731994554  0.4230065005978  0.3026572201780 1.0
C      1  0.5449975951569  0.7142248444107  0.6635230278444 1.0
C      1  0.6020845402503  0.5732900020258  0.7474633067616 1.0
C      1  0.3771760841664  0.5290971151274  0.1834225304312 1.0
C      1  0.3183322205558  0.5120790166886  0.8158382406535 1.0
C      1  0.7109515095493  0.8169551190725  0.5149628576998 1.0
C      1  0.5754039702161  0.5568065590275  0.5797805746998 1.0
C      1  0.4071299291370  0.5561397972358  0.3787875793756 1.0
C      1  0.4378286842939  0.8316255462440  0.6697920541819 1.0
C      1  0.5441961509289  0.7753672175288  0.2860582332765 1.0
C      1  0.5481484567754  0.8027322032543  0.4486797717410 1.0
C      1  0.1669442788242  0.3605291196633  0.4974304016016 1.0
C      1  0.8870003967027  0.6358745459354  0.4996291655011 1.0
C      1  0.4234054988184  0.2910911832211  0.8200424611086 1.0
C      1  0.2722336898299  0.2441520641190  0.4798303844355 1.0
C      1  0.8625931491500  0.5045096567007  0.3844393997028 1.0
C      1  0.7532998207937  0.3254660967166  0.2415833604505 1.0
C      1  0.2811547094755  0.7733345112241  0.5098841650838 1.0
C      1  0.6362797186790  0.5823664662745  0.2904311284542 1.0
C      1  0.6278964768325  0.4921399488534  0.5299768415519 1.0
C      1  0.6280266782022  0.5018909667336  0.3520101762866 1.0
C      1  0.3596928472316  0.3590146714853  0.8453328299867 1.0
C      1  0.3311577889108  0.4927660179110  0.3496877509309 1.0
C      1  0.2555697070731  0.5213040480031  0.4097520579748 1.0
C      1  0.2083082046820  0.5888292560774  0.3655782175086 1.0
C      1  0.4965431698540  0.6002754950838  0.5385863053657 1.0
C      1  0.6373446105321  0.7604671002882  0.2976608282929 1.0
C      1  0.7348786907241  0.7983230250907  0.6029695271331 1.0
C      1  0.3379947719764  0.6061747226446  0.7964567844371 1.0
C      1  0.3035069033365  0.7892983089783  0.6050849870953 1.0
END
