TITL C-69163-9641-3 -10.883 3375.00 -2737.88963457 0 0 327 (C1) n - 1
REM
REM Run started: at 2020.12.13 09:23:01 in /rds/project/t2_vol4/rds-t2-cs072/BORA/CARBON/AIRSS/Generating-Clusters/Str-Search/Higher-Symm/C200-350
REM VASP from code version vasp.5.4.4.18Apr17-6-g9f103f2a35 (build Oct 11 2019 16:45:47) gamma-only
REM
REM
REM
REM
REM ./C.cell (8a36a0f86d45ee02852e7beefdfb7796)
REM AIRSS Version 0.9.1 bugfix July 2018 build 013d7b7c2542+ Fri, 06 Jul 2018 19:26:36 +0100
REM compiler GCC version 4.8.5 20150623 (Red Hat 4.8.5-39)
REM options -cpp -mtune=generic -march=x86-64 -g -O0
REM seed -122508913 1145449383 -1290039952 1225092018 1284745883 709176293 1226198232 1624514135 -1678543250 -570328476 1265510758 1496790663
REM
REM C.POTCAR (d86ddea03c3ceb6dc662c8ad6801f873)
REM 
CELL 1.54180   15.00000   15.00000   15.00000   90.00000   90.00000   90.00000
LATT -1
SFAC C  
C      1  0.5161591725022  0.8841942725980  0.8413594913621 1.0
C      1  0.4860425815185  0.1066958471883  0.8359714522034 1.0
C      1  0.4812224317639  0.8958583489891  0.1635557015804 1.0
C      1  0.5115072413608  0.1170018903596  0.1632553354127 1.0
C      1  0.8883119518046  0.5143123782285  0.8383186911308 1.0
C      1  0.1111514782381  0.4764796870752  0.8384785223670 1.0
C      1  0.8873996971485  0.4861591531308  0.1635513299012 1.0
C      1  0.1100887191659  0.5216897468225  0.1640278375159 1.0
C      1  0.5888173679975  0.7235946005494  0.6654851499106 1.0
C      1  0.4134452215672  0.2719031187619  0.6594848787157 1.0
C      1  0.4119986053935  0.7287777040363  0.3416031046378 1.0
C      1  0.5899867371662  0.2792459786316  0.3368090408201 1.0
C      1  0.7278597933992  0.5911025537984  0.6624902600606 1.0
C      1  0.2769829373435  0.4080072767485  0.6618479999643 1.0
C      1  0.7280179779274  0.4111490946652  0.3390708916678 1.0
C      1  0.2765210348278  0.5918358742579  0.3395068808089 1.0
C      1  0.1872030638830  0.2434617145476  0.7975515649091 1.0
C      1  0.8144852735583  0.7500166064346  0.8045842893361 1.0
C      1  0.8134751133417  0.2499430201089  0.1982002009388 1.0
C      1  0.1852022633942  0.7548652072395  0.2037314312290 1.0
C      1  0.2525875476401  0.1789037312060  0.7969999146088 1.0
C      1  0.7480021733133  0.8135938248578  0.8052818304484 1.0
C      1  0.2500333376620  0.8197993766678  0.2037798411942 1.0
C      1  0.7468645551136  0.1860797163441  0.1988021849750 1.0
C      1  0.4427651946300  0.9545506739993  0.5064104002374 1.0
C      1  0.5565907017837  0.0463381269888  0.5039598552683 1.0
C      1  0.5549522982192  0.9551444602659  0.4964355544297 1.0
C      1  0.4405040260204  0.0457189282777  0.4990420813268 1.0
C      1  0.9554770902693  0.4414306076802  0.5048481342031 1.0
C      1  0.0460878182053  0.5560577936911  0.5062425456415 1.0
C      1  0.9554094304404  0.5605730079172  0.4963098159785 1.0
C      1  0.0462866581302  0.4457116012687  0.4953048940719 1.0
C      1  0.2076770038737  0.5344692988805  0.4675959425340 1.0
C      1  0.7975210514506  0.4663259843852  0.4678513551078 1.0
C      1  0.7974648071188  0.5365479570468  0.5337403442088 1.0
C      1  0.2078484083502  0.4649563082035  0.5336030156387 1.0
C      1  0.5359107801435  0.2084095237679  0.4644993405154 1.0
C      1  0.4662918542549  0.7945259213350  0.4709342463930 1.0
C      1  0.5344132601786  0.7935656098174  0.5377395259092 1.0
C      1  0.4671827988341  0.2059337116738  0.5300464219875 1.0
C      1  0.7639507945155  0.6875125067984  0.6601514374793 1.0
C      1  0.2392621322623  0.3121366209999  0.6569778632819 1.0
C      1  0.2384367288924  0.6877437485072  0.3450274721400 1.0
C      1  0.7643489219172  0.3150071095291  0.3415962555119 1.0
C      1  0.6844200183720  0.7649897074417  0.6608809980987 1.0
C      1  0.3178404086736  0.2333375831313  0.6557285908898 1.0
C      1  0.6852043217282  0.2389198219916  0.3414600219732 1.0
C      1  0.3159800323264  0.7668444331500  0.3458762067151 1.0
C      1  0.8412710986008  0.5818898308883  0.8793696172903 1.0
C      1  0.1601222413035  0.4086198349042  0.8772211342723 1.0
C      1  0.1586991849256  0.5895882988638  0.1249612979873 1.0
C      1  0.8405528490463  0.4185167419782  0.1222618105715 1.0
C      1  0.5804698145853  0.8317914810175  0.8814780872342 1.0
C      1  0.4200804139386  0.1580080555029  0.8756994996164 1.0
C      1  0.5790296278311  0.1651114201829  0.1234043201384 1.0
C      1  0.4167377660086  0.8418290292164  0.1248448452408 1.0
C      1  0.0881988536117  0.2325223699599  0.3706904612546 1.0
C      1  0.9109968162126  0.7719656358746  0.3708784301584 1.0
C      1  0.9127927297602  0.2290241510953  0.6283108748229 1.0
C      1  0.0887666608373  0.7673565066054  0.6331964677150 1.0
C      1  0.2290129330396  0.0912398127304  0.3719571128506 1.0
C      1  0.7683706477964  0.9110843521814  0.3700090685942 1.0
C      1  0.2307545046002  0.9065531615279  0.6350003713426 1.0
C      1  0.7706095617125  0.0896237876565  0.6280924895840 1.0
C      1  0.8400776245511  0.6858888802923  0.7321897628555 1.0
C      1  0.1622290153847  0.3104724511306  0.7274084500530 1.0
C      1  0.1613958766226  0.6888202183210  0.2746631080546 1.0
C      1  0.8397980581157  0.3151942683413  0.2693847832775 1.0
C      1  0.6821937297943  0.8408403906686  0.7346111392495 1.0
C      1  0.3196752918880  0.1545904615809  0.7264442714434 1.0
C      1  0.6806829140065  0.1615332563937  0.2707955684610 1.0
C      1  0.3163971106508  0.8449726637511  0.2743305664218 1.0
C      1  0.3977298706703  0.6734964633070  0.5756882171428 1.0
C      1  0.6046673734938  0.3265742983254  0.5706914097851 1.0
C      1  0.6038670584025  0.6756414156611  0.4312230867084 1.0
C      1  0.3985337674924  0.3255700421699  0.4249978373442 1.0
C      1  0.6807673096000  0.4032119780381  0.5697831151810 1.0
C      1  0.3236983870082  0.5962021231539  0.5741626945700 1.0
C      1  0.6801381178129  0.5993074475893  0.4319432646930 1.0
C      1  0.3234705519558  0.4015581403571  0.4261619610605 1.0
C      1  0.5902620130587  0.3464301276264  0.0957000191071 1.0
C      1  0.4059486625179  0.6691503211488  0.1014969164582 1.0
C      1  0.4076084710695  0.3304281753431  0.8995535870128 1.0
C      1  0.5904405671316  0.6532242490552  0.9053589571300 1.0
C      1  0.3406969427434  0.5966264109593  0.1018346173066 1.0
C      1  0.6628442176855  0.4112609384199  0.0955206210959 1.0
C      1  0.3420233953882  0.4026141561026  0.8992054515201 1.0
C      1  0.6633805842147  0.5888025129294  0.9059224536898 1.0
C      1  0.5139465580842  0.1831943313680  0.8816316308597 1.0
C      1  0.4872977487009  0.8040187632956  0.8816183864027 1.0
C      1  0.4860841785207  0.1951850955308  0.1180001974028 1.0
C      1  0.5107094393075  0.8183476308154  0.1194120763181 1.0
C      1  0.1870162429706  0.5032095828986  0.8846903092993 1.0
C      1  0.8135232490526  0.4879247762256  0.8868648505894 1.0
C      1  0.1861233692569  0.4951904539240  0.1177614605442 1.0
C      1  0.8125650207896  0.5126817189621  0.1152457275200 1.0
C      1  0.3512512224481  0.7025579365883  0.6619464257901 1.0
C      1  0.6500695619268  0.2955898797660  0.6571533960628 1.0
C      1  0.6491074971134  0.7069951819966  0.3447112255506 1.0
C      1  0.3537948532708  0.2937703785085  0.3382949766716 1.0
C      1  0.7193931936840  0.3648989341507  0.6564998049811 1.0
C      1  0.2821502932731  0.6331418703069  0.6597570557485 1.0
C      1  0.7185967554645  0.6374030766626  0.3450615820535 1.0
C      1  0.2822447647450  0.3632454808080  0.3411632912905 1.0
C      1  0.7888006184380  0.8583384698877  0.4488599797585 1.0
C      1  0.2070485231616  0.1437219814423  0.4505620457491 1.0
C      1  0.2094648095617  0.8551466741169  0.5556747856615 1.0
C      1  0.7907173932250  0.1430901876934  0.5497154825784 1.0
C      1  0.8572036027837  0.7923674430788  0.4494648899828 1.0
C      1  0.1412611985829  0.2122239697317  0.4495029015237 1.0
C      1  0.8590983449282  0.2091589004347  0.5496708519078 1.0
C      1  0.1430006301794  0.7876266132825  0.5552085841103 1.0
C      1  0.2728050930704  0.3506957068423  0.1472026406874 1.0
C      1  0.7239569631628  0.6558844930692  0.1468293382237 1.0
C      1  0.7264758827769  0.3447963741835  0.8545655435956 1.0
C      1  0.2736852807100  0.6476426835431  0.8535056834930 1.0
C      1  0.3423426825954  0.2830146386137  0.1441634891158 1.0
C      1  0.6558086515593  0.7248954484739  0.1469047095447 1.0
C      1  0.3429779434796  0.7152981701383  0.8554228925638 1.0
C      1  0.6583750647330  0.2760453266506  0.8543359884868 1.0
C      1  0.1670061645835  0.7537242971562  0.7864567064145 1.0
C      1  0.8330531926751  0.2419840133489  0.7818575756234 1.0
C      1  0.8315168907501  0.7589629030073  0.2173924754871 1.0
C      1  0.1685446255349  0.2441336052358  0.2175176816703 1.0
C      1  0.7629111411813  0.1707479096008  0.7825108960303 1.0
C      1  0.2377051957748  0.8243330257219  0.7888748920152 1.0
C      1  0.7612282024879  0.8301996930776  0.2166161369808 1.0
C      1  0.2397654977651  0.1743658964353  0.2164089988024 1.0
C      1  0.5568048878257  0.1641039643640  0.6670348056765 1.0
C      1  0.4455593884747  0.8322536934405  0.6752379699061 1.0
C      1  0.4560314177485  0.1665197169539  0.3199742006633 1.0
C      1  0.5548275611603  0.8387362466268  0.3329747609916 1.0
C      1  0.1503362757840  0.5291394073463  0.6792409643779 1.0
C      1  0.8520321633617  0.4671860253908  0.6780033086203 1.0
C      1  0.1508317551386  0.4696674149936  0.3224966113865 1.0
C      1  0.8516414489446  0.5346186134029  0.3232718751196 1.0
C      1  0.5893602164653  0.3413346086471  0.4180589514290 1.0
C      1  0.4125079860605  0.6644470221348  0.4204787745653 1.0
C      1  0.4131693583447  0.3358150888517  0.5805106647280 1.0
C      1  0.5889441098412  0.6612703249287  0.5842029484754 1.0
C      1  0.3399849568547  0.5901809726982  0.4177269672317 1.0
C      1  0.6652260908014  0.4132181410084  0.4185866390707 1.0
C      1  0.3403260747356  0.4093885598281  0.5833117618546 1.0
C      1  0.6648711421293  0.5892186238890  0.5832114495283 1.0
C      1  0.5062298369704  0.6321549360489  0.4276472756759 1.0
C      1  0.4930362806455  0.3725704817611  0.4225851405501 1.0
C      1  0.4931268472301  0.6289052507530  0.5785030056821 1.0
C      1  0.5068570024298  0.3683079101531  0.5749391027314 1.0
C      1  0.6309528048426  0.5053639822182  0.4397742228454 1.0
C      1  0.3771252622740  0.4960507668411  0.4228543463719 1.0
C      1  0.6310687196265  0.4968223251926  0.5617368417483 1.0
C      1  0.3778840601877  0.5029607308757  0.5774307334271 1.0
C      1  0.4377727641167  0.2739191072867  0.1139908442276 1.0
C      1  0.5616681279022  0.7398804717901  0.1136582060894 1.0
C      1  0.5642183544230  0.2617106973238  0.8874987432821 1.0
C      1  0.4380656262172  0.7255943614272  0.8855392234997 1.0
C      1  0.2634026816750  0.4455927645662  0.1184210961025 1.0
C      1  0.7347928611311  0.5633341060309  0.1099772107409 1.0
C      1  0.2641232302206  0.5531288366810  0.8830201468077 1.0
C      1  0.7359817925355  0.4371302046747  0.8918533038197 1.0
C      1  0.7023671996612  0.3763403019415  0.1783375576449 1.0
C      1  0.2983891260217  0.6318814281923  0.1826002470376 1.0
C      1  0.2996869870894  0.3673042194398  0.8184870477556 1.0
C      1  0.7028918063361  0.6238078467247  0.8232191354299 1.0
C      1  0.3722456164234  0.7062182314240  0.1848420340930 1.0
C      1  0.6263847124363  0.3031614600858  0.1770013408446 1.0
C      1  0.3740400406275  0.2933396503531  0.8162084987122 1.0
C      1  0.6269656066072  0.6965739535937  0.8243137431232 1.0
C      1  0.1454649213308  0.2902601237695  0.5019895564190 1.0
C      1  0.8569890138960  0.7156861188450  0.5044299389177 1.0
C      1  0.8578770212408  0.2866136826063  0.4961898843633 1.0
C      1  0.1459568097220  0.7101399673995  0.5012307720853 1.0
C      1  0.2838738179333  0.1444974896506  0.5052481483349 1.0
C      1  0.7116391093317  0.8570841921312  0.5040874468430 1.0
C      1  0.2860266212919  0.8551961295330  0.4999192499664 1.0
C      1  0.7132906800636  0.1452377707443  0.4951613085269 1.0
C      1  0.5746383981445  0.5058886473516  0.3563689886183 1.0
C      1  0.4297769347941  0.5000526255324  0.3422826226055 1.0
C      1  0.4300884071688  0.5002787633106  0.6584594936858 1.0
C      1  0.5747755532622  0.4955383285372  0.6449364458575 1.0
C      1  0.5055256839305  0.5743880302966  0.3514258770425 1.0
C      1  0.4993135313104  0.4321361123879  0.3464568476047 1.0
C      1  0.5059096482294  0.4267223619061  0.6501748324152 1.0
C      1  0.4992329656258  0.5687378158417  0.6542477831703 1.0
C      1  0.6267302816698  0.2181198390958  0.7038156931788 1.0
C      1  0.3743341703102  0.7788060529994  0.7097977942056 1.0
C      1  0.3803963340158  0.2210371778549  0.2873095285220 1.0
C      1  0.6256753657031  0.7843792855309  0.2978573032868 1.0
C      1  0.2043839169754  0.6101463108155  0.7082862765417 1.0
C      1  0.7966908241304  0.3862158022002  0.7064185044831 1.0
C      1  0.2045519670737  0.3876534319346  0.2934774495528 1.0
C      1  0.7957092696592  0.6156488328162  0.2948461506234 1.0
C      1  0.9994963262997  0.3719537018633  0.6773724690902 1.0
C      1  0.0023623567183  0.6237438809686  0.6804822254732 1.0
C      1  0.0018623212570  0.3767766949097  0.3221825391085 1.0
C      1  0.9991143683145  0.6285346722892  0.3238391515293 1.0
C      1  0.3781787846596  0.9851340213697  0.6814795422254 1.0
C      1  0.6242596401484  0.0097062961908  0.6769943512189 1.0
C      1  0.3751397415799  0.0111644938809  0.3283702985894 1.0
C      1  0.6212021571437  0.9928535427657  0.3204687233972 1.0
C      1  0.6987460334094  0.2295629886081  0.4461601814201 1.0
C      1  0.3023497513245  0.7722078720838  0.4509125637435 1.0
C      1  0.3027650726042  0.2281439541919  0.5512744696491 1.0
C      1  0.6978071658999  0.7736810635528  0.5553788443322 1.0
C      1  0.2295773494858  0.6971219292771  0.4505501824930 1.0
C      1  0.7743919604684  0.3023949290344  0.4464310868505 1.0
C      1  0.2298681078010  0.3028535720596  0.5517452365052 1.0
C      1  0.7736111507376  0.7005550563253  0.5551548480337 1.0
C      1  0.4708836743354  0.9251162353491  0.2503760115923 1.0
C      1  0.5183857259098  0.0930661757906  0.2549172471603 1.0
C      1  0.5274673174161  0.9212712959610  0.7574247690823 1.0
C      1  0.4768195856817  0.0773065535521  0.7491340405420 1.0
C      1  0.9067417822179  0.4797110904564  0.2557197160358 1.0
C      1  0.0938627664772  0.5252176013712  0.2576364756487 1.0
C      1  0.9072121327787  0.5210085237047  0.7460366518745 1.0
C      1  0.0940090273660  0.4736612587007  0.7451291373313 1.0
C      1  0.0863482091212  0.6435864709337  0.5366185527019 1.0
C      1  0.9181894528844  0.3527908412547  0.5323478317448 1.0
C      1  0.9176254173861  0.6494541168186  0.4687020139717 1.0
C      1  0.0864499106294  0.3575808142917  0.4656192514398 1.0
C      1  0.6463495846905  0.0850703530915  0.5301792745324 1.0
C      1  0.3536975416251  0.9140502430906  0.5348421884406 1.0
C      1  0.6443766369750  0.9159021604457  0.4679069383344 1.0
C      1  0.3502739131725  0.0826941919925  0.4727978980145 1.0
C      1  0.5066963303514  0.3788753998793  0.7377279485410 1.0
C      1  0.5050585339466  0.6079042052733  0.7453263046789 1.0
C      1  0.5052482472606  0.3930426090895  0.2555300544347 1.0
C      1  0.5057341549152  0.6219600664051  0.2637557492998 1.0
C      1  0.3899377038924  0.4936543255182  0.7465664463155 1.0
C      1  0.6220788527163  0.4957067151399  0.7342825849078 1.0
C      1  0.3896029888126  0.5065869268523  0.2543316450671 1.0
C      1  0.6217558326813  0.5054931870325  0.2669334450861 1.0
C      1  0.6751974662750  0.7979560235582  0.2117390907383 1.0
C      1  0.3254165632242  0.2068830409653  0.2053592636127 1.0
C      1  0.3234505695133  0.7915755018177  0.7948117488528 1.0
C      1  0.6769755679222  0.2031376934707  0.7891237177509 1.0
C      1  0.8000815916378  0.6722625005998  0.2106145285655 1.0
C      1  0.1978166925467  0.3314868255511  0.2093595134281 1.0
C      1  0.8021758073153  0.3288704021639  0.7901987277375 1.0
C      1  0.1976183118405  0.6666796315481  0.7920477345297 1.0
C      1  0.3156148286156  0.9457185390118  0.6185898945638 1.0
C      1  0.6860891505061  0.0493599226062  0.6125169017610 1.0
C      1  0.6834849824541  0.9506511807971  0.3842725165791 1.0
C      1  0.3124133979159  0.0494230789433  0.3909397684755 1.0
C      1  0.9522403948210  0.3139946621129  0.6151888798226 1.0
C      1  0.0506501472981  0.6819440649069  0.6194214668011 1.0
C      1  0.9510683485995  0.6874072075653  0.3848915149676 1.0
C      1  0.0509106986330  0.3189394174220  0.3832234397780 1.0
C      1  0.3991422635033  0.4678856541216  0.0360192974144 1.0
C      1  0.5817225172340  0.5219961988635  0.0457404666945 1.0
C      1  0.5819894317208  0.4789028319895  0.9554963919953 1.0
C      1  0.3994146705260  0.5319809203586  0.9654694419391 1.0
C      1  0.4618900288847  0.4080769478414  0.0254425847350 1.0
C      1  0.5145341545137  0.5878248427433  0.0566858297529 1.0
C      1  0.4617728656526  0.5921725223837  0.9756332746940 1.0
C      1  0.5149243975359  0.4131158483240  0.9445570360015 1.0
C      1  0.3807716476099  0.9258370203833  0.2867925802037 1.0
C      1  0.6144554387067  0.0813873929350  0.2861229511961 1.0
C      1  0.6182675629426  0.9247303480574  0.7216271609122 1.0
C      1  0.3850230324671  0.0734207766327  0.7147486307678 1.0
C      1  0.9189913186907  0.3790932985944  0.2834481289894 1.0
C      1  0.0826526951927  0.6251888076888  0.2873402246627 1.0
C      1  0.9190769398531  0.6215611444814  0.7181964634601 1.0
C      1  0.0828180433386  0.3741691947884  0.7147024866740 1.0
C      1  0.8012727438000  0.5300617244627  0.6237960187915 1.0
C      1  0.2034945764079  0.4695132818727  0.6237724466643 1.0
C      1  0.2036738073477  0.5297126847515  0.3775089368066 1.0
C      1  0.8009712298273  0.4723815637559  0.3777758939737 1.0
C      1  0.5221886705252  0.7935236867145  0.6286011553109 1.0
C      1  0.4798300918455  0.2030093211491  0.6206801861776 1.0
C      1  0.5256897675553  0.2084575312485  0.3739175356586 1.0
C      1  0.4780582095993  0.7985029987973  0.3799705616956 1.0
C      1  0.1243670552456  0.8027775372394  0.7125327419680 1.0
C      1  0.8763441913842  0.1937596444679  0.7072394010804 1.0
C      1  0.8751746024785  0.8074996432437  0.2915972321196 1.0
C      1  0.1263376362642  0.1972644142290  0.2927971597378 1.0
C      1  0.8079286338340  0.1259537978382  0.7074656972971 1.0
C      1  0.1932008994126  0.8703611597682  0.7140387051907 1.0
C      1  0.8067384299848  0.8751865143990  0.2909712916927 1.0
C      1  0.1955005460621  0.1293545697080  0.2926354404895 1.0
C      1  0.6684770886073  0.5029566379969  0.0786742731259 1.0
C      1  0.3342241706675  0.5034666319492  0.0906607153236 1.0
C      1  0.3353408517303  0.4955662109189  0.9103782722060 1.0
C      1  0.6692001174299  0.4972216466645  0.9230590524973 1.0
C      1  0.4987029391823  0.6748288571924  0.0877481803349 1.0
C      1  0.4981767923022  0.3417154703927  0.0803555812983 1.0
C      1  0.5003677982985  0.3260651922753  0.9131542841916 1.0
C      1  0.4982939616271  0.6579558331345  0.9201398565999 1.0
C      1  0.6113177031797  0.2712180022824  0.4856141654221 1.0
C      1  0.3902744836436  0.7314966220410  0.4906753037075 1.0
C      1  0.3908668718868  0.2682697820895  0.5103845702175 1.0
C      1  0.6104003010679  0.7313860521722  0.5165427918171 1.0
C      1  0.2723241655358  0.6075362982542  0.4881034468375 1.0
C      1  0.7345024265856  0.3905682289704  0.4860882571295 1.0
C      1  0.2725205398260  0.3917495408378  0.5130695909352 1.0
C      1  0.7339570635316  0.6121010572183  0.5156200728824 1.0
C      1  0.6544365126857  0.2065620943817  0.1726288729933 1.0
C      1  0.3430408475466  0.8010835154651  0.1782135984952 1.0
C      1  0.3456903540920  0.1980867438986  0.8223586505333 1.0
C      1  0.6556909050772  0.7926632148645  0.8307920117593 1.0
C      1  0.2031101046871  0.6620851909051  0.1764368429828 1.0
C      1  0.7970268405748  0.3438209053347  0.1725253703102 1.0
C      1  0.2045164942084  0.3364190624397  0.8250254659538 1.0
C      1  0.7975639388861  0.6562859140708  0.8293070721366 1.0
C      1  0.3197788497212  0.5664422905357  0.2539516442592 1.0
C      1  0.6853395308333  0.4403444880377  0.2547161987339 1.0
C      1  0.6855907019169  0.5607554417290  0.7465835530379 1.0
C      1  0.3204365306776  0.4332993671667  0.7472251352013 1.0
C      1  0.5643956460927  0.3237881606205  0.2516667820448 1.0
C      1  0.4389434678411  0.6854832259685  0.2573049536844 1.0
C      1  0.5642942917844  0.6773246566174  0.7497796459359 1.0
C      1  0.4403185733350  0.3149742336144  0.7437998022143 1.0
C      1  0.9591771605864  0.4642384230327  0.6785718810445 1.0
C      1  0.0416266282823  0.5311169693927  0.6797418838308 1.0
C      1  0.0410021500046  0.4692001818799  0.3231552192875 1.0
C      1  0.9584763581330  0.5366092032226  0.3232235399345 1.0
C      1  0.4484356395056  0.9247868173255  0.6987703564117 1.0
C      1  0.5542392867165  0.0709857659849  0.6906295765817 1.0
C      1  0.4449770635629  0.0709872542236  0.3144665124961 1.0
C      1  0.5496819827276  0.9313409448085  0.3078918574449 1.0
C      1  0.5540324288142  0.5522216888624  0.2112027445750 1.0
C      1  0.4666999844910  0.5320704750983  0.8014870281141 1.0
C      1  0.5549607549775  0.4485389581350  0.7901683277460 1.0
C      1  0.4666118076384  0.4686980098587  0.1994406907456 1.0
C      1  0.5170802909389  0.4837829303715  0.8743128973280 1.0
C      1  0.5166706621252  0.5170428691554  0.1267301333883 1.0
C      1  0.4374994031588  0.4984076999727  0.4997148237742 1.0
END
