TITL C-6964-7684-51 -7.987 3375.00 -1328.11017052 0 0 164 (C1) n - 1
REM
REM Run started: at 2020.12.22 03:45:46 in /gpfs/home/chem/mssmkc/CARBON/AIRSS/Generating-Clusters/Str-Search/Higher-Symm/C100-200
REM VASP from code version vasp.5.4.4.18Apr17-6-g9f103f2a35 (build Oct 11 2019 16:45:47) gamma-only
REM
REM
REM
REM
REM ./C.cell (533062f00bc710175b3da973d35f2034)
REM AIRSS Version 0.9.1 bugfix July 2018 build 013d7b7c2542+ Fri, 06 Jul 2018 19:26:36 +0100
REM compiler GCC version 6.3.0
REM options -cpp -iprefix /gpfs/warwick/csc/orac/software/Core/GCCcore/6.3.0/bin/../lib/gcc/x86_64-pc-linux-gnu/6.3.0/ -mtune=generic -march=x86-64 -g -O0
REM seed -1869306109 -1213396001 -85538960 -970526259 -1114355898 -697718978 774353135 -1865588221 1956328208 1633056857 1873613193 1081745099
REM
REM C.POTCAR (d86ddea03c3ceb6dc662c8ad6801f873)
REM 
CELL 1.54180   15.00000   15.00000   15.00000   90.00000   90.00000   90.00000
LATT -1
SFAC C  
C      1  0.3503259293457  0.1221503996196  0.5606515916339 1.0
C      1  0.8075474804125  0.2570123220988  0.5332255125109 1.0
C      1  0.8363698820400  0.7316066899598  0.5475015192659 1.0
C      1  0.4613527449315  0.8610774445328  0.5456349856814 1.0
C      1  0.0766958757260  0.5772473994288  0.5492900009582 1.0
C      1  0.4248629330798  0.0882205078546  0.5464236811788 1.0
C      1  0.8635170829716  0.3137059954971  0.5567579455733 1.0
C      1  0.7885841592077  0.7981249313758  0.5506813813086 1.0
C      1  0.3781552417562  0.8863574442058  0.5255439869864 1.0
C      1  0.0789393232820  0.4962817326946  0.5295666217334 1.0
C      1  0.2793871773604  0.5290537170810  0.5983096851111 1.0
C      1  0.4097907404895  0.3132563520659  0.6145147548652 1.0
C      1  0.6335661108693  0.3128151357018  0.6179123094451 1.0
C      1  0.7255292219870  0.5788923169076  0.6174453911029 1.0
C      1  0.4897545081681  0.6854036496512  0.5815612630629 1.0
C      1  0.8265977867076  0.5689074055469  0.6052925865905 1.0
C      1  0.6251643941672  0.8538098783207  0.5677040035459 1.0
C      1  0.1735695332865  0.6977347157482  0.6056306882700 1.0
C      1  0.2533066407738  0.2340478784124  0.6312481484878 1.0
C      1  0.5637114005610  0.1504237235169  0.6928014188852 1.0
C      1  0.5778564055669  0.6867954455110  0.6126098310248 1.0
C      1  0.3138601836463  0.6231039853462  0.5841804411187 1.0
C      1  0.3321640070604  0.3681442797018  0.6429994935449 1.0
C      1  0.5618713266252  0.2443262533728  0.6484600303412 1.0
C      1  0.7197738975943  0.4678382209630  0.5952827780036 1.0
C      1  0.3273744819562  0.3594702371245  0.3811878021632 1.0
C      1  0.5706376851652  0.2811310440801  0.3713409477270 1.0
C      1  0.7001665897256  0.4905681265210  0.4103111538337 1.0
C      1  0.5509196240732  0.7106371724881  0.3783266646968 1.0
C      1  0.3107558980473  0.6212644914338  0.3737343394059 1.0
C      1  0.4144931018227  0.3795180223464  0.3361627371065 1.0
C      1  0.5780445511905  0.3796577769695  0.3432384854074 1.0
C      1  0.6393887334933  0.5445165235803  0.3524576118037 1.0
C      1  0.4951275390488  0.6365112670027  0.3374848550539 1.0
C      1  0.3611651227891  0.5402125724859  0.3386896262803 1.0
C      1  0.3654170997046  0.1765630574700  0.3397869157508 1.0
C      1  0.7824426517295  0.2592791018377  0.3159383578038 1.0
C      1  0.8100712361691  0.7032194630716  0.3251818694322 1.0
C      1  0.4417710272128  0.8281205925070  0.3623361310587 1.0
C      1  0.1677929054960  0.5498733710413  0.3548724387377 1.0
C      1  0.6777330833051  0.4055405916588  0.7551922774937 1.0
C      1  0.6576113335371  0.6147395192390  0.7615997093870 1.0
C      1  0.4019968247663  0.6883433007002  0.8370673262048 1.0
C      1  0.3082905937226  0.4852212150163  0.7600818633223 1.0
C      1  0.4686514411704  0.2958025722770  0.7734521644713 1.0
C      1  0.4959393688070  0.2450317586878  0.2376105160028 1.0
C      1  0.7417638225316  0.4205535458089  0.2435818885093 1.0
C      1  0.6510407845713  0.7010428200620  0.2477673281298 1.0
C      1  0.3587062146741  0.7057074554896  0.2457663788598 1.0
C      1  0.2573905700894  0.4264805397933  0.2499639222095 1.0
C      1  0.5159945466893  0.1449931121797  0.7726464256488 1.0
C      1  0.8300400652300  0.4319351355821  0.7041238129411 1.0
C      1  0.6563818014712  0.7363261685545  0.7036399145856 1.0
C      1  0.3037959569502  0.7338294613249  0.7053894596668 1.0
C      1  0.2338027385274  0.3322800366728  0.7696324598793 1.0
C      1  0.8268557389212  0.4655992659267  0.6126279239504 1.0
C      1  0.6188313421518  0.7766378566713  0.6267274413248 1.0
C      1  0.2595840155132  0.6964565947410  0.6306389175889 1.0
C      1  0.2614863301357  0.3106335296239  0.6817309032304 1.0
C      1  0.5593298740295  0.1494927806333  0.6043825863036 1.0
C      1  0.9084176878905  0.4401606465664  0.4676415823797 1.0
C      1  0.7173447390505  0.8831875052158  0.4368852091071 1.0
C      1  0.2434309102800  0.8236799858671  0.4422208418205 1.0
C      1  0.1301932325639  0.3460560566407  0.4660472682668 1.0
C      1  0.5666837820722  0.0548871584454  0.4594666086876 1.0
C      1  0.8641550200969  0.6342987837333  0.3553967393348 1.0
C      1  0.5119269157739  0.8949003544024  0.3631037341025 1.0
C      1  0.1350948142970  0.6393983109468  0.3559660618533 1.0
C      1  0.2813842021431  0.1937211776954  0.3734290425434 1.0
C      1  0.7416285093661  0.1844884239586  0.3440934272846 1.0
C      1  0.6648017214385  0.3942680719270  0.6505443239998 1.0
C      1  0.6575016609148  0.6354191893658  0.6658951406373 1.0
C      1  0.4183028155792  0.6094588692473  0.5762446070029 1.0
C      1  0.3329548786947  0.4712695865092  0.6576065629237 1.0
C      1  0.4764468355415  0.2900386986208  0.6727304074932 1.0
C      1  0.3414544176722  0.4488252263101  0.2122256169035 1.0
C      1  0.4988034294698  0.3352478771844  0.2091256734210 1.0
C      1  0.6551777571574  0.4499569119423  0.2195001395988 1.0
C      1  0.5976998081642  0.6292619504094  0.2170819283026 1.0
C      1  0.4056449018673  0.6315655560480  0.2103293255659 1.0
C      1  0.5886224582991  0.3755410672382  0.2379347745614 1.0
C      1  0.6483886562944  0.5460845816266  0.2428881176341 1.0
C      1  0.5015695529059  0.6502993414217  0.2343285051350 1.0
C      1  0.3544589710958  0.5470779181072  0.2324023682729 1.0
C      1  0.4067465161640  0.3747872989054  0.2318785614052 1.0
C      1  0.0957893173088  0.4130059549674  0.5017217981309 1.0
C      1  0.5188348358878  0.0935582316352  0.5328056486540 1.0
C      1  0.8775249388269  0.4060285266386  0.5451074859246 1.0
C      1  0.7174166671936  0.8549685016354  0.5234370509219 1.0
C      1  0.3026337141398  0.8633782438262  0.4880643473959 1.0
C      1  0.4085689888400  0.3002877917725  0.5166206817967 1.0
C      1  0.6491292889715  0.2763038387439  0.5272132941859 1.0
C      1  0.7605271431377  0.5892434276359  0.5258528745344 1.0
C      1  0.4715017455769  0.7628640894362  0.5207686336932 1.0
C      1  0.2641901869599  0.5645931959197  0.5191684038871 1.0
C      1  0.5766308555836  0.6139468962376  0.3929780601572 1.0
C      1  0.4109743333308  0.6109262485844  0.3884494042534 1.0
C      1  0.3694314549165  0.4533959048318  0.3885200857149 1.0
C      1  0.4921824120682  0.3433056129633  0.3760772032658 1.0
C      1  0.6130922049542  0.4529362404318  0.3970916282018 1.0
C      1  0.4413220418109  0.3807679037750  0.8235443694916 1.0
C      1  0.6114653025189  0.3819382151054  0.8262264885164 1.0
C      1  0.6241826823408  0.5600602106904  0.8305603756601 1.0
C      1  0.4866665302003  0.6535860233911  0.8697143703944 1.0
C      1  0.3782960578450  0.5151209318815  0.8274268292826 1.0
C      1  0.8969882796486  0.6078049792964  0.4433952714609 1.0
C      1  0.5624143843582  0.9530047038474  0.4398299173098 1.0
C      1  0.1561584719896  0.6771680922185  0.4475114672033 1.0
C      1  0.2584696082709  0.2288156601886  0.4695324965932 1.0
C      1  0.7158259765583  0.1568455888769  0.4351504215298 1.0
C      1  0.4927707468356  0.3352890101738  0.4768990386358 1.0
C      1  0.5607032287614  0.4827690689972  0.4751700556566 1.0
C      1  0.5404091348660  0.5716775321644  0.4729547618516 1.0
C      1  0.4399329291708  0.5738604889741  0.4798045555903 1.0
C      1  0.4177985327207  0.4762838807769  0.4712454600245 1.0
C      1  0.2781158641205  0.1840569787200  0.5611722565963 1.0
C      1  0.7265490217275  0.2217010477321  0.5066393167347 1.0
C      1  0.8487120324533  0.6369669457903  0.5281945400169 1.0
C      1  0.5528120509645  0.8990537057368  0.5305250616650 1.0
C      1  0.1237101133781  0.6590760766552  0.5408014704008 1.0
C      1  0.2723243853832  0.6709348503820  0.2847243068090 1.0
C      1  0.2679120577624  0.3336361565452  0.2947260840747 1.0
C      1  0.5899878249377  0.2246762924300  0.2860063205797 1.0
C      1  0.7981427895903  0.5034199862427  0.2690818355531 1.0
C      1  0.5894199105691  0.7684849994338  0.2930703564540 1.0
C      1  0.3480989075777  0.2950757253608  0.2430365762875 1.0
C      1  0.6487120385393  0.2961642279602  0.2424862809014 1.0
C      1  0.7409886182059  0.5769053620404  0.2486880335382 1.0
C      1  0.5026381968745  0.7506258096383  0.2462042233875 1.0
C      1  0.2602067464184  0.5800720783832  0.2425045399573 1.0
C      1  0.5785748186176  0.2810046163233  0.4694922849838 1.0
C      1  0.7276119045238  0.5055106825569  0.4949517320921 1.0
C      1  0.4834762983668  0.7623008354873  0.4297180531012 1.0
C      1  0.2329685893451  0.5917037669626  0.4311394298353 1.0
C      1  0.3325359318554  0.3008230214008  0.4613515373695 1.0
C      1  0.2722673436195  0.4039261147827  0.8072210311711 1.0
C      1  0.4637508487021  0.2012197814821  0.8063998347690 1.0
C      1  0.7754226424525  0.4050752874437  0.7594185356963 1.0
C      1  0.6380787891912  0.6998908252619  0.7928308897165 1.0
C      1  0.3545623404068  0.7313004858253  0.7699721371822 1.0
C      1  0.5769170746019  0.6488718313741  0.8603135473003 1.0
C      1  0.4041779407849  0.6017806867472  0.8650520478904 1.0
C      1  0.3528117944675  0.4195991852528  0.8591932542477 1.0
C      1  0.5312380978239  0.3416479870351  0.8344602483549 1.0
C      1  0.6355063024525  0.4707063120340  0.8271209584962 1.0
C      1  0.8641792707870  0.5367112426590  0.3289891494158 1.0
C      1  0.5931946144036  0.8648918299112  0.3244816156763 1.0
C      1  0.1875326525365  0.7124061831198  0.3184452521247 1.0
C      1  0.2156001330637  0.2617938540055  0.3434275979315 1.0
C      1  0.6466616151764  0.1489084357777  0.3255644923713 1.0
C      1  0.7368048548948  0.3202800619277  0.2579421259236 1.0
C      1  0.7419400292280  0.6698547411948  0.2696675082300 1.0
C      1  0.4210130297251  0.7807062566865  0.2742774556396 1.0
C      1  0.2064370555260  0.5108258737063  0.2727581179913 1.0
C      1  0.4001921715910  0.2192183468001  0.2625487799424 1.0
C      1  0.1924516267943  0.7591281581167  0.4055360644602 1.0
C      1  0.1768336613527  0.2760062820046  0.4299145832613 1.0
C      1  0.6367305450223  0.1049841810579  0.4118427540663 1.0
C      1  0.9049743517074  0.5137873569154  0.4171931116410 1.0
C      1  0.6443138901945  0.9106032936280  0.3908957634200 1.0
C      1  0.4891138297487  0.4280697574937  0.5040154542047 1.0
C      1  0.4547939744863  0.4696205155534  0.7800094522029 1.0
C      1  0.4843157645449  0.5058689649577  0.7034800754568 1.0
C      1  0.4254715810834  0.5285965517927  0.6412326665191 1.0
END
