TITL C-69506-3599-2 -6.294 3375.00 -1131.31759053 0 0 135 (C1) n - 1
REM
REM Run started: at 2020.12.07 01:07:39 in /rds/project/t2_vol4/rds-t2-cs072/BORA/CARBON/AIRSS/Generating-Clusters/Str-Search/Higher-Symm/C100-200
REM VASP from code version vasp.5.4.4.18Apr17-6-g9f103f2a35 (build Oct 11 2019 16:45:47) gamma-only
REM
REM
REM
REM
REM ./C.cell (533062f00bc710175b3da973d35f2034)
REM AIRSS Version 0.9.1 bugfix July 2018 build 013d7b7c2542+ Fri, 06 Jul 2018 19:26:36 +0100
REM compiler GCC version 4.8.5 20150623 (Red Hat 4.8.5-39)
REM options -cpp -mtune=generic -march=x86-64 -g -O0
REM seed 2052602028 -1804727304 1765750744 96543535 553929551 1367165147 763362965 709056142 -670854061 988667341 1986827869 -180780047
REM
REM C.POTCAR (d86ddea03c3ceb6dc662c8ad6801f873)
REM 
CELL 1.54180   15.00000   15.00000   15.00000   90.00000   90.00000   90.00000
LATT -1
SFAC C  
C      1  0.7942947420962  0.5857202881832  0.6562454975344 1.0
C      1  0.7943067498840  0.6779032293658  0.5281889687164 1.0
C      1  0.7919470145101  0.6336416643564  0.3766673623973 1.0
C      1  0.7925705530795  0.4866056488641  0.3160473648977 1.0
C      1  0.7913300971752  0.3475335260193  0.3927645522477 1.0
C      1  0.7899665536900  0.3210098765292  0.5487702946471 1.0
C      1  0.7924019090642  0.4268198161945  0.6655306736989 1.0
C      1  0.5933828884970  0.3951500723550  0.3161647689021 1.0
C      1  0.5926484883208  0.2953429127338  0.4630597375761 1.0
C      1  0.5917789441192  0.3496538871190  0.6330849483314 1.0
C      1  0.5933650591386  0.5122902040318  0.7056461328722 1.0
C      1  0.5936403880097  0.6648244832897  0.6164372203013 1.0
C      1  0.5935181245862  0.6937174974060  0.4412796484944 1.0
C      1  0.5934496219292  0.5750523874840  0.3078692830815 1.0
C      1  0.5443852075923  0.6259512087295  0.8235145763168 1.0
C      1  0.5196907167422  0.8112619396118  0.6062058466386 1.0
C      1  0.5248524936286  0.7766213408169  0.3153119980210 1.0
C      1  0.5298416468748  0.5263255048961  0.1593998747257 1.0
C      1  0.5337652567143  0.2443741841036  0.2588304788719 1.0
C      1  0.5159789656879  0.1726352277466  0.5434025035316 1.0
C      1  0.5176134077664  0.3374687800519  0.7836874326693 1.0
C      1  0.2852388346067  0.7029708264161  0.6286384879576 1.0
C      1  0.3853071314131  0.5569266830391  0.4451024734256 1.0
C      1  0.3522626457128  0.5059894226272  0.3712640436836 1.0
C      1  0.3295289896450  0.4145385845633  0.4023902224306 1.0
C      1  0.3606973386752  0.4155201601465  0.5082582212051 1.0
C      1  0.3244880837374  0.3735753667761  0.5959655168802 1.0
C      1  0.3998151955733  0.5661836566347  0.5963258305045 1.0
C      1  0.5936367080343  0.6006610976808  0.4672490000873 1.0
C      1  0.5937792101066  0.5385676293415  0.3968950755166 1.0
C      1  0.5942935183250  0.4434822477950  0.4009068786334 1.0
C      1  0.5927452869779  0.3913517726779  0.4781191141907 1.0
C      1  0.5921866997292  0.4199406199749  0.5695136534200 1.0
C      1  0.5919744104668  0.5056367324104  0.6078587175697 1.0
C      1  0.5930714836914  0.5869795927416  0.5612597860699 1.0
C      1  0.4485971304376  0.7866413305243  0.3754425552149 1.0
C      1  0.4518469760524  0.5771168052724  0.1861910894388 1.0
C      1  0.4579376976590  0.2926331690584  0.2239391439871 1.0
C      1  0.4453075129032  0.1868218828939  0.4780374592352 1.0
C      1  0.4327327262994  0.3152153600086  0.7399162658790 1.0
C      1  0.4704514511844  0.5755217433248  0.8541652972892 1.0
C      1  0.4433307914922  0.7798924785071  0.6544496424287 1.0
C      1  0.6077563401994  0.7595697186642  0.5936186310530 1.0
C      1  0.6105259010388  0.7349310586476  0.3528947671282 1.0
C      1  0.6118007441234  0.5302074230528  0.2209979478991 1.0
C      1  0.6114765009291  0.2984909183623  0.2974825543626 1.0
C      1  0.6053316028466  0.2211363432806  0.5277884719321 1.0
C      1  0.6047741473049  0.3508408874219  0.7304991434970 1.0
C      1  0.6174072555799  0.5900878244534  0.7639579429741 1.0
C      1  0.2400033884098  0.5019218888327  0.6659934432479 1.0
C      1  0.1926983209207  0.5879513799200  0.5289735034486 1.0
C      1  0.1929593725987  0.5860033065107  0.4317083850113 1.0
C      1  0.1934017213909  0.5119016014469  0.3721207533499 1.0
C      1  0.1811586277490  0.4188857286359  0.3844316792968 1.0
C      1  0.1666559063993  0.3683631068933  0.4619455030344 1.0
C      1  0.1751561865054  0.4117117566038  0.5479818203296 1.0
C      1  0.4286513621326  0.2539162491276  0.6656307827984 1.0
C      1  0.4631532541640  0.4786066764460  0.8552459653057 1.0
C      1  0.4489227227747  0.7375398541458  0.7388563963706 1.0
C      1  0.4311630607977  0.8206413125314  0.4626750206645 1.0
C      1  0.4452992883442  0.6598058637215  0.2278453290562 1.0
C      1  0.4498473141660  0.3719680460256  0.1756404196760 1.0
C      1  0.4389944613535  0.1814331441926  0.3849117860522 1.0
C      1  0.2899112034458  0.6681341578483  0.7145441418408 1.0
C      1  0.2700281177132  0.7225106056618  0.4723864876160 1.0
C      1  0.2888012092971  0.6292500770637  0.3124602855931 1.0
C      1  0.2846823305315  0.4318987438366  0.2536590592218 1.0
C      1  0.2711305934840  0.2739812887491  0.3748052599953 1.0
C      1  0.2518769496181  0.2640673554355  0.5487797744272 1.0
C      1  0.3422566489195  0.5392394331209  0.7808745820511 1.0
C      1  0.6063450892358  0.2422842925681  0.3803407918156 1.0
C      1  0.6016031039420  0.2523396993779  0.6221967585022 1.0
C      1  0.6120698080006  0.4408831410118  0.7725966810711 1.0
C      1  0.6134050601755  0.6756403647758  0.7126736333600 1.0
C      1  0.6028114431776  0.7764050450062  0.4954256685966 1.0
C      1  0.6095109750462  0.6685893204353  0.2779835958345 1.0
C      1  0.6110287069298  0.4298390500252  0.2239456565843 1.0
C      1  0.6766446635662  0.7562395349086  0.4258743833055 1.0
C      1  0.6790034138256  0.6002777814007  0.2493952845152 1.0
C      1  0.6790506874962  0.3654282526629  0.2631064047807 1.0
C      1  0.6755575928816  0.2309717460507  0.4546075059610 1.0
C      1  0.6734650236454  0.2980599111081  0.6775700711678 1.0
C      1  0.6818172344435  0.5133898035058  0.7643268686628 1.0
C      1  0.6804629002946  0.7185068980185  0.6515191793561 1.0
C      1  0.5238752383976  0.7146846916679  0.2443207900531 1.0
C      1  0.5285853977571  0.4292824606791  0.1617063223056 1.0
C      1  0.5242667757250  0.1930324113661  0.3380936136504 1.0
C      1  0.5077207538505  0.2090216741220  0.6311046151571 1.0
C      1  0.5319472521972  0.4182000923102  0.8307526952707 1.0
C      1  0.5342395641521  0.7039873549438  0.7711441630554 1.0
C      1  0.5125896490869  0.8281000909449  0.5142098130611 1.0
C      1  0.8561215522768  0.5489258784088  0.5913064034278 1.0
C      1  0.8563053321261  0.6036213078728  0.5153284198646 1.0
C      1  0.8550654027208  0.5776313998873  0.4255780843480 1.0
C      1  0.8545560770825  0.4906021085364  0.3904973509791 1.0
C      1  0.8542868004916  0.4081615056422  0.4357254091551 1.0
C      1  0.8535227510998  0.3923842748303  0.5277940098429 1.0
C      1  0.8552018845529  0.4547330311189  0.5970480000181 1.0
C      1  0.2206965292173  0.2818889760879  0.4583494837187 1.0
C      1  0.2290773891236  0.3459431845160  0.5905417164507 1.0
C      1  0.2667950441013  0.5724057881806  0.7255361792216 1.0
C      1  0.2357764550617  0.6755929076605  0.5506908891617 1.0
C      1  0.2462817519660  0.6593064838250  0.3958827814301 1.0
C      1  0.2694366397478  0.5268973367120  0.3080860068321 1.0
C      1  0.2572291665369  0.3733207294717  0.3373090742182 1.0
C      1  0.4073212190718  0.2699704163157  0.5051308519221 1.0
C      1  0.3659873312199  0.3850158735721  0.7554136688572 1.0
C      1  0.3891951996247  0.6123851352552  0.8217133192639 1.0
C      1  0.3688065209483  0.7464579680126  0.5937719898724 1.0
C      1  0.4077615270624  0.7026116570066  0.3776403024880 1.0
C      1  0.4205039308577  0.4999831656393  0.2345166853573 1.0
C      1  0.3995980216800  0.3016661691833  0.2991371273228 1.0
C      1  0.7578233816212  0.7014289640672  0.4405091548847 1.0
C      1  0.7577630648779  0.5781887879685  0.3031911438927 1.0
C      1  0.7577671875562  0.3946422855574  0.3139245040680 1.0
C      1  0.7554637149934  0.2878717067777  0.4631282102002 1.0
C      1  0.7550906852564  0.3388739477531  0.6388553457086 1.0
C      1  0.7594356854588  0.5091131391048  0.7061630955401 1.0
C      1  0.7596758986323  0.6710216912310  0.6192036910534 1.0
C      1  0.3247135126917  0.4329576398898  0.6745274566434 1.0
C      1  0.3699164453489  0.5241033613914  0.6757847214812 1.0
C      1  0.4100250906889  0.6557505930701  0.5556639315767 1.0
C      1  0.4073548732213  0.6460973435768  0.4588878072978 1.0
C      1  0.4387288382060  0.4728215173544  0.3263484681068 1.0
C      1  0.4176410310749  0.3770073279806  0.3612535426189 1.0
C      1  0.4230544297448  0.3507520541168  0.4624568663545 1.0
C      1  0.3780993763617  0.4535951900462  0.8167893672193 1.0
C      1  0.3716100546675  0.6869472368472  0.7686845274364 1.0
C      1  0.3476654698667  0.7844911167226  0.5024504454336 1.0
C      1  0.3755723920241  0.6655884562805  0.2955921773154 1.0
C      1  0.3673789294141  0.4250765374248  0.2046512005670 1.0
C      1  0.3557506534830  0.2338128472425  0.3498335413246 1.0
C      1  0.3613927089885  0.2778831424875  0.5910629865966 1.0
C      1  0.3885720055632  0.5078280803755  0.5218066859825 1.0
C      1  0.1924884252950  0.5046010251735  0.5805531021244 1.0
END
