TITL C-69506-3599-4 -7.115 3375.00 -1078.52343261 0 0 133 (C1) n - 1
REM
REM Run started: at 2020.12.07 03:58:55 in /rds/project/t2_vol4/rds-t2-cs072/BORA/CARBON/AIRSS/Generating-Clusters/Str-Search/Higher-Symm/C100-200
REM VASP from code version vasp.5.4.4.18Apr17-6-g9f103f2a35 (build Oct 11 2019 16:45:47) gamma-only
REM
REM
REM
REM
REM ./C.cell (533062f00bc710175b3da973d35f2034)
REM AIRSS Version 0.9.1 bugfix July 2018 build 013d7b7c2542+ Fri, 06 Jul 2018 19:26:36 +0100
REM compiler GCC version 4.8.5 20150623 (Red Hat 4.8.5-39)
REM options -cpp -mtune=generic -march=x86-64 -g -O0
REM seed -831109327 1786277105 -184003064 -2043878752 -2073331456 1125546481 -1472396613 -1494165696 -488188718 1122474158 1761708241 -719812328
REM
REM C.POTCAR (d86ddea03c3ceb6dc662c8ad6801f873)
REM 
CELL 1.54180   15.00000   15.00000   15.00000   90.00000   90.00000   90.00000
LATT -1
SFAC C  
C      1  0.7291849944531  0.6528969723683  0.5600751364423 1.0
C      1  0.2755126575975  0.5892786881175  0.4681557993686 1.0
C      1  0.2696453687871  0.4002621465279  0.5510335009841 1.0
C      1  0.7493937697603  0.4160987029407  0.4695544972245 1.0
C      1  0.3205969202892  0.7668489511201  0.3830126935098 1.0
C      1  0.6801416977152  0.7357513555696  0.5905292607954 1.0
C      1  0.6994550185899  0.2126748951981  0.4235477548761 1.0
C      1  0.2976122688612  0.1859216540332  0.5886603961122 1.0
C      1  0.7015028503277  0.5934222620073  0.1871364296226 1.0
C      1  0.3311754885091  0.5868676326751  0.8532927159987 1.0
C      1  0.3460827797399  0.3976153835528  0.1599588088328 1.0
C      1  0.5846800298339  0.4545943037509  0.7965429123695 1.0
C      1  0.4396246209731  0.6121262792155  0.7155706030157 1.0
C      1  0.5287538387225  0.5307969286460  0.3258845225541 1.0
C      1  0.3684009645879  0.5384352546159  0.7135466891277 1.0
C      1  0.5043515138645  0.4440667200260  0.3206902025982 1.0
C      1  0.3828746933200  0.1665078434199  0.4435270303891 1.0
C      1  0.6358906558309  0.1924363321532  0.5767346208609 1.0
C      1  0.6095594170322  0.7967880349467  0.4526562801028 1.0
C      1  0.3766451732722  0.8079223444488  0.5360520957165 1.0
C      1  0.3131526520437  0.7076822743092  0.3125350393348 1.0
C      1  0.6852940698061  0.7308612129026  0.6899391936434 1.0
C      1  0.7070920564204  0.2639931713945  0.3465938942399 1.0
C      1  0.2771040559495  0.2455601838293  0.6552656239454 1.0
C      1  0.8993319677309  0.3918916097588  0.2502005496677 1.0
C      1  0.0445801645693  0.3542357390459  0.6429476319388 1.0
C      1  0.1282749098019  0.5473377943102  0.2924574968731 1.0
C      1  0.8687646739534  0.5621352777817  0.7214631707106 1.0
C      1  0.7894427984279  0.3189614754286  0.3391334829242 1.0
C      1  0.1899447120453  0.2944718068148  0.6528255790030 1.0
C      1  0.2348198986237  0.6487655239428  0.3150927884874 1.0
C      1  0.7658862833633  0.6797204201906  0.7088566826071 1.0
C      1  0.5553407179096  0.5602322887855  0.4237460649815 1.0
C      1  0.4390173788739  0.6249355887053  0.6235414995877 1.0
C      1  0.4784509037339  0.4067857224753  0.4125929536111 1.0
C      1  0.5955848101696  0.4041686504832  0.5239089551969 1.0
C      1  0.4634927553988  0.2188159244884  0.4192556959143 1.0
C      1  0.5506204899023  0.2359995670672  0.5743515842924 1.0
C      1  0.5323418511963  0.7390478215510  0.4209820579135 1.0
C      1  0.4642625947444  0.7747178178583  0.5623999068195 1.0
C      1  0.3441358883938  0.5858336440702  0.6169535201559 1.0
C      1  0.6527763916214  0.5930732328602  0.4260647067181 1.0
C      1  0.6996621882294  0.4037387351433  0.5529522171839 1.0
C      1  0.3747983651895  0.4106115746312  0.4245834756980 1.0
C      1  0.8651880432682  0.6907220433254  0.3923300176934 1.0
C      1  0.0872910529053  0.6728395822699  0.6217872115158 1.0
C      1  0.1545191957095  0.3295751721314  0.3861009305913 1.0
C      1  0.9524554190761  0.3675541058717  0.6272201376837 1.0
C      1  0.8681937239352  0.4687117571787  0.3814990888919 1.0
C      1  0.1160286387086  0.4330052787120  0.6213288627273 1.0
C      1  0.1387435978354  0.5445589630606  0.3890515505240 1.0
C      1  0.8584619354763  0.5737745880096  0.6275953270208 1.0
C      1  0.1173005169239  0.3931801599663  0.4245189660956 1.0
C      1  0.8930459804426  0.4261951734500  0.5847407539130 1.0
C      1  0.8962017450184  0.6207458386021  0.4258373780127 1.0
C      1  0.1136819026438  0.5910333259024  0.5822902629653 1.0
C      1  0.7086131714730  0.2838387066130  0.6777980276677 1.0
C      1  0.3177005594173  0.2654567335735  0.3364346760394 1.0
C      1  0.2957887136732  0.7453067787917  0.6553602725295 1.0
C      1  0.6993545785761  0.7434657110327  0.3363376514991 1.0
C      1  0.4679592715667  0.6530251142325  0.8009425658534 1.0
C      1  0.5372313034959  0.5883414270413  0.2452441004622 1.0
C      1  0.4227823346321  0.4527025376969  0.7279440892765 1.0
C      1  0.5006863974728  0.3892762775473  0.2372240839434 1.0
C      1  0.5626110638920  0.3137758034243  0.2415992112705 1.0
C      1  0.4032472731479  0.3624376858554  0.7179535960425 1.0
C      1  0.4718368190950  0.6553565281509  0.2330529935067 1.0
C      1  0.5315292209978  0.7267767192489  0.7890525225225 1.0
C      1  0.2096776195930  0.5058079741546  0.7565021439984 1.0
C      1  0.8574304185375  0.5469934523780  0.2321972020167 1.0
C      1  0.7512422483334  0.4822568251628  0.8255980634058 1.0
C      1  0.1842488603276  0.4361267965128  0.1849991104426 1.0
C      1  0.1274333891418  0.4760831957493  0.2343283699676 1.0
C      1  0.8176149908059  0.5392492459781  0.7973672796374 1.0
C      1  0.8910901890222  0.4771626530724  0.2839942895492 1.0
C      1  0.1541543791691  0.4755520363410  0.7034235287406 1.0
C      1  0.3300555791132  0.1628413820695  0.5153724631371 1.0
C      1  0.6892741372704  0.1876961339949  0.5026165342424 1.0
C      1  0.6515731225838  0.7930797161876  0.5289278066455 1.0
C      1  0.3316375519361  0.7993224311415  0.4585392508421 1.0
C      1  0.5466055715881  0.3155598472461  0.5170549721483 1.0
C      1  0.4940430299126  0.3111801690381  0.4442667711844 1.0
C      1  0.4817129890856  0.6758180135751  0.5500644979867 1.0
C      1  0.5111085243628  0.6512515758991  0.4656186714119 1.0
C      1  0.7534411280254  0.4938171875444  0.5273962033064 1.0
C      1  0.3293700325953  0.4469442089881  0.5038724125672 1.0
C      1  0.3209166575200  0.5441196279907  0.5293163574031 1.0
C      1  0.7073198727704  0.5805689198309  0.5070428233170 1.0
C      1  0.5316988800431  0.7738776047178  0.3334312472259 1.0
C      1  0.4589329010921  0.8070413719177  0.6530642052489 1.0
C      1  0.4781555096916  0.1891178574729  0.3291911190358 1.0
C      1  0.5327224138780  0.2450035154529  0.6673790926142 1.0
C      1  0.1024130959346  0.5025963305622  0.5481145662996 1.0
C      1  0.8863832798487  0.5314794076695  0.4497485257790 1.0
C      1  0.8541812968404  0.5090154109546  0.5491964560798 1.0
C      1  0.1070187724066  0.4812325096670  0.4562380736989 1.0
C      1  0.2711037320978  0.6601731700248  0.6383088884531 1.0
C      1  0.6964604924623  0.6524880716608  0.3717041087248 1.0
C      1  0.7530723128915  0.3431712507001  0.6269632244597 1.0
C      1  0.3261655287063  0.3527480758991  0.3737760751581 1.0
C      1  0.6064833046471  0.7487794136746  0.7353228924289 1.0
C      1  0.3928286229772  0.6988069036234  0.2649860767413 1.0
C      1  0.3575836777214  0.2855968030362  0.6877063550345 1.0
C      1  0.6307578141842  0.2703097247854  0.2916013989666 1.0
C      1  0.2411244699553  0.3088451643703  0.3612024886240 1.0
C      1  0.8502551688535  0.3589280655837  0.6262392127405 1.0
C      1  0.7767010871955  0.7057375613317  0.3661849445080 1.0
C      1  0.1776620906131  0.6445065139311  0.6230668328374 1.0
C      1  0.3594575959758  0.8042647947135  0.6329564288410 1.0
C      1  0.6242589788594  0.8012418802506  0.3548191770079 1.0
C      1  0.6353039069604  0.2324336994733  0.6685238857801 1.0
C      1  0.3799314722869  0.1917058392387  0.3494374783972 1.0
C      1  0.4265027143461  0.3885913080091  0.1866725991518 1.0
C      1  0.5086011659547  0.4607369773755  0.7637220193757 1.0
C      1  0.6212220571898  0.5981619544908  0.2088059060645 1.0
C      1  0.4038684203568  0.6310831141706  0.8626456445641 1.0
C      1  0.8509429315295  0.3255855342072  0.2717779606990 1.0
C      1  0.0984108456603  0.2799352700445  0.6685762068673 1.0
C      1  0.1708577717575  0.6268869687548  0.2536838775701 1.0
C      1  0.8157579478660  0.6292240852135  0.7706904743782 1.0
C      1  0.2012840341639  0.3771764692395  0.6034510307322 1.0
C      1  0.8054301687415  0.3927180149267  0.4018512141648 1.0
C      1  0.7973686674803  0.6443744873621  0.6254393674493 1.0
C      1  0.2178486866705  0.6004453351805  0.4012136321511 1.0
C      1  0.2915194661191  0.5427873411458  0.7845941741289 1.0
C      1  0.7887849001846  0.5802264914995  0.1992342484369 1.0
C      1  0.6703824030623  0.4644810073539  0.8172424601724 1.0
C      1  0.2603209506416  0.4055613817744  0.1575195056401 1.0
C      1  0.4523075237585  0.2834199609088  0.6991268331577 1.0
C      1  0.5426555630655  0.2320378297604  0.2796353714106 1.0
C      1  0.5182619130778  0.7866262264919  0.7188412580459 1.0
C      1  0.4768991586100  0.7440081086080  0.2635698360038 1.0
C      1  0.5449509523978  0.4639902450656  0.4705942730018 1.0
END
