TITL C-69506-3599-8 -4.8 3375.00 -824.06560202 0 0 100 (C1) n - 1
REM
REM Run started: at 2020.12.07 07:51:11 in /rds/project/t2_vol4/rds-t2-cs072/BORA/CARBON/AIRSS/Generating-Clusters/Str-Search/Higher-Symm/C100-200
REM VASP from code version vasp.5.4.4.18Apr17-6-g9f103f2a35 (build Oct 11 2019 16:45:47) gamma-only
REM
REM
REM
REM
REM ./C.cell (533062f00bc710175b3da973d35f2034)
REM AIRSS Version 0.9.1 bugfix July 2018 build 013d7b7c2542+ Fri, 06 Jul 2018 19:26:36 +0100
REM compiler GCC version 4.8.5 20150623 (Red Hat 4.8.5-39)
REM options -cpp -mtune=generic -march=x86-64 -g -O0
REM seed 1795837463 748238007 -908286219 494915052 -1421197158 -408875478 1058697805 787773450 1032627301 1604779279 159920052 -947994279
REM
REM C.POTCAR (d86ddea03c3ceb6dc662c8ad6801f873)
REM 
CELL 1.54180   15.00000   15.00000   15.00000   90.00000   90.00000   90.00000
LATT -1
SFAC C  
C      1  0.6779503609288  0.2323690092755  0.6191372235738 1.0
C      1  0.7032753070094  0.2329609827724  0.3799196862726 1.0
C      1  0.6971827115617  0.4528219751773  0.2506002403969 1.0
C      1  0.6147580183529  0.6999544310079  0.3095300407679 1.0
C      1  0.6254322121953  0.7423838055271  0.5750070115252 1.0
C      1  0.7258178459326  0.6587648268739  0.6870120133062 1.0
C      1  0.6594848276633  0.4358393701609  0.7378873168934 1.0
C      1  0.3853552949876  0.7445828969768  0.4351332816823 1.0
C      1  0.3870400574188  0.7202276401005  0.6607994405901 1.0
C      1  0.3802188833959  0.5338336561543  0.7938916658963 1.0
C      1  0.4194557688100  0.3336822577572  0.7168436863205 1.0
C      1  0.4143320007104  0.2281209600937  0.4987987118055 1.0
C      1  0.3861708301077  0.5017432277158  0.1402074570663 1.0
C      1  0.2814039357002  0.7333339037059  0.2603635705683 1.0
C      1  0.7604557042299  0.6421053109515  0.5989186607344 1.0
C      1  0.7014945571146  0.5028937623307  0.6863826178987 1.0
C      1  0.7152372903989  0.3165998031747  0.6474990901993 1.0
C      1  0.7376919578308  0.2460411780437  0.4678861806732 1.0
C      1  0.7136183026778  0.3859333684204  0.3216772895187 1.0
C      1  0.6701704621905  0.6196293667526  0.2974256977804 1.0
C      1  0.6207222902204  0.7015602824297  0.4819130024768 1.0
C      1  0.4254474483075  0.7507221175885  0.3441957101494 1.0
C      1  0.4531273511372  0.7566169279332  0.5960591307042 1.0
C      1  0.4346435833464  0.6127624447806  0.7892313298374 1.0
C      1  0.4835251504530  0.3931207799167  0.7646094731335 1.0
C      1  0.4875263142315  0.2495315301994  0.5631754842456 1.0
C      1  0.5308453908988  0.2013628289223  0.3748092959378 1.0
C      1  0.5537940297294  0.4668589867259  0.1424203706815 1.0
C      1  0.5175383441700  0.7083142679197  0.3424874807778 1.0
C      1  0.5437901456779  0.7463708975937  0.6300713494247 1.0
C      1  0.5142339645983  0.5601365178335  0.7900071306458 1.0
C      1  0.5761504004456  0.3832351343929  0.7197740122260 1.0
C      1  0.5940249342829  0.2374119702416  0.5618492185708 1.0
C      1  0.6041687575939  0.2603853641657  0.3746540574990 1.0
C      1  0.6314120539291  0.4778621645625  0.1862116086684 1.0
C      1  0.3283340678529  0.3523367301555  0.6924699357728 1.0
C      1  0.3300302869044  0.2684485668474  0.5132289140504 1.0
C      1  0.3172271164635  0.5387108562413  0.1775378797956 1.0
C      1  0.2574043731201  0.6447306237581  0.2935109259225 1.0
C      1  0.2991744081813  0.7025061738858  0.4543826205705 1.0
C      1  0.3078711507720  0.6734361403583  0.6346274047565 1.0
C      1  0.3053144927195  0.5230447795867  0.7422777616601 1.0
C      1  0.4102764610678  0.4704403592696  0.5558264149066 1.0
C      1  0.3424599048691  0.4116430343248  0.5614735894614 1.0
C      1  0.3364505110639  0.3465674795194  0.3669127439641 1.0
C      1  0.3168877212452  0.4419775615304  0.3604030277569 1.0
C      1  0.3908141641422  0.4975386641037  0.3598356625346 1.0
C      1  0.4076172005703  0.5744037430591  0.4184540055272 1.0
C      1  0.4167075232430  0.5552809112296  0.5108495662815 1.0
C      1  0.4800299842477  0.4646121404743  0.3570150771749 1.0
C      1  0.5226586057649  0.6658460664560  0.4853815967273 1.0
C      1  0.4910082765879  0.5992456575845  0.5513773456828 1.0
C      1  0.5277348346027  0.5523212509961  0.6259107460191 1.0
C      1  0.4917173712174  0.4645304180498  0.6097122820674 1.0
C      1  0.4257914034298  0.3145685548377  0.3658910727712 1.0
C      1  0.4968845128728  0.3750724429893  0.3734262053077 1.0
C      1  0.2205869100259  0.5908614996788  0.5314009892830 1.0
C      1  0.2171348680636  0.5474444285514  0.6164267253602 1.0
C      1  0.2196069762915  0.4547673394585  0.6341547676819 1.0
C      1  0.2411743933030  0.3943721795217  0.5621987825481 1.0
C      1  0.2253852158554  0.3873740072399  0.4666313620879 1.0
C      1  0.2387308093319  0.4670438298484  0.4141018393504 1.0
C      1  0.2257165929737  0.5597860000576  0.4411227848454 1.0
C      1  0.6894313317782  0.5839260960526  0.3842774269363 1.0
C      1  0.6877696400901  0.6177070848734  0.4703939887875 1.0
C      1  0.7368286529877  0.5704454999928  0.5455134947068 1.0
C      1  0.7346213953943  0.4812161339731  0.5988272425589 1.0
C      1  0.7424665758466  0.3799247710954  0.5789028701796 1.0
C      1  0.7578751004041  0.3402224422155  0.4870372842012 1.0
C      1  0.7496727207881  0.4025462052112  0.4139782901088 1.0
C      1  0.6723896555745  0.5903093747731  0.7143351544171 1.0
C      1  0.6704828240777  0.3482491267996  0.7254503828732 1.0
C      1  0.6850712954842  0.2031083937487  0.5346903447615 1.0
C      1  0.6888053749325  0.2886700497091  0.3128199306844 1.0
C      1  0.6764816977003  0.5446798901969  0.2390959337991 1.0
C      1  0.6028077267978  0.7418623302001  0.3890745199229 1.0
C      1  0.7035839941141  0.7201535501769  0.6159104086420 1.0
C      1  0.4502923605242  0.2290234555438  0.4083889235464 1.0
C      1  0.4703314594219  0.4821011248558  0.1342762016878 1.0
C      1  0.3617113375100  0.7521267156581  0.2800551607888 1.0
C      1  0.4518867398978  0.7399925709179  0.5031278001293 1.0
C      1  0.4414715961381  0.6884937850547  0.7333151731788 1.0
C      1  0.4636716706526  0.4771626303192  0.7972139439827 1.0
C      1  0.4711280365229  0.3039784027602  0.6429095325860 1.0
C      1  0.5729136547179  0.5987210176470  0.7164925272242 1.0
C      1  0.5370864937397  0.3772444282529  0.6232298285242 1.0
C      1  0.5617478515088  0.3250252249354  0.5306200057588 1.0
C      1  0.5794751335233  0.3477843714073  0.4267884667987 1.0
C      1  0.5418297706471  0.5328123681633  0.3794296600891 1.0
C      1  0.4973682066546  0.6203776910067  0.3966394115405 1.0
C      1  0.5341404450778  0.6936302070426  0.7071549115467 1.0
C      1  0.2826766250480  0.3137864039876  0.4388130328084 1.0
C      1  0.2634402558525  0.5760315129335  0.2323722983740 1.0
C      1  0.2589884428213  0.6361004792506  0.3895309492356 1.0
C      1  0.2719512506609  0.6720069212730  0.5421809546794 1.0
C      1  0.2709091982966  0.5936267571302  0.6798423718014 1.0
C      1  0.2767642078335  0.4347592464786  0.7083634806485 1.0
C      1  0.3075621004643  0.3255442614243  0.5950435547167 1.0
C      1  0.6516685582488  0.4188805651124  0.4096815615111 1.0
C      1  0.6284609932448  0.5088997220339  0.3995513079472 1.0
END
