TITL C-69506-3599-5 -6.347 3375.00 -1031.72498072 0 0 127 (C1) n - 1
REM
REM Run started: at 2020.12.07 05:43:48 in /rds/project/t2_vol4/rds-t2-cs072/BORA/CARBON/AIRSS/Generating-Clusters/Str-Search/Higher-Symm/C100-200
REM VASP from code version vasp.5.4.4.18Apr17-6-g9f103f2a35 (build Oct 11 2019 16:45:47) gamma-only
REM
REM
REM
REM
REM ./C.cell (533062f00bc710175b3da973d35f2034)
REM AIRSS Version 0.9.1 bugfix July 2018 build 013d7b7c2542+ Fri, 06 Jul 2018 19:26:36 +0100
REM compiler GCC version 4.8.5 20150623 (Red Hat 4.8.5-39)
REM options -cpp -mtune=generic -march=x86-64 -g -O0
REM seed -712475260 -1706491170 -1779281040 -856106226 566940427 88421029 -1799645135 -779460105 700499753 104100869 804654865 -1721587856
REM
REM C.POTCAR (d86ddea03c3ceb6dc662c8ad6801f873)
REM 
CELL 1.54180   15.00000   15.00000   15.00000   90.00000   90.00000   90.00000
LATT -1
SFAC C  
C      1  0.7464786462075  0.5673466387949  0.6859132463033 1.0
C      1  0.2812765194640  0.6028601463193  0.7306290291720 1.0
C      1  0.3822340721097  0.5267566955031  0.5769842388641 1.0
C      1  0.6807219239715  0.5063574285665  0.5398707079850 1.0
C      1  0.4149753329783  0.6611806084759  0.7878688478413 1.0
C      1  0.5924585466040  0.6340242457662  0.7813849480560 1.0
C      1  0.6188973783047  0.5235143552224  0.4009599209930 1.0
C      1  0.3718362821825  0.4951732134160  0.4133403408124 1.0
C      1  0.5905125708609  0.2129896722383  0.3995459458488 1.0
C      1  0.4084056082010  0.2235459246686  0.4109056993664 1.0
C      1  0.2879843249907  0.5003139099149  0.6096111681109 1.0
C      1  0.7033779853505  0.5019340910737  0.6345611277399 1.0
C      1  0.5798225768038  0.2705050296177  0.3164995370324 1.0
C      1  0.4082399712955  0.2765886347170  0.3269987647334 1.0
C      1  0.4186369611002  0.8221181155336  0.3978707380409 1.0
C      1  0.5658827537399  0.8221914405439  0.3931161784607 1.0
C      1  0.6503737435249  0.3399221020922  0.3152572811090 1.0
C      1  0.3403481031317  0.3491664303753  0.3306717443159 1.0
C      1  0.5772031850393  0.4659065114987  0.7588275173096 1.0
C      1  0.4375908938918  0.4685507871232  0.7449600765673 1.0
C      1  0.3507510222968  0.4251084517675  0.7615662163535 1.0
C      1  0.6595630147357  0.4047951656956  0.7611058464103 1.0
C      1  0.7968172439103  0.5108456223083  0.3978152502147 1.0
C      1  0.1918024793202  0.5139677512090  0.4282993172948 1.0
C      1  0.6902577924455  0.2657996917130  0.6881008942397 1.0
C      1  0.3260760467946  0.2829121211658  0.7075852863585 1.0
C      1  0.3911960258303  0.7095471652510  0.7067761663168 1.0
C      1  0.6267998336545  0.6781576916387  0.7007148780995 1.0
C      1  0.5768956008641  0.1785334432191  0.6298402108910 1.0
C      1  0.4442576887695  0.1933600872864  0.6421031718828 1.0
C      1  0.5886176802959  0.4611181049628  0.5315745568051 1.0
C      1  0.4445085141190  0.4559254105646  0.5403694724775 1.0
C      1  0.6943573733235  0.6466425236722  0.3078221845928 1.0
C      1  0.2920111417226  0.6414703723282  0.3174688861382 1.0
C      1  0.6497067310887  0.8005296175452  0.3889041455717 1.0
C      1  0.3350913085936  0.7972256921614  0.3932341639905 1.0
C      1  0.7757537790099  0.5074965758363  0.4937903058029 1.0
C      1  0.2446599108774  0.5236043923158  0.5167393350323 1.0
C      1  0.2939617499213  0.3259716241005  0.4801643939281 1.0
C      1  0.7186388525404  0.3104008604930  0.4560887863189 1.0
C      1  0.3397273075813  0.3903845503738  0.4217704551905 1.0
C      1  0.6689040408321  0.3688095998885  0.4083478243755 1.0
C      1  0.8141172469230  0.6057164445823  0.4102954286065 1.0
C      1  0.1783352243565  0.6097140701309  0.4301935145030 1.0
C      1  0.7282085141803  0.4202159813645  0.6816052689107 1.0
C      1  0.2767514556490  0.4353448528376  0.6941806857282 1.0
C      1  0.2157089046607  0.6238093448400  0.5226277157547 1.0
C      1  0.8023442075172  0.6022674954579  0.5103037417855 1.0
C      1  0.7030824770235  0.2096708132858  0.5422385191359 1.0
C      1  0.3103993481309  0.2254552587063  0.5647137898241 1.0
C      1  0.3280771396643  0.5632633019146  0.2799958825850 1.0
C      1  0.6528510193384  0.5738594938878  0.2664071839840 1.0
C      1  0.4276393276503  0.4264292988811  0.4516648066169 1.0
C      1  0.5984612968254  0.4338369536932  0.4373551476431 1.0
C      1  0.2606394005056  0.3095939312367  0.5702399853569 1.0
C      1  0.7454504689324  0.2973046679886  0.5487513080830 1.0
C      1  0.3399862886548  0.5576183692384  0.4871154003835 1.0
C      1  0.6503690484541  0.5788399080464  0.4705216824272 1.0
C      1  0.2617318272277  0.4928057575556  0.2713975044609 1.0
C      1  0.7124085685697  0.4989824330452  0.2481205378893 1.0
C      1  0.2111716794694  0.4679971228491  0.3463909354762 1.0
C      1  0.7679061298636  0.4684178545503  0.3181099382174 1.0
C      1  0.2765267640526  0.6816202506632  0.5772654414928 1.0
C      1  0.7403355879190  0.6643770221614  0.5622122884244 1.0
C      1  0.6846400612959  0.4789517397953  0.8336954596417 1.0
C      1  0.3775719385861  0.5047653789052  0.8221975508750 1.0
C      1  0.6346120841782  0.3057410861207  0.7542503208692 1.0
C      1  0.3796312628303  0.3286904237610  0.7708803141678 1.0
C      1  0.6667516632353  0.1918091596202  0.6276110599806 1.0
C      1  0.3538071573875  0.2121252133528  0.6458375269296 1.0
C      1  0.8053075833466  0.4945736049798  0.6897553483152 1.0
C      1  0.2417040757482  0.5277673948268  0.6900058088015 1.0
C      1  0.2981624073015  0.7086439111122  0.3990761035704 1.0
C      1  0.6927236636183  0.7145870863143  0.3928917340612 1.0
C      1  0.3123744494270  0.6574059833339  0.4891243455090 1.0
C      1  0.6813520837941  0.6655123818191  0.4810242492407 1.0
C      1  0.3440390991742  0.5958398977055  0.8022117810513 1.0
C      1  0.6271816187019  0.5434847352413  0.8028131589231 1.0
C      1  0.5686654802926  0.5373280099240  0.3165255451698 1.0
C      1  0.4136483983398  0.5253722503820  0.3256087699279 1.0
C      1  0.7732256204187  0.6706361041970  0.3529591039954 1.0
C      1  0.2144554945260  0.6681414248104  0.3615122175261 1.0
C      1  0.3095742155521  0.6747348940610  0.6673522320312 1.0
C      1  0.7106519539544  0.6529631895154  0.6525252070763 1.0
C      1  0.6734062974448  0.2191088793639  0.4497099533409 1.0
C      1  0.3356656402826  0.2376474563424  0.4702835917178 1.0
C      1  0.7020148603035  0.4067459622992  0.2744644561525 1.0
C      1  0.2698153567636  0.4018289723743  0.2932873744223 1.0
C      1  0.2663062684540  0.3434980821217  0.6594408735859 1.0
C      1  0.7379831084649  0.3315853382549  0.6368081834333 1.0
C      1  0.5427688439180  0.2714920396623  0.7650662797309 1.0
C      1  0.4867361146495  0.6296666216860  0.0743535747319 1.0
C      1  0.4969885250465  0.4522524099465  0.3042965697620 1.0
C      1  0.4932625104992  0.5805069941846  0.9025915274065 1.0
C      1  0.4859072061386  0.7163925146144  0.2291036012419 1.0
C      1  0.5095563671209  0.3992711289003  0.4039850382501 1.0
C      1  0.5073280792763  0.2094721644586  0.5623330101287 1.0
C      1  0.4918253189286  0.2925872024383  0.2807379060930 1.0
C      1  0.4774779068322  0.5712319237523  0.6059930683822 1.0
C      1  0.4554987167065  0.4851826959784  0.8890299840971 1.0
C      1  0.4868470676448  0.8759140538318  0.2676064432833 1.0
C      1  0.4578839163532  0.4807815543912  0.9933708770300 1.0
C      1  0.5183594418379  0.2015559149882  0.7011112010055 1.0
C      1  0.4820632146236  0.5773745427410  0.9954739478100 1.0
C      1  0.5116158393086  0.5301468066993  0.5218106929322 1.0
C      1  0.4984062323740  0.4256951309983  0.8131612336871 1.0
C      1  0.4664136410203  0.7369257466271  0.6559291078633 1.0
C      1  0.4895590810194  0.3818681665863  0.2317642578728 1.0
C      1  0.5551000746933  0.7206978056523  0.6526877971209 1.0
C      1  0.5188065491310  0.4108613875392  0.5936221981062 1.0
C      1  0.5033535701903  0.6416667181704  0.8239006684197 1.0
C      1  0.4610003659635  0.4272810753137  0.0653204241001 1.0
C      1  0.4882783137165  0.5950385668297  0.3499667545380 1.0
C      1  0.4857824305070  0.6894452764650  0.3197269783810 1.0
C      1  0.4915694378158  0.6830905764546  0.4838891763097 1.0
C      1  0.5169665876912  0.3141300307623  0.5548979196024 1.0
C      1  0.4739236745946  0.4012169529443  0.1454546598767 1.0
C      1  0.4871278904929  0.8119360315229  0.2143562906741 1.0
C      1  0.5122672510981  0.3126281153767  0.4635231805163 1.0
C      1  0.5076901789038  0.4858307950126  0.6757549625857 1.0
C      1  0.4960461796506  0.6760263555736  0.5843481329057 1.0
C      1  0.4859959134681  0.6608264386764  0.1509744607897 1.0
C      1  0.4893342378001  0.7468872959519  0.4062777528615 1.0
C      1  0.5015778316355  0.2114207498016  0.4525262565095 1.0
C      1  0.4961680318368  0.5993146595795  0.4503380015129 1.0
C      1  0.4910297930570  0.8794047628003  0.3620685497536 1.0
C      1  0.4735839771855  0.3283057086784  0.7963673295757 1.0
END
