TITL C-69506-3599-10 -9.151 3375.00 -1557.60386406 0 0 191 (C1) n - 1
REM
REM Run started: at 2020.12.07 10:44:40 in /rds/project/t2_vol4/rds-t2-cs072/BORA/CARBON/AIRSS/Generating-Clusters/Str-Search/Higher-Symm/C100-200
REM VASP from code version vasp.5.4.4.18Apr17-6-g9f103f2a35 (build Oct 11 2019 16:45:47) gamma-only
REM
REM
REM
REM
REM ./C.cell (533062f00bc710175b3da973d35f2034)
REM AIRSS Version 0.9.1 bugfix July 2018 build 013d7b7c2542+ Fri, 06 Jul 2018 19:26:36 +0100
REM compiler GCC version 4.8.5 20150623 (Red Hat 4.8.5-39)
REM options -cpp -mtune=generic -march=x86-64 -g -O0
REM seed -1599771903 -500884144 1158320498 -144912007 -1627152894 788059309 -1448035265 300931309 -1758070670 1455491808 341975485 1614380881
REM
REM C.POTCAR (d86ddea03c3ceb6dc662c8ad6801f873)
REM 
CELL 1.54180   15.00000   15.00000   15.00000   90.00000   90.00000   90.00000
LATT -1
SFAC C  
C      1  0.4282633908911  0.4315285687223  0.4541822573332 1.0
C      1  0.4697577979660  0.5942418971756  0.4501404964078 1.0
C      1  0.5757003691016  0.4723594152801  0.4176066247778 1.0
C      1  0.4355143949646  0.5701763724431  0.5497827416887 1.0
C      1  0.4659858864182  0.4072651880786  0.5511204840853 1.0
C      1  0.5807869467106  0.5279467396131  0.5820666873408 1.0
C      1  0.4220598887065  0.7698925875189  0.6067896175727 1.0
C      1  0.7623485199474  0.4535171251148  0.5952908207144 1.0
C      1  0.3175573466856  0.2949904747051  0.5999087465134 1.0
C      1  0.4113241333259  0.2275703120154  0.3977521594552 1.0
C      1  0.7605393380498  0.5461328055643  0.3944003503138 1.0
C      1  0.3333986398253  0.7102059030644  0.3994761312173 1.0
C      1  0.5046490957817  0.2676243718694  0.5425833500486 1.0
C      1  0.3112937859691  0.6271306626908  0.5450166418501 1.0
C      1  0.6874950835519  0.5996117063423  0.5429545187272 1.0
C      1  0.5118690845646  0.7331848896051  0.4549844086054 1.0
C      1  0.2916217225076  0.3928536282378  0.4550897264970 1.0
C      1  0.6824939696058  0.4000554322417  0.4509270738411 1.0
C      1  0.5585282194521  0.1927502396841  0.5920402089353 1.0
C      1  0.1357109479859  0.5860876928485  0.6286808741778 1.0
C      1  0.7715318037290  0.7766306681927  0.6117792560347 1.0
C      1  0.5617160594687  0.8081364488007  0.4041193365438 1.0
C      1  0.2007095103799  0.3970381315824  0.4053664092503 1.0
C      1  0.7625204084580  0.2258676232199  0.3739683591692 1.0
C      1  0.5870452168687  0.3781570922060  0.4456239272731 1.0
C      1  0.3386614348514  0.4802642479249  0.4627754508072 1.0
C      1  0.5567997440397  0.6438095500073  0.4641177283163 1.0
C      1  0.5930024192187  0.6227532695316  0.5526616543479 1.0
C      1  0.3402531610142  0.5287490546919  0.5473210532179 1.0
C      1  0.5517653133563  0.3561955537277  0.5341600605915 1.0
C      1  0.5680803259323  0.1643095747829  0.4264722484518 1.0
C      1  0.1613402220588  0.6559657231431  0.4908837896929 1.0
C      1  0.8194886760188  0.7210379977003  0.4734581834161 1.0
C      1  0.5759950738297  0.8390866917903  0.5680060105483 1.0
C      1  0.1764208424312  0.3923450879877  0.5732399704253 1.0
C      1  0.8167784487977  0.2780466620420  0.5111299922229 1.0
C      1  0.6760751866527  0.6824507625064  0.8100520682152 1.0
C      1  0.5801849907480  0.2679332586440  0.8181023836776 1.0
C      1  0.2770356876042  0.5479503958715  0.8139702099968 1.0
C      1  0.6586949315272  0.3272080275455  0.1843612390270 1.0
C      1  0.5659428384593  0.7351518988020  0.1740150427709 1.0
C      1  0.2612401438913  0.4487873690447  0.1791507177045 1.0
C      1  0.5930929670992  0.1991396889382  0.7535701812112 1.0
C      1  0.1988594747561  0.5653344713762  0.7658487453726 1.0
C      1  0.7266297301995  0.7341338734254  0.7503094345552 1.0
C      1  0.5803220917209  0.8003142355402  0.2409643592420 1.0
C      1  0.1935859803133  0.4273055368554  0.2426150954539 1.0
C      1  0.7117064738099  0.2720962926820  0.2388146225579 1.0
C      1  0.5480453301101  0.4473459772391  0.9045595093545 1.0
C      1  0.4610462272852  0.4734983880934  0.9089930466518 1.0
C      1  0.5300442341505  0.5418435286720  0.9318407479396 1.0
C      1  0.5237349115329  0.5463158619034  0.0721262438006 1.0
C      1  0.4336521916109  0.5162239702605  0.0986944769197 1.0
C      1  0.4973868938322  0.4518351186788  0.0913616328896 1.0
C      1  0.4849147433942  0.7298820080688  0.8200815924539 1.0
C      1  0.7158043948632  0.3999911975351  0.8000621095457 1.0
C      1  0.3206420400257  0.3646611006645  0.8152357347369 1.0
C      1  0.4727601507194  0.2725574277324  0.1817686707227 1.0
C      1  0.7065717762127  0.6039149380568  0.1844438546719 1.0
C      1  0.3024006654636  0.6318632752076  0.1960670458844 1.0
C      1  0.1941120603902  0.6626055765107  0.6486866883611 1.0
C      1  0.8139230338191  0.6884172586468  0.6299036624672 1.0
C      1  0.4879488674905  0.1418285032641  0.6503849692760 1.0
C      1  0.1945678822884  0.3099588926108  0.3488163190499 1.0
C      1  0.8061015802907  0.3134603921639  0.3554919549696 1.0
C      1  0.4841242911075  0.8566871107917  0.3525926098916 1.0
C      1  0.7845736875357  0.7104556273770  0.3812866454673 1.0
C      1  0.5317781746421  0.1367137431607  0.3358692773071 1.0
C      1  0.1791715317809  0.6397498860623  0.3947713361009 1.0
C      1  0.7860840957922  0.2883107079207  0.6047809955368 1.0
C      1  0.5430846261555  0.8668490753926  0.6609933605480 1.0
C      1  0.1733352556116  0.3437479053796  0.6619046704612 1.0
C      1  0.7956714009119  0.3761804971098  0.6542210718123 1.0
C      1  0.2526709759675  0.2904950726402  0.6812573300858 1.0
C      1  0.4556286429098  0.8267921566991  0.6850409373520 1.0
C      1  0.7900125134888  0.6224436110197  0.3321703315331 1.0
C      1  0.2457580619471  0.6987260302731  0.3424803897835 1.0
C      1  0.4427904733421  0.1740847590823  0.3162114519813 1.0
C      1  0.4705184428432  0.5531686481249  0.7697212856370 1.0
C      1  0.5722319774043  0.5218087237971  0.7667968375993 1.0
C      1  0.4810650674921  0.4062630422303  0.7632255358957 1.0
C      1  0.4304479939384  0.4359561653662  0.2382507694474 1.0
C      1  0.5636523339677  0.4950103798760  0.2309637759585 1.0
C      1  0.4857978881488  0.5713435231041  0.2407094211821 1.0
C      1  0.3519256949258  0.8209157511974  0.5577485560119 1.0
C      1  0.8436222277636  0.4824291494773  0.5461038625352 1.0
C      1  0.2998105297467  0.2128924715653  0.5462342687119 1.0
C      1  0.3470623828533  0.1775617622155  0.4534939197661 1.0
C      1  0.8430927360854  0.5164385407849  0.4403842480778 1.0
C      1  0.3130459596661  0.7867885041112  0.4559720976333 1.0
C      1  0.6119115002937  0.1541198743081  0.5145731315184 1.0
C      1  0.1186439971679  0.5837848783653  0.5340828969233 1.0
C      1  0.7737946739993  0.7923594561045  0.5182058911785 1.0
C      1  0.6176500175695  0.8482460914834  0.4781106486276 1.0
C      1  0.1419952797374  0.4239072293561  0.4838182128049 1.0
C      1  0.7676825860466  0.2084631443189  0.4671496921461 1.0
C      1  0.3803737266009  0.2876275903518  0.1923846386192 1.0
C      1  0.3613219368079  0.7042843632550  0.2061481950684 1.0
C      1  0.7390095373856  0.5160547700007  0.1979282081761 1.0
C      1  0.3930847491363  0.7110721038022  0.8082188148113 1.0
C      1  0.3794588316511  0.2910760585329  0.8083830794037 1.0
C      1  0.7518999620882  0.4872216456260  0.7904165730921 1.0
C      1  0.7848951529984  0.4060005554022  0.7396736580369 1.0
C      1  0.2924055259741  0.2930905994733  0.7634205958085 1.0
C      1  0.4376105177652  0.7882173231448  0.7657662226113 1.0
C      1  0.7748185584510  0.5949922161214  0.2469050039509 1.0
C      1  0.2760430734712  0.6969883586806  0.2565540379176 1.0
C      1  0.4254649000351  0.2124686893710  0.2352745975208 1.0
C      1  0.1489539403284  0.5491382116729  0.3815894195529 1.0
C      1  0.7162712350006  0.7771354738639  0.3729261738884 1.0
C      1  0.6187263190597  0.1605492766941  0.3351232909237 1.0
C      1  0.1471781205241  0.4302322433219  0.6655424080910 1.0
C      1  0.7168801535374  0.2227556475419  0.6144147325522 1.0
C      1  0.6299303621354  0.8432569270613  0.6572515476283 1.0
C      1  0.6325910054097  0.4378304519789  0.2897335465916 1.0
C      1  0.3589329019618  0.4074775572399  0.3023358437572 1.0
C      1  0.4918856117750  0.6613789566050  0.2978265162485 1.0
C      1  0.6418796777676  0.5705524044348  0.7074214114616 1.0
C      1  0.3864558810858  0.5875383964476  0.7047074327701 1.0
C      1  0.4896331858648  0.3312258187564  0.6978006814736 1.0
C      1  0.6171396550456  0.6492373723738  0.1988966026876 1.0
C      1  0.5553135895083  0.3296699286614  0.2021964156610 1.0
C      1  0.3104528897754  0.5335965485638  0.2148188723277 1.0
C      1  0.6271240147155  0.3541142217063  0.7824877076781 1.0
C      1  0.5710575626585  0.6771526669672  0.8030400286152 1.0
C      1  0.3306986423286  0.4636699793157  0.7929476276696 1.0
C      1  0.6802656182842  0.5299031192906  0.6155496365369 1.0
C      1  0.4326352753587  0.3204954604544  0.6042495361691 1.0
C      1  0.3934602828280  0.6461132716459  0.6095498898349 1.0
C      1  0.6746929028342  0.4718567090927  0.3800242974065 1.0
C      1  0.4425409966560  0.6804870855199  0.3929278800124 1.0
C      1  0.3740183064813  0.3591561425894  0.3965174745156 1.0
C      1  0.8475836221623  0.6559867785903  0.5417133832869 1.0
C      1  0.4192115282486  0.1108981952170  0.6022154131260 1.0
C      1  0.2269818129571  0.6927123777541  0.5594748000543 1.0
C      1  0.8434520706509  0.3435084119823  0.4431154230975 1.0
C      1  0.4303790448780  0.8945346539019  0.4138414145072 1.0
C      1  0.2013279529401  0.2362301117534  0.3993661998004 1.0
C      1  0.4063370371602  0.5214206917042  0.1958817075515 1.0
C      1  0.5588538065010  0.5746537033443  0.1689409223594 1.0
C      1  0.5139248523615  0.4179877039739  0.1838577989764 1.0
C      1  0.4259805655159  0.4723774293184  0.8147633326814 1.0
C      1  0.5670026765918  0.4277155209974  0.8064761147505 1.0
C      1  0.5400010952250  0.5881752966952  0.8377983537846 1.0
C      1  0.7120304551382  0.8023608173260  0.6818508267728 1.0
C      1  0.6285184605651  0.2293460295559  0.6632570687985 1.0
C      1  0.1444444673671  0.5197335058632  0.6969758465712 1.0
C      1  0.6990935415841  0.2026630201855  0.3067045645999 1.0
C      1  0.6254244703687  0.7701262254181  0.3275476228513 1.0
C      1  0.1983339114776  0.4753596233228  0.3325660251117 1.0
C      1  0.3719558635355  0.8640772400708  0.4730607027543 1.0
C      1  0.8681635917797  0.4284488856459  0.4677144525332 1.0
C      1  0.2518003968583  0.2035604683795  0.4634286236395 1.0
C      1  0.3640141269870  0.1377776950099  0.5396550616477 1.0
C      1  0.8701944371513  0.5701204810402  0.5180935461683 1.0
C      1  0.2652341638017  0.7805286415924  0.5358234475590 1.0
C      1  0.5040193026301  0.1681797006079  0.7418439804614 1.0
C      1  0.2315779989674  0.6517479839124  0.7325869263941 1.0
C      1  0.7831569341774  0.6620255698579  0.7156365217353 1.0
C      1  0.4913682605693  0.8263676817384  0.2619162038836 1.0
C      1  0.2115062526375  0.3351185656825  0.2571327983602 1.0
C      1  0.7717355744193  0.3422164426873  0.2719155085921 1.0
C      1  0.6254789336286  0.6285166162442  0.3998505603590 1.0
C      1  0.5490931405181  0.3167451216581  0.3818971837934 1.0
C      1  0.3254227265159  0.5476774792581  0.3973689646995 1.0
C      1  0.6239932495590  0.3716415828690  0.5944529133652 1.0
C      1  0.5598979390476  0.6868990426931  0.6172750839626 1.0
C      1  0.3192692348188  0.4612260691218  0.6126846365641 1.0
C      1  0.3005645065342  0.5033674918012  0.3140465356670 1.0
C      1  0.5990952264280  0.6675489474883  0.3105929698277 1.0
C      1  0.5713174276946  0.3474826386309  0.3002095374833 1.0
C      1  0.3409800037766  0.4908745792991  0.6946101201368 1.0
C      1  0.6020025879812  0.3308148586967  0.6811870561234 1.0
C      1  0.5822519426925  0.6580952227757  0.7005243374671 1.0
C      1  0.2802039821863  0.3814936144586  0.5593111258303 1.0
C      1  0.5114209820672  0.7573249178916  0.5593224036250 1.0
C      1  0.6970553878134  0.4024399367329  0.5421446020087 1.0
C      1  0.3190435061791  0.6261077033785  0.4444102748572 1.0
C      1  0.5019865066389  0.2454091240511  0.4389133909126 1.0
C      1  0.6993998556151  0.5979014787080  0.4512558663389 1.0
C      1  0.4614565770890  0.7338579039032  0.2251517955979 1.0
C      1  0.7102440404394  0.4157532143504  0.2247654340648 1.0
C      1  0.3071563029347  0.3554328331297  0.2208066877018 1.0
C      1  0.4746021664523  0.2612043276509  0.7793471417104 1.0
C      1  0.7237220717877  0.5903339874280  0.7665774533811 1.0
C      1  0.3265489146867  0.6370055939936  0.7744815638600 1.0
C      1  0.1169227415211  0.5126694295994  0.4681673736754 1.0
C      1  0.7023224488289  0.1755703620504  0.5300128844683 1.0
C      1  0.7065012022837  0.8255701888834  0.4577550595229 1.0
C      1  0.4953079058512  0.4981490195075  0.5838015856263 1.0
C      1  0.4903288863650  0.5018567796735  0.4170280964807 1.0
END
