TITL C-696-7195-8 -10.57 3375.00 -2535.37106006 0 0 309 (C1) n - 1
REM
REM Run started: at 2020.11.26 12:56:47 in /rds/project/t2_vol4/rds-t2-cs072/BORA/CARBON/AIRSS/Generating-Clusters/Str-Search/Higher-Symm
REM VASP from code version vasp.5.4.4.18Apr17-6-g9f103f2a35 (build Oct 11 2019 16:45:47) gamma-only
REM
REM
REM
REM
REM ./C.cell (e5ae0387ce4d49c7c0135a1433873289)
REM AIRSS Version 0.9.1 bugfix July 2018 build 013d7b7c2542+ Fri, 06 Jul 2018 19:26:36 +0100
REM compiler GCC version 4.8.5 20150623 (Red Hat 4.8.5-39)
REM options -cpp -mtune=generic -march=x86-64 -g -O0
REM seed -1813139480 -1692087042 1248882876 82019532 1620574710 -1962834833 722626980 1719987241 -506330590 16604708 2036445890 -1433090951
REM
REM C.POTCAR (d86ddea03c3ceb6dc662c8ad6801f873)
REM 
CELL 1.54180   15.00000   15.00000   15.00000   90.00000   90.00000   90.00000
LATT -1
SFAC C  
C      1  0.5751935879373  0.4854696474596  0.6394927191280 1.0
C      1  0.4072445039792  0.4965878199033  0.3362339158806 1.0
C      1  0.3544446438648  0.3692549385287  0.7321455444026 1.0
C      1  0.6288603523774  0.6113129260874  0.2542573362103 1.0
C      1  0.7017301412055  0.3507001123252  0.4172607741500 1.0
C      1  0.2956893091678  0.6575129695625  0.5927863744277 1.0
C      1  0.2080682076917  0.6958387007770  0.8187828465117 1.0
C      1  0.8055001572572  0.2903277804767  0.1815022789227 1.0
C      1  0.2117885933867  0.6988473922795  0.5490406166591 1.0
C      1  0.7902389855853  0.3014287227700  0.4412044935315 1.0
C      1  0.6441984115151  0.2750108638957  0.1203755697379 1.0
C      1  0.3770977644713  0.7173073906627  0.8827904135994 1.0
C      1  0.4853011150539  0.3873083446439  0.1876163737968 1.0
C      1  0.5709474312772  0.6148672415487  0.8112833829766 1.0
C      1  0.7551216042299  0.7564450375126  0.7052386788999 1.0
C      1  0.2678414967947  0.2718914714116  0.3156538401574 1.0
C      1  0.8521534628293  0.5963268222179  0.5495667491806 1.0
C      1  0.1345549049585  0.4105114895371  0.4474471943917 1.0
C      1  0.7866908870351  0.7468752592023  0.7937640077704 1.0
C      1  0.2301394604139  0.2759508098273  0.2222602970475 1.0
C      1  0.7675902289597  0.5840834933127  0.8603947505414 1.0
C      1  0.1279281211103  0.4382161174149  0.1092634276891 1.0
C      1  0.8877350147012  0.2536639082134  0.6769927650901 1.0
C      1  0.1144456666847  0.7489711253278  0.3322532055673 1.0
C      1  0.2420644206946  0.7351790399858  0.2385193050430 1.0
C      1  0.7512138988693  0.2827820856292  0.7659127309069 1.0
C      1  0.6495979385531  0.2980760921902  0.7578696863990 1.0
C      1  0.3265424178969  0.7161464471198  0.2781120853686 1.0
C      1  0.4502770109914  0.8094035588214  0.2441115644966 1.0
C      1  0.5443668313240  0.1830485223234  0.7546075670367 1.0
C      1  0.4904329721566  0.6455592655201  0.1632981750012 1.0
C      1  0.5013941325672  0.3433402180948  0.8201884360896 1.0
C      1  0.8742789429620  0.7032143940576  0.2107710385877 1.0
C      1  0.1134772692950  0.2914842848929  0.7815173749136 1.0
C      1  0.6891249860701  0.0555150530855  0.3631475095726 1.0
C      1  0.3178646871760  0.9331962264282  0.6368719772763 1.0
C      1  0.4427038295333  0.6407403024660  0.9081751163623 1.0
C      1  0.5857287567519  0.3483469462958  0.0849469966496 1.0
C      1  0.6189523069951  0.5294416355596  0.8018631109814 1.0
C      1  0.3175487208953  0.5168118690035  0.1881702239377 1.0
C      1  0.4679619126667  0.2328153828089  0.2842971103389 1.0
C      1  0.5433348725438  0.7603162457215  0.7175969201757 1.0
C      1  0.7074842463010  0.5147181636872  0.8251134257553 1.0
C      1  0.2361793355960  0.4858318293023  0.2330187496735 1.0
C      1  0.8971301242148  0.8131363212900  0.3450462783234 1.0
C      1  0.0993084094666  0.1764414286368  0.6522491103842 1.0
C      1  0.1407314050598  0.4223413034514  0.3471624699943 1.0
C      1  0.8497015100977  0.6276916817804  0.6505349681390 1.0
C      1  0.3497312176925  0.4381075601603  0.8014828160384 1.0
C      1  0.6395662797314  0.5401335305460  0.1875201657189 1.0
C      1  0.2739126881393  0.5065534205882  0.9203128126544 1.0
C      1  0.7400190719514  0.4811874807568  0.0769917498946 1.0
C      1  0.5675860666535  0.8801365920413  0.5736287394926 1.0
C      1  0.4387615544633  0.1190069826621  0.4333760546854 1.0
C      1  0.7147531423154  0.6560061668913  0.9078337099279 1.0
C      1  0.3164678095909  0.3434439910109  0.0892394523764 1.0
C      1  0.7659743381529  0.8935203868055  0.4377029542008 1.0
C      1  0.2405775547988  0.1096586261131  0.5612883697361 1.0
C      1  0.1918909237049  0.4877271452413  0.4796336210344 1.0
C      1  0.8089216686357  0.5054222434508  0.5290116884604 1.0
C      1  0.5887320018375  0.6573965183033  0.4483684845204 1.0
C      1  0.3082089521743  0.3537634468937  0.5468995569702 1.0
C      1  0.2062268815241  0.7944685829960  0.6725645590762 1.0
C      1  0.8034296591877  0.1898333789352  0.3266481099539 1.0
C      1  0.7344375067441  0.0935918365700  0.6800522239551 1.0
C      1  0.2659605476723  0.9105193917988  0.3218931599195 1.0
C      1  0.1469476167552  0.3769861636096  0.7773412335246 1.0
C      1  0.8535959993815  0.6139547784343  0.2107597130785 1.0
C      1  0.8901489312247  0.5732355636163  0.7352103817239 1.0
C      1  0.0903506292487  0.4509208215565  0.2745836814256 1.0
C      1  0.6854903881448  0.0885485770465  0.5200392787162 1.0
C      1  0.3216295315350  0.9053196111590  0.4787193224415 1.0
C      1  0.6741374140586  0.3145290458796  0.5063023816022 1.0
C      1  0.3437891679019  0.6546857339168  0.5063864994421 1.0
C      1  0.4775478658025  0.5747910123229  0.2325585499859 1.0
C      1  0.4995930870911  0.4156560737787  0.7533949194335 1.0
C      1  0.3272947066479  0.9494582473218  0.3867525362419 1.0
C      1  0.6785776612976  0.0472810227289  0.6147336107703 1.0
C      1  0.5124318765664  0.2451050270281  0.8268803124035 1.0
C      1  0.4809143141714  0.7478380584381  0.1673905303530 1.0
C      1  0.8495555277435  0.5168610540782  0.3547217569902 1.0
C      1  0.1412418631701  0.4799493568935  0.6425176773265 1.0
C      1  0.6768662640445  0.4811489579263  0.3308372980569 1.0
C      1  0.3132890213261  0.5157737504942  0.6677393877819 1.0
C      1  0.0522271570385  0.7044945536903  0.4476920316396 1.0
C      1  0.9530956637128  0.2932382620807  0.5622805399752 1.0
C      1  0.0303188619057  0.5030540122725  0.3213930406940 1.0
C      1  0.9525577300742  0.5089395678491  0.6940996014388 1.0
C      1  0.4023616091518  0.7976935150094  0.8314871263525 1.0
C      1  0.6121931761560  0.1967337889810  0.1720067443310 1.0
C      1  0.6710900778752  0.6999018071903  0.2471060597769 1.0
C      1  0.3160979632262  0.2787517893797  0.7486479557568 1.0
C      1  0.5473505037438  0.6658547308826  0.8974741693153 1.0
C      1  0.4829733999415  0.3337816227136  0.1008361450460 1.0
C      1  0.1970282836593  0.6657425352381  0.1936284461736 1.0
C      1  0.7941000213199  0.3552596702696  0.8087362735822 1.0
C      1  0.5219714154204  0.8702465969304  0.2287595351220 1.0
C      1  0.4787156377559  0.1178218945487  0.7760827166381 1.0
C      1  0.4861894431636  0.0841969393117  0.6234584532683 1.0
C      1  0.5179620191247  0.9111277587173  0.3795929211736 1.0
C      1  0.8450003693532  0.5831618905390  0.8122342556806 1.0
C      1  0.1452204325399  0.4590895006273  0.1936661311113 1.0
C      1  0.7129968366350  0.7103053915974  0.3345054482494 1.0
C      1  0.2754652273368  0.2523119634588  0.6623219326863 1.0
C      1  0.3445048800300  0.6971340769995  0.6691186033181 1.0
C      1  0.6599255251806  0.3043947046677  0.3395898887708 1.0
C      1  0.5451927334659  0.3933985326257  0.4763490264775 1.0
C      1  0.4260684635039  0.6001555051728  0.5191551552997 1.0
C      1  0.4467916326750  0.8071527384178  0.7293191292298 1.0
C      1  0.5655038396801  0.1870463576167  0.2747908345510 1.0
C      1  0.2536883616334  0.1463898442752  0.6577513856527 1.0
C      1  0.7503971690826  0.8796174451490  0.3398033853798 1.0
C      1  0.8616153338898  0.4125037684388  0.2852717836113 1.0
C      1  0.1344160646093  0.5838280755719  0.7142422974237 1.0
C      1  0.3834158936205  0.2876654740246  0.5495502449695 1.0
C      1  0.6239603752083  0.7410493763366  0.4650211635723 1.0
C      1  0.4084423204165  0.7193865121154  0.1055518676128 1.0
C      1  0.5930870314657  0.3054789089173  0.8468854531113 1.0
C      1  0.4275096866534  0.9628734130923  0.3703584041468 1.0
C      1  0.5776434895443  0.0340834140615  0.6313461915935 1.0
C      1  0.0991612646581  0.6536269468774  0.6558826979285 1.0
C      1  0.8910059876895  0.3449938547530  0.3442822809274 1.0
C      1  0.6455011731274  0.7846124451403  0.2202099149334 1.0
C      1  0.3530027373746  0.2011677090169  0.7841753144832 1.0
C      1  0.5765114222793  0.3590690457391  0.9296305535804 1.0
C      1  0.4448992084316  0.6451831360740  0.0563686645851 1.0
C      1  0.8306764311506  0.8401895834991  0.4885090043007 1.0
C      1  0.1726982732700  0.1513034159546  0.5084422285264 1.0
C      1  0.0032466093284  0.6606917520240  0.5118258726543 1.0
C      1  0.9804910881429  0.3463786180867  0.4921687051767 1.0
C      1  0.8291252709135  0.8574404143791  0.2957424394543 1.0
C      1  0.1645886564917  0.1371109125927  0.7048581706567 1.0
C      1  0.7575164064363  0.1309731908291  0.4834410879152 1.0
C      1  0.2659780607755  0.8443505298459  0.5161518153313 1.0
C      1  0.2302062982420  0.3294839226313  0.6123249082526 1.0
C      1  0.7859213908237  0.6633523363670  0.3587567072622 1.0
C      1  0.5601422811934  0.0017410833974  0.4104436997488 1.0
C      1  0.4437881631689  0.9944336307752  0.5897524443881 1.0
C      1  0.3322762180557  0.4292639037741  0.8990563844884 1.0
C      1  0.6766890633142  0.5538007674104  0.0993230402106 1.0
C      1  0.3756904687414  0.2649832469963  0.4516777658361 1.0
C      1  0.6366042149381  0.7472554777785  0.5603561879444 1.0
C      1  0.5167986570468  0.0766525355794  0.1746110655146 1.0
C      1  0.4961515708428  0.9206909363349  0.8244169052786 1.0
C      1  0.8781971830372  0.7810857606852  0.4295655107999 1.0
C      1  0.1171691378304  0.2099127226343  0.5642741450665 1.0
C      1  0.3814745122037  0.5514200764332  0.2618162543823 1.0
C      1  0.5892815029258  0.4582878782888  0.7335386152158 1.0
C      1  0.4567905310155  0.7433972042490  0.3978563223990 1.0
C      1  0.5433116313133  0.2533122760522  0.6053363891411 1.0
C      1  0.1137891140461  0.2164944178882  0.7391703900505 1.0
C      1  0.8739279347864  0.7769578174547  0.2570838699005 1.0
C      1  0.3706614971070  0.6364450968859  0.7406393642162 1.0
C      1  0.6406815775402  0.3603478529836  0.2614001813579 1.0
C      1  0.6543582011130  0.0227296618531  0.4510084500553 1.0
C      1  0.3486251806755  0.9717136368421  0.5496978871912 1.0
C      1  0.3979522700899  0.5983174185141  0.9863721739911 1.0
C      1  0.6279710001433  0.3856790430933  0.0042238309919 1.0
C      1  0.6076475514138  0.5662194344178  0.5951837237830 1.0
C      1  0.3848328900972  0.4103590671757  0.3472914672237 1.0
C      1  0.9506218355098  0.3280900833554  0.6566871380263 1.0
C      1  0.0447891162118  0.6793315623877  0.3507642000545 1.0
C      1  0.8159784901527  0.4634581303654  0.1392968151499 1.0
C      1  0.1958285660876  0.5238405951827  0.8569466015419 1.0
C      1  0.4528257692542  0.9090474593640  0.7445662628468 1.0
C      1  0.5572805077620  0.0847802957803  0.2559285743576 1.0
C      1  0.4616045848444  0.7589814123253  0.5686433252998 1.0
C      1  0.5455853421019  0.2388209629674  0.4358178526317 1.0
C      1  0.1588045113117  0.2663006072952  0.2760441122242 1.0
C      1  0.8621927526509  0.7792174907076  0.7508016826376 1.0
C      1  0.0479406972953  0.4571486801117  0.6008187696175 1.0
C      1  0.9354271300543  0.5545197953703  0.4008124659691 1.0
C      1  0.3104949987770  0.6205665492674  0.2932932851536 1.0
C      1  0.6643030879685  0.3920735163186  0.7291186187103 1.0
C      1  0.5356001603986  0.6263411308211  0.6439346928278 1.0
C      1  0.4674690870134  0.3625210400253  0.3492635549657 1.0
C      1  0.5784747152078  0.5820598032072  0.4997605711220 1.0
C      1  0.4926878579498  0.4519704495123  0.5168864411598 1.0
C      1  0.5081048148376  0.1625000689260  0.4832646234353 1.0
C      1  0.5021634897446  0.8333846629831  0.5209984874495 1.0
C      1  0.5781673923796  0.3022081618328  0.5130257948434 1.0
C      1  0.4273493267776  0.7018295985565  0.4938630503699 1.0
C      1  0.4959106080005  0.5205814363179  0.3756519310963 1.0
C      1  0.4819694330367  0.4663890566347  0.6107798957096 1.0
C      1  0.5460687243099  0.7224585529962  0.6153346271402 1.0
C      1  0.4621296000798  0.2733054995434  0.3874845430488 1.0
C      1  0.2390074030945  0.5187631505822  0.4009473069865 1.0
C      1  0.7706614782535  0.4826310532130  0.6170148243522 1.0
C      1  0.9898079957160  0.4666645400459  0.4096776983572 1.0
C      1  0.9994310427241  0.5419344968621  0.6232036187939 1.0
C      1  0.7194612744503  0.1764986037867  0.1704497042058 1.0
C      1  0.2945093463937  0.8118492052434  0.8301693557297 1.0
C      1  0.2620585472096  0.6037543036111  0.3800820596366 1.0
C      1  0.7408679813932  0.4204316737190  0.6767453888841 1.0
C      1  0.3974385027130  0.5528184165514  0.7002820080386 1.0
C      1  0.5952727743353  0.4386743872193  0.2993175435197 1.0
C      1  0.6178678083329  0.6025325193204  0.0412449448568 1.0
C      1  0.4009529104669  0.3906804137399  0.9540112707276 1.0
C      1  0.4305106447080  0.4894449405075  0.7733407162949 1.0
C      1  0.5399503068080  0.4805372200138  0.2164122272716 1.0
C      1  0.7654859166652  0.5737805228739  0.6569838632774 1.0
C      1  0.2343897999837  0.4464993975555  0.3290676708256 1.0
C      1  0.1774263469855  0.6060055038685  0.7996092920407 1.0
C      1  0.8287570533002  0.3832054768983  0.1982809339407 1.0
C      1  0.6937338984857  0.8336133117820  0.6863054256090 1.0
C      1  0.3190710462438  0.1793795055542  0.3251058440802 1.0
C      1  0.4462190400984  0.3851242191721  0.6734852108960 1.0
C      1  0.5353524141414  0.6014351137485  0.3109024668068 1.0
C      1  0.2681666076752  0.5638284035513  0.6075562068585 1.0
C      1  0.7180176019740  0.4443296194837  0.4024727927091 1.0
C      1  0.5387109578623  0.6843682775370  0.3681683027641 1.0
C      1  0.4511544539327  0.2954135283114  0.6244910105559 1.0
C      1  0.2018549369337  0.8791102785423  0.2816651592135 1.0
C      1  0.7880609833804  0.1336002736804  0.7271938756731 1.0
C      1  0.8225633403467  0.8277040664611  0.5848570939027 1.0
C      1  0.1874334942710  0.1616599900932  0.4142348380299 1.0
C      1  0.4596030814459  0.2320994561738  0.1186204492096 1.0
C      1  0.5553059732483  0.7692144427235  0.8862473623860 1.0
C      1  0.1518988569129  0.4484951285978  0.8338968975079 1.0
C      1  0.8612507457345  0.5377899808458  0.1617816793545 1.0
C      1  0.7269770477839  0.9620543433610  0.5811796693201 1.0
C      1  0.2831826933187  0.0357714829494  0.4192725419307 1.0
C      1  0.5343301228341  0.6263806295648  0.0776451707363 1.0
C      1  0.4863100998870  0.3730504345572  0.9138617003859 1.0
C      1  0.6914379408319  0.6079584952843  0.6206940803841 1.0
C      1  0.2974446135197  0.3693000301065  0.3532331291359 1.0
C      1  0.1314640947401  0.7576781763728  0.4256976570282 1.0
C      1  0.8876522409826  0.2230331662851  0.5872379182233 1.0
C      1  0.7114691502423  0.6838215304607  0.5656010571711 1.0
C      1  0.2893250268544  0.3338073853916  0.4521675469634 1.0
C      1  0.5651360500547  0.8046094651685  0.1752446273576 1.0
C      1  0.4340944301419  0.1832215047238  0.8308467281949 1.0
C      1  0.7432304913951  0.4338600712073  0.7824147771673 1.0
C      1  0.2473475902948  0.5873787244898  0.2187858094299 1.0
C      1  0.0446312143242  0.4240056471786  0.4990085150541 1.0
C      1  0.9175469345002  0.6200778928163  0.4753816484519 1.0
C      1  0.0293201559558  0.6304130129291  0.5985563561279 1.0
C      1  0.9479329362851  0.3758053598822  0.4091464033098 1.0
C      1  0.7642355710323  0.8896106969441  0.6297367580601 1.0
C      1  0.2524736821957  0.1109750518008  0.3697772131607 1.0
C      1  0.3184556139786  0.5607898690236  0.9763603588489 1.0
C      1  0.7054917342392  0.4281445730693  0.0138075236626 1.0
C      1  0.7859686213286  0.6665518783691  0.5165704393283 1.0
C      1  0.1837850244428  0.3167017633117  0.4543621457381 1.0
C      1  0.8361739612425  0.2798561420986  0.8462730672963 1.0
C      1  0.1503256301611  0.7426955786707  0.1616786129825 1.0
C      1  0.5234527299525  0.1628192461590  0.1347501794887 1.0
C      1  0.4892750920741  0.8351943454967  0.8680731329628 1.0
C      1  0.2210795639198  0.7639549845014  0.4751785842248 1.0
C      1  0.8042612210422  0.1933891177056  0.5447437689407 1.0
C      1  0.2618137710593  0.6700989139496  0.4524664782898 1.0
C      1  0.7560389672756  0.2735591950594  0.5235110609509 1.0
C      1  0.6018757674351  0.0190245919188  0.3130388511335 1.0
C      1  0.4031525743443  0.9720247387067  0.6875398477936 1.0
C      1  0.7994975094019  0.5852817747143  0.2961377110320 1.0
C      1  0.1961959666473  0.4047870402260  0.6886140212369 1.0
C      1  0.5374816548515  0.4248744604755  0.3782775612522 1.0
C      1  0.4524647879841  0.5686030291087  0.6186016338417 1.0
C      1  0.6076075374573  0.2305993723631  0.3538124858175 1.0
C      1  0.4019354821191  0.7671269979655  0.6519641944685 1.0
C      1  0.7159722950381  0.9529874558341  0.4892741663848 1.0
C      1  0.2878268386037  0.0439756265379  0.5133596918275 1.0
C      1  0.0052700389505  0.5941798388212  0.3369878428367 1.0
C      1  0.9790301145259  0.4145808424196  0.6680213743195 1.0
C      1  0.6291999547886  0.6373573145184  0.9543134255215 1.0
C      1  0.3952710462471  0.3625324165228  0.0458596381226 1.0
C      1  0.5782166377418  0.9147993004905  0.2970790020490 1.0
C      1  0.4243327586091  0.0749015824314  0.7052017770241 1.0
C      1  0.4666409746988  0.0360688386500  0.4067792226482 1.0
C      1  0.5371900579254  0.9627993802690  0.5941319747527 1.0
C      1  0.1572604842780  0.7261569429540  0.6269745344944 1.0
C      1  0.8419404138479  0.2635646885712  0.3716527507063 1.0
C      1  0.6393867147730  0.3542989594125  0.1721691094654 1.0
C      1  0.3905926551533  0.6424079074349  0.8261644254927 1.0
C      1  0.5484873264291  0.6594030530392  0.7363876185125 1.0
C      1  0.4718687628799  0.3317936789353  0.2570319948564 1.0
C      1  0.2246110444953  0.7756534303842  0.7645563871954 1.0
C      1  0.7890243779454  0.2095116292717  0.2347905768436 1.0
C      1  0.3717221433025  0.2296317352354  0.6323225433028 1.0
C      1  0.6430961230356  0.7682790365466  0.3727899922016 1.0
C      1  0.2858598848783  0.4390423924531  0.7162455584673 1.0
C      1  0.7049198704671  0.5483992947919  0.2723496272848 1.0
C      1  0.8236548066638  0.2222860538981  0.7470082405804 1.0
C      1  0.1641107444667  0.7926199967677  0.2570529407256 1.0
C      1  0.6391271646210  0.8320512160623  0.6028915213708 1.0
C      1  0.3702829936310  0.1763857624752  0.4124290944143 1.0
C      1  0.5117736276413  0.1635048981618  0.5718241218095 1.0
C      1  0.4961590138125  0.8308683691372  0.4314938480093 1.0
C      1  0.7531193758026  0.1233213416964  0.3808070224506 1.0
C      1  0.2624172968650  0.8579707580843  0.6176984067225 1.0
C      1  0.8379322151112  0.7431687226405  0.6555730915233 1.0
C      1  0.1779492553638  0.2522490544564  0.3763015906310 1.0
C      1  0.7222091332623  0.7398300446186  0.8655638562189 1.0
C      1  0.2940712968425  0.2760181312807  0.1471643898272 1.0
C      1  0.1950548934778  0.5163848640380  0.5661786032779 1.0
C      1  0.7954815925259  0.4877369925457  0.4378882509965 1.0
C      1  0.8453776980504  0.6872910644184  0.4384339377851 1.0
C      1  0.1632168104422  0.2885172765221  0.5479652413705 1.0
C      1  0.3725353337885  0.2164186584794  0.1624919551542 1.0
C      1  0.6412385156206  0.7900954307329  0.8466092918536 1.0
C      1  0.3858547126301  0.1853364915352  0.2498492192037 1.0
C      1  0.6238875262914  0.8169774584618  0.7583363098192 1.0
C      1  0.3992755914941  0.7653606093642  0.3126753662981 1.0
C      1  0.5932651433487  0.2375243476192  0.6961261631077 1.0
C      1  0.3494910904107  0.1422866344481  0.6973528818458 1.0
C      1  0.6573343889516  0.8489978346467  0.3068519030354 1.0
C      1  0.2792600662138  0.7350930047242  0.8825982458733 1.0
C      1  0.7395220521599  0.2490583292667  0.1126931993741 1.0
C      1  0.4906978940108  0.5401669488775  0.4723600793754 1.0
END
