TITL C-69359-5796-5 -4.844 3375.00 -794.65725892 0 0 98 (Ci) n - 1
REM
REM Run started: at 2020.11.27 06:32:39 in /rds/project/t2_vol4/rds-t2-cs072/BORA/CARBON/AIRSS/Generating-Clusters/Str-Search/Higher-Symm/C10-100
REM VASP from code version vasp.5.4.4.18Apr17-6-g9f103f2a35 (build Oct 11 2019 16:45:47) gamma-only
REM
REM
REM
REM
REM ./C.cell (f39ce9773e2efe3fa5bbdf770a4156b8)
REM AIRSS Version 0.9.1 bugfix July 2018 build 013d7b7c2542+ Fri, 06 Jul 2018 19:26:36 +0100
REM compiler GCC version 4.8.5 20150623 (Red Hat 4.8.5-39)
REM options -cpp -mtune=generic -march=x86-64 -g -O0
REM seed 1467408583 779083521 -766830156 1480475897 -525565007 -1816395987 95273793 -1379136250 705609173 1256665821 1094854637 -190929056
REM
REM C.POTCAR (d86ddea03c3ceb6dc662c8ad6801f873)
REM 
CELL 1.54180   15.00000   15.00000   15.00000   90.00000   90.00000   90.00000
LATT -1
SFAC C  
C      1  0.4687226241865  0.2411270544763  0.3542244216588 1.0
C      1  0.5312773797625  0.7588729465250  0.6457755755200 1.0
C      1  0.3107986578157  0.4101720896959  0.5868307251250 1.0
C      1  0.6892013475449  0.5898279170367  0.4131692799395 1.0
C      1  0.1730895151384  0.6067559923664  0.5548385536078 1.0
C      1  0.8269104750630  0.3932439811089  0.4451614567591 1.0
C      1  0.5701785821195  0.3880048472687  0.2340295518194 1.0
C      1  0.4298214104541  0.6119951621974  0.7659704569429 1.0
C      1  0.5479374726754  0.4087812255291  0.5181822244893 1.0
C      1  0.4520625388694  0.5912187854584  0.4818177776064 1.0
C      1  0.3440621426407  0.5784273857805  0.7507415963373 1.0
C      1  0.6559378490084  0.4215726333329  0.2492584073275 1.0
C      1  0.6013850710056  0.6149333996212  0.7206552653344 1.0
C      1  0.3986149260759  0.3850666001069  0.2793447276800 1.0
C      1  0.3196567655160  0.5307283796055  0.2683193098162 1.0
C      1  0.6803432328600  0.4692716175408  0.7316806767293 1.0
C      1  0.7291419658514  0.6638667027981  0.3652443928306 1.0
C      1  0.2708580467461  0.3361332947821  0.6347556084113 1.0
C      1  0.3784885878089  0.6587417717552  0.2889997249987 1.0
C      1  0.6215114176653  0.3412582238978  0.7110002619367 1.0
C      1  0.6532833305521  0.3154298179395  0.4391814607806 1.0
C      1  0.3467166743626  0.6845701853383  0.5608185310561 1.0
C      1  0.4481029077062  0.8088089401622  0.5022010209748 1.0
C      1  0.5518970960856  0.1911910603280  0.4977989743240 1.0
C      1  0.6166208215927  0.3368199877235  0.5293379057906 1.0
C      1  0.3833791776706  0.6631800124773  0.4706620807879 1.0
C      1  0.4782204364252  0.4291796031532  0.2395534701454 1.0
C      1  0.5217795608375  0.5708203898661  0.7604465302242 1.0
C      1  0.6745723686256  0.4844977383569  0.5243731960485 1.0
C      1  0.3254276254700  0.5155022618552  0.4756267960692 1.0
C      1  0.4362508113746  0.7064023706667  0.7702329547769 1.0
C      1  0.5637491969073  0.2935976520016  0.2297670352475 1.0
C      1  0.7094071273543  0.3915368680968  0.6675545707472 1.0
C      1  0.2905928792388  0.6084631318965  0.3324454087147 1.0
C      1  0.6501352507300  0.3941876800028  0.3948934514091 1.0
C      1  0.3498647475681  0.6058123202650  0.6051065349204 1.0
C      1  0.4008268535808  0.2508700550099  0.5866936577050 1.0
C      1  0.5991731555912  0.7491299416284  0.4133063467771 1.0
C      1  0.5313896748702  0.2428920599294  0.2865154608318 1.0
C      1  0.4686103209839  0.7571079331144  0.7134845564101 1.0
C      1  0.5671941959461  0.2785398296043  0.6713414511091 1.0
C      1  0.4328058147968  0.7214601663665  0.3286585397447 1.0
C      1  0.7707166665089  0.6084645731674  0.7216993919370 1.0
C      1  0.2292833298156  0.3915354288853  0.2783006274967 1.0
C      1  0.4293766262720  0.7409550811769  0.4257463736883 1.0
C      1  0.5706233720258  0.2590449221109  0.5742536165628 1.0
C      1  0.1725606629918  0.6242591376168  0.4651897559139 1.0
C      1  0.8274393176853  0.3757408543068  0.5348102453158 1.0
C      1  0.3976060180483  0.5740753341785  0.2433295108589 1.0
C      1  0.6023939693117  0.4259246630569  0.7566704807591 1.0
C      1  0.3235111401674  0.2580057094910  0.6367081086682 1.0
C      1  0.6764888796560  0.7419942716573  0.3632918926722 1.0
C      1  0.7922647460889  0.3714075832252  0.6119931715044 1.0
C      1  0.2077353100110  0.6285924074432  0.3880068771924 1.0
C      1  0.6044046324737  0.4646973055020  0.4524131924667 1.0
C      1  0.3955953714292  0.5353026979758  0.5475867874039 1.0
C      1  0.7162278923501  0.5674873496495  0.5011803902937 1.0
C      1  0.2837721000639  0.4325126497576  0.4988196159672 1.0
C      1  0.3271674174174  0.5913901026982  0.4232559149324 1.0
C      1  0.6728325447319  0.4086099093621  0.5767440862474 1.0
C      1  0.4854485865439  0.2974957056298  0.6152615212720 1.0
C      1  0.5145514195049  0.7025042955227  0.3847384736661 1.0
C      1  0.3439252080455  0.2997927206463  0.4271304007137 1.0
C      1  0.6560747870989  0.7002072744899  0.5728696029656 1.0
C      1  0.2043178432373  0.5878715035414  0.6312086462441 1.0
C      1  0.7956821510528  0.4121284984093  0.3687913563295 1.0
C      1  0.2639087983408  0.3571054762941  0.4399070516323 1.0
C      1  0.7360911983356  0.6428945198323  0.5600929575846 1.0
C      1  0.5267400032413  0.4779181140839  0.7863083747445 1.0
C      1  0.4732599661681  0.5220818700698  0.2136916353324 1.0
C      1  0.6027077522951  0.6936224657998  0.6559942101638 1.0
C      1  0.3972922449057  0.3063775296473  0.3440057878577 1.0
C      1  0.3972487249158  0.3750492958074  0.8315145306501 1.0
C      1  0.6027511779282  0.6249506405388  0.1684854450110 1.0
C      1  0.2977065896113  0.3015479844916  0.7213876325211 1.0
C      1  0.7022934318326  0.6984520160475  0.2786124156432 1.0
C      1  0.7767756170330  0.6268457852060  0.6389540011089 1.0
C      1  0.2232243698012  0.3731542031660  0.3610460144917 1.0
C      1  0.3305544875459  0.3323356384908  0.7953778467315 1.0
C      1  0.6694454957789  0.6676643668781  0.2046221649455 1.0
C      1  0.5453477716218  0.5637371708830  0.1727739973400 1.0
C      1  0.4546523167621  0.4362629183090  0.8272259970934 1.0
C      1  0.5247174443792  0.7850834019756  0.5532170721169 1.0
C      1  0.4752825560424  0.2149165985746  0.4467829246910 1.0
C      1  0.4021322758848  0.4459304375299  0.5903021060904 1.0
C      1  0.5978677249561  0.5540695652939  0.4096978708447 1.0
C      1  0.5222269408332  0.6065529814879  0.4201194608540 1.0
C      1  0.4777730599180  0.3934470234851  0.5798805361628 1.0
C      1  0.6028476009427  0.7488416912021  0.5098016044585 1.0
C      1  0.3971523998758  0.2511583075819  0.4901983979803 1.0
C      1  0.6346000857081  0.1544497078383  0.4631701080498 1.0
C      1  0.3653999227026  0.8455502965733  0.5368298911632 1.0
C      1  0.3341063959093  0.7747319030440  0.5731297709268 1.0
C      1  0.6658936169969  0.2252680992608  0.4268702337141 1.0
C      1  0.7106951760016  0.4153677477946  0.3213352932241 1.0
C      1  0.2893048319211  0.5846322544320  0.6786647014424 1.0
C      1  0.3140531172296  0.4355709596701  0.2694180344568 1.0
C      1  0.6859468749714  0.5644290325433  0.7305819604349 1.0
END
