TITL C-69359-5796-34 -2.794 3375.00 -468.00983682 0 0 58 (C1) n - 1
REM
REM Run started: at 2020.11.27 14:06:35 in /rds/project/t2_vol4/rds-t2-cs072/BORA/CARBON/AIRSS/Generating-Clusters/Str-Search/Higher-Symm/C10-100
REM VASP from code version vasp.5.4.4.18Apr17-6-g9f103f2a35 (build Oct 11 2019 16:45:47) gamma-only
REM
REM
REM
REM
REM ./C.cell (f39ce9773e2efe3fa5bbdf770a4156b8)
REM AIRSS Version 0.9.1 bugfix July 2018 build 013d7b7c2542+ Fri, 06 Jul 2018 19:26:36 +0100
REM compiler GCC version 4.8.5 20150623 (Red Hat 4.8.5-39)
REM options -cpp -mtune=generic -march=x86-64 -g -O0
REM seed -657014857 1958322830 -1171564455 352120564 1873479496 -446392231 -1062715567 2129738973 832950489 -1674975217 1347245353 -757843159
REM
REM C.POTCAR (d86ddea03c3ceb6dc662c8ad6801f873)
REM 
CELL 1.54180   15.00000   15.00000   15.00000   90.00000   90.00000   90.00000
LATT -1
SFAC C  
C      1  0.4025920463792  0.3771860953265  0.6302724669760 1.0
C      1  0.3856265849908  0.5527361658921  0.6122763661463 1.0
C      1  0.5290151607706  0.6356745157015  0.6094309687848 1.0
C      1  0.6682262997404  0.5335611025530  0.6199695806541 1.0
C      1  0.5838731541717  0.3728908646025  0.6277210718552 1.0
C      1  0.3791257581823  0.6097267022256  0.3603326767768 1.0
C      1  0.3617410712038  0.4388248195680  0.3669105648984 1.0
C      1  0.5201595198183  0.3527083755202  0.3674045193445 1.0
C      1  0.6530750704268  0.4598745240171  0.3705500521339 1.0
C      1  0.5607763263390  0.6205023402436  0.3710357925295 1.0
C      1  0.3613175443525  0.3142470761460  0.5667407783302 1.0
C      1  0.3151974232983  0.5937851788512  0.5487442457943 1.0
C      1  0.4996073281790  0.7190337941031  0.5604178968689 1.0
C      1  0.7482253581467  0.5410312681949  0.5669471905071 1.0
C      1  0.6200129453697  0.3096760559910  0.5641378179112 1.0
C      1  0.3471910900643  0.6888027153767  0.4110377300894 1.0
C      1  0.2963123476155  0.4082091176099  0.4289486408304 1.0
C      1  0.5059759468878  0.2785410261406  0.4256763901314 1.0
C      1  0.7219006444834  0.4367258552482  0.4318416424079 1.0
C      1  0.5963356964414  0.6915803828822  0.4200722742167 1.0
C      1  0.3463608957185  0.2067266249060  0.3907053573064 1.0
C      1  0.2294578181814  0.5493390092587  0.3572675859436 1.0
C      1  0.4733411709632  0.7998173844906  0.4196320533458 1.0
C      1  0.7595102600923  0.6758718738974  0.4688946529594 1.0
C      1  0.6664210936104  0.2901211748726  0.3701938204622 1.0
C      1  0.3285416058495  0.7566148239061  0.5674268861097 1.0
C      1  0.2800832556827  0.4461107588233  0.5717265283968 1.0
C      1  0.4905864694710  0.2150466645692  0.5714506002650 1.0
C      1  0.7747457281551  0.3801798168560  0.5693577612189 1.0
C      1  0.6942722930171  0.6859448643393  0.6096427764895 1.0
C      1  0.4125805202779  0.7470634060309  0.5769616633248 1.0
C      1  0.7563688436161  0.6341096649422  0.5533129098713 1.0
C      1  0.7079034699546  0.3227207975624  0.5343349993961 1.0
C      1  0.4083709452994  0.2401393908541  0.5359038389982 1.0
C      1  0.2573080608396  0.5252791834912  0.5234964300401 1.0
C      1  0.4174389468018  0.2371250445439  0.4325493630314 1.0
C      1  0.7114831978901  0.3368579266582  0.4367596702681 1.0
C      1  0.6871658573467  0.6984779061235  0.4334084510680 1.0
C      1  0.4005267737378  0.7640534437442  0.3985078741428 1.0
C      1  0.2394057539457  0.4958031245729  0.4324377231725 1.0
C      1  0.4666647696265  0.5806339996548  0.6720490230615 1.0
C      1  0.6268190589878  0.6244276619479  0.6230335694875 1.0
C      1  0.6112552042258  0.4651652088194  0.6441115650351 1.0
C      1  0.4916662359095  0.3944569139542  0.6497528936555 1.0
C      1  0.3514009276447  0.4592195223725  0.6285027199068 1.0
C      1  0.4558259695031  0.4232443778529  0.3493941388345 1.0
C      1  0.6137128177195  0.3689659429622  0.3519425945441 1.0
C      1  0.5927181961049  0.5283540877648  0.3500096087636 1.0
C      1  0.4692303032364  0.5930409616016  0.3490832808983 1.0
C      1  0.3238378786891  0.5313925021439  0.3459953517362 1.0
C      1  0.5299813159752  0.7451210307782  0.4732754183472 1.0
C      1  0.2992318887575  0.3691433961209  0.5161787114834 1.0
C      1  0.5496701923637  0.2590419829576  0.5141652888856 1.0
C      1  0.3233889068035  0.6807912871103  0.5042703619257 1.0
C      1  0.7629053030441  0.4604334483702  0.5155102407368 1.0
C      1  0.5013172201745  0.5040263024820  0.3318102491730 1.0
C      1  0.5157357675610  0.4913834575852  0.6550896327528 1.0
C      1  0.4840935663610  0.5462821548847  0.5742259377747 1.0
END
