TITL C-69359-5796-38 -4.267 3375.00 -771.89750646 0 0 95 (C1) n - 1
REM
REM Run started: at 2020.11.27 15:58:35 in /rds/project/t2_vol4/rds-t2-cs072/BORA/CARBON/AIRSS/Generating-Clusters/Str-Search/Higher-Symm/C10-100
REM VASP from code version vasp.5.4.4.18Apr17-6-g9f103f2a35 (build Oct 11 2019 16:45:47) gamma-only
REM
REM
REM
REM
REM ./C.cell (f39ce9773e2efe3fa5bbdf770a4156b8)
REM AIRSS Version 0.9.1 bugfix July 2018 build 013d7b7c2542+ Fri, 06 Jul 2018 19:26:36 +0100
REM compiler GCC version 4.8.5 20150623 (Red Hat 4.8.5-39)
REM options -cpp -mtune=generic -march=x86-64 -g -O0
REM seed -597386686 -1215355015 -1726161004 -1634938945 1227410847 -766629916 -1679853229 -1054784896 -153739782 1536080529 -1143134330 2116923383
REM
REM C.POTCAR (d86ddea03c3ceb6dc662c8ad6801f873)
REM 
CELL 1.54180   15.00000   15.00000   15.00000   90.00000   90.00000   90.00000
LATT -1
SFAC C  
C      1  0.3108555828675  0.4160978976368  0.3284083171816 1.0
C      1  0.3682688419950  0.5924959968958  0.7024037916862 1.0
C      1  0.3247921614987  0.6005151257491  0.3128632456478 1.0
C      1  0.3600212104120  0.4101169098182  0.7348919021639 1.0
C      1  0.3754156265138  0.3500630743884  0.2894660485339 1.0
C      1  0.4537429185450  0.6421345274186  0.7309832199524 1.0
C      1  0.4089535276296  0.6405772698373  0.2729551395816 1.0
C      1  0.4418345030876  0.3571629120546  0.7535690095498 1.0
C      1  0.7893457485073  0.3547996586056  0.5544865010423 1.0
C      1  0.7833701300554  0.5601941277512  0.3997805215932 1.0
C      1  0.8117680095119  0.5768779094740  0.5542724856973 1.0
C      1  0.7866741006755  0.3969688516540  0.4122450069543 1.0
C      1  0.2323212447084  0.6399659394034  0.4644747591845 1.0
C      1  0.2648416492465  0.4253258072673  0.5835661125416 1.0
C      1  0.2511390226066  0.4278924375864  0.4944886160562 1.0
C      1  0.2673423259463  0.6092289642227  0.5526430078347 1.0
C      1  0.6272381781145  0.6040268584185  0.3947514206596 1.0
C      1  0.6289038053675  0.3578228499693  0.5896081476414 1.0
C      1  0.6248380331306  0.3334532911301  0.4054775026947 1.0
C      1  0.6550736622030  0.5806498209713  0.5839499943632 1.0
C      1  0.4455051087223  0.6956480313922  0.3553567916650 1.0
C      1  0.4614419333392  0.3069735231776  0.6642504547023 1.0
C      1  0.3957425969968  0.2876196515774  0.3578658102402 1.0
C      1  0.4787953475004  0.6855615075118  0.6449124628513 1.0
C      1  0.9550432448293  0.2179755189899  0.4311309170294 1.0
C      1  0.6601291418827  0.7369698709782  0.4831265098597 1.0
C      1  0.7450335130704  0.7043721164216  0.4983394648658 1.0
C      1  0.8905847259961  0.2670343348931  0.4544285541224 1.0
C      1  0.6384452345177  0.6544777681196  0.6571452371234 1.0
C      1  0.5563914667394  0.3165291694837  0.3362226405859 1.0
C      1  0.6109984903718  0.3187016209889  0.6899982751925 1.0
C      1  0.6139773774059  0.7029943634565  0.4037176159872 1.0
C      1  0.2939339571248  0.6663469592271  0.3959067721811 1.0
C      1  0.3246993547998  0.3776610290834  0.6418927454624 1.0
C      1  0.2806295898996  0.3735040353997  0.4201945778482 1.0
C      1  0.3221450095310  0.6516961152153  0.6206851624741 1.0
C      1  0.5274809583839  0.7407129095246  0.3943005855893 1.0
C      1  0.5459544149308  0.2600520765739  0.6742545907476 1.0
C      1  0.4863029001652  0.2715377712769  0.3821355936554 1.0
C      1  0.5726703464731  0.7177469381828  0.6249320878364 1.0
C      1  0.5947598842286  0.4095501880892  0.7348253998532 1.0
C      1  0.5421063942180  0.5443936098926  0.2576185631726 1.0
C      1  0.6057667663527  0.5756332796432  0.7231577804226 1.0
C      1  0.5351270726023  0.3804112215358  0.2626733551758 1.0
C      1  0.3794981267633  0.2954146812248  0.6072471643924 1.0
C      1  0.3699504299338  0.7180479795186  0.4178998781265 1.0
C      1  0.3934982881300  0.7116545508621  0.5925138552910 1.0
C      1  0.3417073205331  0.3005029230052  0.4364986013357 1.0
C      1  0.4549581901121  0.5661594371313  0.2280853237488 1.0
C      1  0.5078978597742  0.4153155202683  0.7869588729884 1.0
C      1  0.4396329757788  0.3968347040201  0.2382804373550 1.0
C      1  0.5145923146784  0.5848352267902  0.7712711594813 1.0
C      1  0.3785600914371  0.4637890102280  0.3847345767763 1.0
C      1  0.4119324687096  0.5370662993998  0.6295064983727 1.0
C      1  0.3828064703159  0.5531120285498  0.3768723885031 1.0
C      1  0.4067620046378  0.4440471825304  0.6528453372402 1.0
C      1  0.4627764010793  0.6049201096273  0.4020808084178 1.0
C      1  0.4809406884882  0.3998079026854  0.6116852406860 1.0
C      1  0.4570814023716  0.4279813675387  0.4237453855974 1.0
C      1  0.4934552873397  0.5896750813587  0.6017918427398 1.0
C      1  0.5436954144288  0.5642371920804  0.3553628815403 1.0
C      1  0.5686876561409  0.4332086644243  0.6357524760612 1.0
C      1  0.5309474464099  0.4778342968007  0.4027523186660 1.0
C      1  0.5770857945023  0.5378885754264  0.6315965916619 1.0
C      1  0.7030803058343  0.5499229318590  0.3544921820992 1.0
C      1  0.7255679155158  0.3868996456408  0.6067988018797 1.0
C      1  0.6992535649062  0.3907110832058  0.3770176383669 1.0
C      1  0.7513470524342  0.5420366943943  0.6077420886403 1.0
C      1  0.8255620058042  0.3292038305438  0.4766925807278 1.0
C      1  0.7898399291116  0.6263318438379  0.4757134806891 1.0
C      1  0.5038942182453  0.7683983612233  0.4834976662240 1.0
C      1  0.4979646623703  0.2716721193028  0.4795047228826 1.0
C      1  0.4714321406252  0.5803628355001  0.5017461495766 1.0
C      1  0.4654561620971  0.4404171989644  0.5206566599114 1.0
C      1  0.3977070526608  0.4870475117301  0.2183262440325 1.0
C      1  0.4665433476584  0.5032107606023  0.7985399132531 1.0
C      1  0.5918734730582  0.4591791557115  0.2603434571411 1.0
C      1  0.6648792762519  0.4849238236079  0.7330550190447 1.0
C      1  0.7303564164941  0.4684465304402  0.6684439272306 1.0
C      1  0.6709769040357  0.4639076557269  0.3182919577475 1.0
C      1  0.4116834813893  0.7455319242882  0.5033697412168 1.0
C      1  0.4003975928363  0.2803230821675  0.5166492450928 1.0
C      1  0.5889772545833  0.3123541970516  0.4967716896513 1.0
C      1  0.5834863669833  0.7611426462755  0.5413853836131 1.0
C      1  0.3132728588977  0.5016875839013  0.2634896781579 1.0
C      1  0.3736646129764  0.5052778344559  0.7706271320830 1.0
C      1  0.5465009336285  0.5059707705225  0.4907689633401 1.0
C      1  0.8352998905680  0.4790466259583  0.4080731174904 1.0
C      1  0.0017039310622  0.5191869983612  0.4344130599341 1.0
C      1  0.3935186161091  0.5199887149376  0.5334318547422 1.0
C      1  0.0805421644552  0.5583344201109  0.4408309375637 1.0
C      1  0.1519231908065  0.6000384164592  0.4450728332958 1.0
C      1  0.2879796196027  0.5108373712949  0.5375396385576 1.0
C      1  0.9254643709084  0.4885710449821  0.4273480081790 1.0
C      1  0.6246944438205  0.5661240125836  0.4923699894489 1.0
END
