TITL C-70125-6939-1 -7.846 3375.00 -1350.16155228 0 0 163 (C1) n - 1
REM
REM Run started: at 2020.12.07 00:34:18 in /rds/project/t2_vol4/rds-t2-cs072/BORA/CARBON/AIRSS/Generating-Clusters/Str-Search/Higher-Symm/C100-200
REM VASP from code version vasp.5.4.4.18Apr17-6-g9f103f2a35 (build Oct 11 2019 16:45:47) gamma-only
REM
REM
REM
REM
REM ./C.cell (533062f00bc710175b3da973d35f2034)
REM AIRSS Version 0.9.1 bugfix July 2018 build 013d7b7c2542+ Fri, 06 Jul 2018 19:26:36 +0100
REM compiler GCC version 4.8.5 20150623 (Red Hat 4.8.5-39)
REM options -cpp -mtune=generic -march=x86-64 -g -O0
REM seed -1740113324 -422513808 1115389875 -2118228706 597897959 -671307077 -2102251015 -614139181 -1873771749 84485360 -473901988 1831224176
REM
REM C.POTCAR (d86ddea03c3ceb6dc662c8ad6801f873)
REM 
CELL 1.54180   15.00000   15.00000   15.00000   90.00000   90.00000   90.00000
LATT -1
SFAC C  
C      1  0.6944662613899  0.7806386919914  0.6484576943940 1.0
C      1  0.7346253151799  0.4814461919923  0.1679083080990 1.0
C      1  0.7019935636185  0.2176754937788  0.6993098066034 1.0
C      1  0.3071218244484  0.7696909237001  0.6268150526445 1.0
C      1  0.3234967971297  0.4839050222531  0.1883142475022 1.0
C      1  0.3060445578562  0.2367247480373  0.6758827036073 1.0
C      1  0.5436229865873  0.6428451695841  0.7863730033384 1.0
C      1  0.5508764020720  0.6876075390405  0.2132206927006 1.0
C      1  0.5584367639076  0.1917008208257  0.4973123153444 1.0
C      1  0.4462703068271  0.6403930484793  0.7836353663492 1.0
C      1  0.4572322671683  0.6727906703737  0.2241544846655 1.0
C      1  0.4620449098919  0.2002193145929  0.4993831586224 1.0
C      1  0.3475926980720  0.8663728957036  0.4612537528069 1.0
C      1  0.3571106283063  0.2859900419078  0.1977390701140 1.0
C      1  0.3485917208374  0.3363867584995  0.8453938110946 1.0
C      1  0.6439228376461  0.8647150963304  0.4655084993125 1.0
C      1  0.6529287023732  0.2833748847661  0.1939202500108 1.0
C      1  0.6483688555330  0.3385112064770  0.8533306725124 1.0
C      1  0.3958623979550  0.4189562276391  0.8156661031810 1.0
C      1  0.3878335661980  0.7980902519472  0.4009724370316 1.0
C      1  0.3892375921196  0.2732893018386  0.2914800755061 1.0
C      1  0.6118226566299  0.4245209010199  0.8179385743628 1.0
C      1  0.5999705573623  0.8057110884649  0.3971831204593 1.0
C      1  0.6074364922016  0.2602419815429  0.2803954116817 1.0
C      1  0.6456993309895  0.4591198575555  0.1360973576165 1.0
C      1  0.6189912730997  0.2025292791701  0.7410824832837 1.0
C      1  0.6119130103226  0.8290548822603  0.6381547547572 1.0
C      1  0.4030856164283  0.4495018976324  0.1386648443660 1.0
C      1  0.3819120968667  0.2055810587072  0.7317241933495 1.0
C      1  0.3840810803276  0.8227430092402  0.6257434104974 1.0
C      1  0.2646662826357  0.5293001335942  0.4642157577095 1.0
C      1  0.2493229183209  0.4476232644115  0.4940870812893 1.0
C      1  0.2329572194845  0.5215348493247  0.5545149938722 1.0
C      1  0.6560528977081  0.5607268616457  0.3834126514532 1.0
C      1  0.6523367133053  0.4480583369028  0.5079327563632 1.0
C      1  0.6545788406774  0.5379135196399  0.4799537252556 1.0
C      1  0.4567850296113  0.4894294036566  0.8586350789245 1.0
C      1  0.4474551391117  0.8063795605994  0.3190583358600 1.0
C      1  0.4503079003902  0.2057497393559  0.3368196578609 1.0
C      1  0.5485648990412  0.4930167604613  0.8572630578079 1.0
C      1  0.5391583801212  0.8168391015528  0.3154960780135 1.0
C      1  0.5438448757649  0.1965695873221  0.3303574794875 1.0
C      1  0.8957178280348  0.3911436135406  0.5694963849822 1.0
C      1  0.8664945934521  0.5645159700750  0.5099726661285 1.0
C      1  0.8692248659832  0.5159884919877  0.4261842173779 1.0
C      1  0.0980574852465  0.4541662317947  0.5657836073257 1.0
C      1  0.1310667781616  0.5544819531376  0.5662711120360 1.0
C      1  0.0826047517630  0.5040733424410  0.3469704104045 1.0
C      1  0.4656825666112  0.6548700334675  0.5099657594539 1.0
C      1  0.4688416715098  0.4294268188063  0.3479755344928 1.0
C      1  0.4659385692983  0.4158331124803  0.6394889358805 1.0
C      1  0.5558050961901  0.6651057707066  0.5083357133791 1.0
C      1  0.5657053245789  0.4289276188154  0.3266708959630 1.0
C      1  0.5611889277859  0.4131309690474  0.6494379682643 1.0
C      1  0.4180295589327  0.4917017731973  0.4002155217911 1.0
C      1  0.4127854322516  0.4141691211202  0.5585882156054 1.0
C      1  0.4127616073050  0.5842819256650  0.5456199345232 1.0
C      1  0.6250346319810  0.4915639472455  0.3365609272334 1.0
C      1  0.6354606724573  0.4124556386443  0.5976880704919 1.0
C      1  0.6293977281804  0.6101996103475  0.5420228693144 1.0
C      1  0.1823600396138  0.7034494510705  0.5743008109887 1.0
C      1  0.1767543912080  0.4497323264301  0.2568974661572 1.0
C      1  0.1772473426168  0.3386465818421  0.6541711255387 1.0
C      1  0.8156741273299  0.7086148784416  0.5640600071270 1.0
C      1  0.8310242050109  0.4457707706087  0.2882043343896 1.0
C      1  0.8118004266854  0.3180511257340  0.6763702823632 1.0
C      1  0.6034034402070  0.6115884686724  0.1842380884760 1.0
C      1  0.6022632592771  0.1909182126766  0.5820358165635 1.0
C      1  0.5844250915755  0.7102214380881  0.7366776102295 1.0
C      1  0.4338389377271  0.5846904954667  0.2029544834688 1.0
C      1  0.4253540956760  0.2045845655849  0.5847041905518 1.0
C      1  0.4009532582068  0.7025632602971  0.7287084659095 1.0
C      1  0.3142360748439  0.6827458237406  0.6713163953205 1.0
C      1  0.3597176625444  0.5464139707276  0.2482895002222 1.0
C      1  0.3496193475752  0.2577799259049  0.5948269147855 1.0
C      1  0.6720385831891  0.6971227613673  0.6947938241805 1.0
C      1  0.7589007326371  0.5622638783483  0.2120644711042 1.0
C      1  0.6934868094553  0.2294514765213  0.6028426088239 1.0
C      1  0.2658560001719  0.3507468945574  0.5062321871628 1.0
C      1  0.2941666906984  0.5291311130734  0.6360060850455 1.0
C      1  0.2935668766569  0.5875643498160  0.3955525727928 1.0
C      1  0.6836398046658  0.3595305249073  0.4843507080529 1.0
C      1  0.7378472433777  0.6210350491742  0.6898682907880 1.0
C      1  0.6831036394355  0.6419087592554  0.3273990989701 1.0
C      1  0.8524598477927  0.4017429743775  0.6565537619956 1.0
C      1  0.8473135317214  0.6629589494056  0.4885809516528 1.0
C      1  0.8520114964676  0.4277991393023  0.3817635927251 1.0
C      1  0.1316394135517  0.4238871034666  0.6587073516656 1.0
C      1  0.1408859421957  0.6457392120840  0.5121629215705 1.0
C      1  0.1276680661314  0.4136675281476  0.3339788380133 1.0
C      1  0.7217552502198  0.2885616966202  0.8269486633101 1.0
C      1  0.7167053529230  0.8495677321527  0.5209591832295 1.0
C      1  0.7316111814497  0.3329998393222  0.1855611580720 1.0
C      1  0.2745826144676  0.3000218418388  0.8021329579776 1.0
C      1  0.2732806509788  0.8549440152563  0.5151655025974 1.0
C      1  0.2895051073216  0.3428039016107  0.1738840562620 1.0
C      1  0.6694438019814  0.5079368654335  0.7850727353872 1.0
C      1  0.6631169399426  0.7473775079120  0.3368909598403 1.0
C      1  0.6672719348500  0.2557574989114  0.3674234436965 1.0
C      1  0.3375765901250  0.4995705371909  0.7875152121151 1.0
C      1  0.3283728300900  0.7337372635739  0.3445182488868 1.0
C      1  0.3284013102017  0.2717039971749  0.3779576192288 1.0
C      1  0.7582496131339  0.7858551858362  0.5772984932037 1.0
C      1  0.7818867971613  0.4080385299247  0.2133019180721 1.0
C      1  0.7657758006288  0.2725138564037  0.7439763855806 1.0
C      1  0.2389141630629  0.7815773516254  0.5640423140709 1.0
C      1  0.2506524072002  0.4241078076685  0.2060500332667 1.0
C      1  0.2384485085257  0.2932909423468  0.7139292995667 1.0
C      1  0.3634737917372  0.8804770258309  0.5527307945623 1.0
C      1  0.3804750031953  0.3589313967509  0.1383359085849 1.0
C      1  0.3593048431961  0.2491896123310  0.8106036054775 1.0
C      1  0.6276781593771  0.8748832587176  0.5571494310112 1.0
C      1  0.6491838063569  0.3630686869949  0.1429835693433 1.0
C      1  0.6319090069898  0.2498526987335  0.8231693366735 1.0
C      1  0.5545641999721  0.1843804551164  0.6698324140454 1.0
C      1  0.5416631218791  0.7826096044310  0.6910989174148 1.0
C      1  0.5732469377360  0.5272532345965  0.1439646870759 1.0
C      1  0.4601120091353  0.1863090382366  0.6710092142661 1.0
C      1  0.4469674907061  0.7780753568894  0.6862633618068 1.0
C      1  0.4770336845615  0.5167772996857  0.1492428652978 1.0
C      1  0.6643037873966  0.6278570176116  0.6224048601679 1.0
C      1  0.6857667740057  0.6146599721900  0.2309288998650 1.0
C      1  0.6905249354938  0.3316821634911  0.5769456264883 1.0
C      1  0.3537264043262  0.5998865269944  0.6154319844525 1.0
C      1  0.3623286614002  0.5446862815735  0.3471582449039 1.0
C      1  0.3505209540493  0.3419548358400  0.5501263260742 1.0
C      1  0.2028755044526  0.6586021647484  0.6590677561740 1.0
C      1  0.1400329886164  0.5385874172075  0.2786505227421 1.0
C      1  0.1821335896444  0.3266018362925  0.5604327285985 1.0
C      1  0.8136389683446  0.6395701288489  0.6312991255531 1.0
C      1  0.8254038622608  0.5417877119125  0.2785930435957 1.0
C      1  0.7827569735758  0.2877121327657  0.5853565751662 1.0
C      1  0.5514696348416  0.3415082289063  0.2876057396407 1.0
C      1  0.5513918573274  0.3908747489277  0.7441673114118 1.0
C      1  0.5431824194199  0.7501811243917  0.4549755516862 1.0
C      1  0.4563581357560  0.3491697666517  0.3014682922911 1.0
C      1  0.4575872397027  0.3941294779887  0.7373093298653 1.0
C      1  0.4523342708783  0.7453203803539  0.4597897858413 1.0
C      1  0.8179487260124  0.4888149142201  0.6724955631677 1.0
C      1  0.8244281550011  0.6691585189854  0.3958008568357 1.0
C      1  0.8198216276003  0.3491515539611  0.4269512992045 1.0
C      1  0.1682643281507  0.4953080630875  0.7087576798313 1.0
C      1  0.1598347661442  0.6535720211019  0.4170888579607 1.0
C      1  0.1585783422833  0.3642531722142  0.4049878551945 1.0
C      1  0.5931413496241  0.7598147265935  0.2620296153615 1.0
C      1  0.5959593378877  0.2047673206784  0.4096015567009 1.0
C      1  0.5950351769215  0.5653095377865  0.8166442395004 1.0
C      1  0.4016330258296  0.7323350710021  0.2785911305132 1.0
C      1  0.4083431876938  0.2189127588452  0.4197897772828 1.0
C      1  0.4052438495710  0.5591303618043  0.8161618601434 1.0
C      1  0.1514288235397  0.5796067513722  0.6627138179768 1.0
C      1  0.1242039048593  0.5881552339469  0.3602966782646 1.0
C      1  0.1260302869441  0.3838855463416  0.5036013195666 1.0
C      1  0.8476748093567  0.5558725113800  0.6055906491541 1.0
C      1  0.8486517553419  0.5829608063681  0.3584268426622 1.0
C      1  0.8460748295739  0.3306774715565  0.5183201761031 1.0
C      1  0.2693032394615  0.5002660601753  0.7194670077216 1.0
C      1  0.2593955325455  0.6715368015584  0.3821676629600 1.0
C      1  0.2521499253238  0.3159616191124  0.4125809492188 1.0
C      1  0.7433336726128  0.5281445282096  0.7276965465680 1.0
C      1  0.7504038844745  0.7072424435344  0.3514616389283 1.0
C      1  0.7269992493325  0.3148406086624  0.4091797917675 1.0
C      1  0.4186068098278  0.4947151162603  0.5008410219752 1.0
END
