TITL C-70125-6939-5 -7.577 3375.00 -1358.42039287 0 0 167 (C1) n - 1
REM
REM Run started: at 2020.12.07 03:03:29 in /rds/project/t2_vol4/rds-t2-cs072/BORA/CARBON/AIRSS/Generating-Clusters/Str-Search/Higher-Symm/C100-200
REM VASP from code version vasp.5.4.4.18Apr17-6-g9f103f2a35 (build Oct 11 2019 16:45:47) gamma-only
REM
REM
REM
REM
REM ./C.cell (533062f00bc710175b3da973d35f2034)
REM AIRSS Version 0.9.1 bugfix July 2018 build 013d7b7c2542+ Fri, 06 Jul 2018 19:26:36 +0100
REM compiler GCC version 4.8.5 20150623 (Red Hat 4.8.5-39)
REM options -cpp -mtune=generic -march=x86-64 -g -O0
REM seed 881028185 1735682079 -160256048 1061095091 -1847979874 -1263439649 -977361250 1259274060 1178056228 2135357924 290823233 -634079803
REM
REM C.POTCAR (d86ddea03c3ceb6dc662c8ad6801f873)
REM 
CELL 1.54180   15.00000   15.00000   15.00000   90.00000   90.00000   90.00000
LATT -1
SFAC C  
C      1  0.3194636035053  0.2306456360365  0.3345775227967 1.0
C      1  0.3356139585795  0.2331747297467  0.6761464742197 1.0
C      1  0.6798133312534  0.2306692399606  0.6664983823028 1.0
C      1  0.6725226621063  0.2289102518256  0.3221372364144 1.0
C      1  0.3148765035728  0.7776000217810  0.3340128961698 1.0
C      1  0.3369934188682  0.7715266135769  0.6845799905608 1.0
C      1  0.6780443037260  0.7706320018704  0.6571366751272 1.0
C      1  0.6708765755109  0.7780372606431  0.3158201975930 1.0
C      1  0.4246325192190  0.7050904144594  0.7646109831804 1.0
C      1  0.7593016362197  0.7047414322180  0.5727333011105 1.0
C      1  0.5770574722295  0.7085318731673  0.2429589490616 1.0
C      1  0.2247741447602  0.7168027798516  0.4224627821291 1.0
C      1  0.4216942549452  0.3065558065918  0.7572594730119 1.0
C      1  0.7617872217243  0.3080955365958  0.5796255169414 1.0
C      1  0.5820157797609  0.2608705196757  0.2209582813468 1.0
C      1  0.2172351453646  0.2636907918811  0.4183213648316 1.0
C      1  0.4509017285942  0.3089689277275  0.6023427267048 1.0
C      1  0.5948428901121  0.2782863921581  0.5245364392964 1.0
C      1  0.5495321527841  0.3269452748446  0.3642795428815 1.0
C      1  0.3849483776030  0.2900880059610  0.4637009918017 1.0
C      1  0.4706172696213  0.7146372135307  0.6109957856525 1.0
C      1  0.6093068697033  0.6877900090989  0.5322137699106 1.0
C      1  0.5440290516092  0.7130283138601  0.3967127253345 1.0
C      1  0.3877761428300  0.7337752753605  0.4676757376085 1.0
C      1  0.4892834042029  0.1889286002677  0.3482337760806 1.0
C      1  0.3526368620858  0.1941966576070  0.5134372599148 1.0
C      1  0.5209689369159  0.1915270769266  0.6684738266898 1.0
C      1  0.6820364772895  0.1908019424596  0.4823741328708 1.0
C      1  0.4860971456971  0.8311491564744  0.3308989070608 1.0
C      1  0.3435759971901  0.8241303179148  0.5093008507871 1.0
C      1  0.5174943107499  0.8045806885469  0.6486665329319 1.0
C      1  0.6670538461928  0.8138704273827  0.4729481237265 1.0
C      1  0.4368215430166  0.2459176980317  0.6763573484727 1.0
C      1  0.6864872256225  0.2463692064109  0.5643597347588 1.0
C      1  0.5704421882191  0.2371458666849  0.3178240632621 1.0
C      1  0.3097536635582  0.2283511857533  0.4326426166191 1.0
C      1  0.4354912909912  0.7665622196566  0.6887571272335 1.0
C      1  0.6746252430709  0.7575287347267  0.5554627905452 1.0
C      1  0.5696344233852  0.7718465223294  0.3220210475136 1.0
C      1  0.3058745338373  0.7745047609615  0.4319430901063 1.0
C      1  0.2153707650860  0.6938651726492  0.5865446867366 1.0
C      1  0.5894001421049  0.6924855020466  0.7753897815558 1.0
C      1  0.7881509005434  0.6985806265926  0.4101855207229 1.0
C      1  0.4139537379217  0.6947811708644  0.2212961983957 1.0
C      1  0.2157033645706  0.3118709633314  0.5743004539933 1.0
C      1  0.5851375958827  0.3052158203407  0.7865532529217 1.0
C      1  0.7912284608228  0.3095742007074  0.4173933020535 1.0
C      1  0.4235822424770  0.3103252667967  0.2245875567125 1.0
C      1  0.8087295341726  0.6069578471663  0.3670319203625 1.0
C      1  0.3709183908188  0.6031897819719  0.2085315618853 1.0
C      1  0.2014156957746  0.6019602974345  0.6260621689326 1.0
C      1  0.6344293584076  0.6017051709315  0.7926510214682 1.0
C      1  0.8104836223291  0.3987518572622  0.3706787813042 1.0
C      1  0.3777002315121  0.3922349126973  0.2057326998135 1.0
C      1  0.1957606921618  0.3928714811768  0.6205810370360 1.0
C      1  0.6336154819446  0.3888367006829  0.8083507303704 1.0
C      1  0.2906735717598  0.4749362446797  0.5027026767277 1.0
C      1  0.5007819650449  0.4480781282334  0.6921711179065 1.0
C      1  0.6909586632348  0.4549596318403  0.5173875129786 1.0
C      1  0.5031711422138  0.4747357541919  0.3461827196655 1.0
C      1  0.2913793905720  0.5680478647006  0.5027227966611 1.0
C      1  0.4943915836713  0.5404138618301  0.6815560898636 1.0
C      1  0.6947925698320  0.5458996457813  0.5029784558362 1.0
C      1  0.4933666526074  0.5666089897766  0.3250428909985 1.0
C      1  0.7762246880341  0.4502379854417  0.2998266633872 1.0
C      1  0.3066322059138  0.4468144080892  0.2592198480266 1.0
C      1  0.2531533536402  0.4441425467340  0.6907279624228 1.0
C      1  0.7009429680188  0.4447639175707  0.7503301063098 1.0
C      1  0.7754194706648  0.5512436714202  0.2965585873468 1.0
C      1  0.2968169861619  0.5525624535107  0.2428124494569 1.0
C      1  0.2465192431713  0.5482147309430  0.6974552119158 1.0
C      1  0.7064764739968  0.5507334817363  0.7574768650771 1.0
C      1  0.5699169091730  0.5440764632373  0.8441460346685 1.0
C      1  0.8565628978741  0.5510257089216  0.4352236695821 1.0
C      1  0.4393350824093  0.5438477176129  0.1660528645212 1.0
C      1  0.1443994718475  0.5488295294818  0.5629896284511 1.0
C      1  0.5673755377840  0.4496991603993  0.8496807214655 1.0
C      1  0.8568562988827  0.4564640104822  0.4385594018249 1.0
C      1  0.4442487286776  0.4497594014825  0.1630013970076 1.0
C      1  0.1477303021136  0.4518602109380  0.5549384115800 1.0
C      1  0.5132458533261  0.3132469859148  0.1847967359550 1.0
C      1  0.1777659113738  0.3174225971247  0.4836345676477 1.0
C      1  0.4941621371372  0.3207519498297  0.8213143353963 1.0
C      1  0.8247096321208  0.3242186449130  0.5058887946173 1.0
C      1  0.5009411283208  0.6856891719856  0.1862267507706 1.0
C      1  0.1698441857817  0.6924695290815  0.5015092941382 1.0
C      1  0.5023285534067  0.6795668699213  0.8150251648283 1.0
C      1  0.8207746923836  0.6870568296534  0.4988299301917 1.0
C      1  0.5988140503670  0.3366283277325  0.4477303924349 1.0
C      1  0.4449923051436  0.3244260667298  0.3867845638945 1.0
C      1  0.3710675230631  0.3314474743378  0.5511257853199 1.0
C      1  0.5404167859505  0.3343505440437  0.5875111453084 1.0
C      1  0.6033967965326  0.6521938340460  0.4414685939310 1.0
C      1  0.4450123243249  0.7032005603553  0.3930094800820 1.0
C      1  0.3850272168474  0.6952116256058  0.5576246487367 1.0
C      1  0.5428023727961  0.6564218678697  0.5886710229297 1.0
C      1  0.7648418098216  0.7382782881689  0.6684801349785 1.0
C      1  0.6745432926050  0.7341949139193  0.2339425636675 1.0
C      1  0.2313733278027  0.7394160365754  0.3199731244859 1.0
C      1  0.3247797865785  0.7295355528006  0.7666685038133 1.0
C      1  0.7663211038261  0.2607776631428  0.6727512988494 1.0
C      1  0.6770141714683  0.2510227623340  0.2294695584641 1.0
C      1  0.2296398069044  0.2562760180775  0.3211778154560 1.0
C      1  0.3285687588793  0.2657240595162  0.7609244027425 1.0
C      1  0.2907481141647  0.5453870110950  0.7873948323613 1.0
C      1  0.7945408677091  0.5493049314996  0.7109348775020 1.0
C      1  0.7101173573525  0.5442691472591  0.2179769025414 1.0
C      1  0.2061535470636  0.5503604311769  0.2835709866553 1.0
C      1  0.2879334860473  0.4516423853267  0.7990967074607 1.0
C      1  0.8065628534010  0.4567529920125  0.7142654289739 1.0
C      1  0.7092989070818  0.4507021502782  0.2225764266154 1.0
C      1  0.1995679922012  0.4562709436890  0.2864010012890 1.0
C      1  0.5781980988974  0.1775856248748  0.4965880481535 1.0
C      1  0.4980841033822  0.1586564850434  0.4354426445734 1.0
C      1  0.4426633394458  0.1505284298389  0.5169146273148 1.0
C      1  0.5180154702708  0.1505139091589  0.5782104792309 1.0
C      1  0.5752820054755  0.8512227801470  0.4781176458129 1.0
C      1  0.4926089684977  0.8666361466498  0.4176980602067 1.0
C      1  0.4356418915742  0.8641350000389  0.5007129850311 1.0
C      1  0.5157456590721  0.8533731807971  0.5582049283139 1.0
C      1  0.4082588375469  0.7598312442480  0.3043161732191 1.0
C      1  0.3037637217131  0.7524406490586  0.5946132231430 1.0
C      1  0.5977634221330  0.7620013808518  0.7040092945890 1.0
C      1  0.7182166551449  0.7724456991327  0.3984369716274 1.0
C      1  0.4111543053306  0.2548058256196  0.3085371669320 1.0
C      1  0.3024080287704  0.2567824884001  0.5873024631916 1.0
C      1  0.5966866625330  0.2316586527317  0.7158985203838 1.0
C      1  0.7220953214392  0.2374823609897  0.4040387196732 1.0
C      1  0.5571937106476  0.6072420825972  0.2634556281468 1.0
C      1  0.2348520361398  0.6140695164474  0.4387689584325 1.0
C      1  0.4426340198299  0.5976387933666  0.7430537298419 1.0
C      1  0.7476514916292  0.6018218259875  0.5597789413842 1.0
C      1  0.5742208478662  0.4211146816826  0.3107655820546 1.0
C      1  0.2714779198645  0.4445477761189  0.4145721891319 1.0
C      1  0.4138191149681  0.4102425437635  0.7201386330777 1.0
C      1  0.7303549476161  0.4075299893495  0.5924576667772 1.0
C      1  0.5230031622139  0.5926917019404  0.1583257718920 1.0
C      1  0.1310644552819  0.6028529860221  0.4812899917391 1.0
C      1  0.4846841747586  0.5917459842146  0.8507621682144 1.0
C      1  0.8598346908107  0.5995473879902  0.5193244890856 1.0
C      1  0.5300549107782  0.4031029878571  0.1565973254831 1.0
C      1  0.1372340344945  0.4051205787868  0.4702425272417 1.0
C      1  0.4802758302359  0.4041833031756  0.8597250903421 1.0
C      1  0.8646352538516  0.4087898190856  0.5217548302448 1.0
C      1  0.4284027782493  0.4260306499059  0.3924996845747 1.0
C      1  0.3583225686228  0.4304887182651  0.5566759342292 1.0
C      1  0.5715421342234  0.4022784872772  0.6439484033103 1.0
C      1  0.6322919654114  0.4194464102049  0.4562492827466 1.0
C      1  0.4411147170752  0.6057614251312  0.3877291323286 1.0
C      1  0.3702625619584  0.6032937939502  0.5375914307656 1.0
C      1  0.5242116582058  0.5645778217729  0.5959499528538 1.0
C      1  0.6389845800329  0.5686852623653  0.4274659456137 1.0
C      1  0.8195934197441  0.5547456152624  0.6079548189045 1.0
C      1  0.6080719061568  0.5493538670102  0.2027746090108 1.0
C      1  0.1703422281055  0.5610546428673  0.3861268989660 1.0
C      1  0.3939640024131  0.5503380001445  0.8144280741045 1.0
C      1  0.8220614011761  0.4523925882958  0.6076624200689 1.0
C      1  0.6039133475410  0.4455230445588  0.2135294978119 1.0
C      1  0.1770279956194  0.4573398959698  0.3892723229148 1.0
C      1  0.3955581833275  0.4492862299410  0.8148663213098 1.0
C      1  0.3466451925400  0.4437713735112  0.6551175108129 1.0
C      1  0.6049140378999  0.4816539045660  0.3889853137789 1.0
C      1  0.6619794348684  0.4227092804607  0.6607145756343 1.0
C      1  0.3373759182281  0.4406315288512  0.3543116433235 1.0
C      1  0.4336713986450  0.5624580067036  0.4748021281629 1.0
C      1  0.4337525253952  0.4625639111822  0.4908111424331 1.0
C      1  0.5085405205062  0.5162271835740  0.5192404773081 1.0
END
