TITL C-70158-9832-1 -13.142 3375.00 -2543.91519017 0 0 307 (C1) n - 1
REM
REM Run started: at 2020.12.13 07:16:57 in /rds/project/t2_vol4/rds-t2-cs072/BORA/CARBON/AIRSS/Generating-Clusters/Str-Search/Higher-Symm/C200-350
REM VASP from code version vasp.5.4.4.18Apr17-6-g9f103f2a35 (build Oct 11 2019 16:45:47) gamma-only
REM
REM
REM
REM
REM ./C.cell (8a36a0f86d45ee02852e7beefdfb7796)
REM AIRSS Version 0.9.1 bugfix July 2018 build 013d7b7c2542+ Fri, 06 Jul 2018 19:26:36 +0100
REM compiler GCC version 4.8.5 20150623 (Red Hat 4.8.5-39)
REM options -cpp -mtune=generic -march=x86-64 -g -O0
REM seed -2050737133 -2069003992 1675933114 8788425 1248409804 1672243842 -2057879564 -1218237021 1678073088 917760678 -877728058 1686229788
REM
REM C.POTCAR (d86ddea03c3ceb6dc662c8ad6801f873)
REM 
CELL 1.54180   15.00000   15.00000   15.00000   90.00000   90.00000   90.00000
LATT -1
SFAC C  
C      1  0.7173498726851  0.4907524944166  0.3566822087245 1.0
C      1  0.6882153439707  0.4132053367130  0.4195737022999 1.0
C      1  0.7368020282192  0.4417425270728  0.5770739480529 1.0
C      1  0.7482195730664  0.6068575226139  0.5547076189219 1.0
C      1  0.7502742360968  0.6423778151975  0.4621002510201 1.0
C      1  0.1779969538377  0.4798724825621  0.5973439836560 1.0
C      1  0.2257888525779  0.4044955773673  0.5412493100116 1.0
C      1  0.2382279707808  0.4173914923452  0.4384235900762 1.0
C      1  0.2813166360238  0.5424971446236  0.3744422802378 1.0
C      1  0.2482528300605  0.6671427876852  0.4864176732204 1.0
C      1  0.8395033278532  0.8715835817508  0.4984225668132 1.0
C      1  0.7828334142082  0.5613642391647  0.1453335982623 1.0
C      1  0.7917483494146  0.1446479767772  0.2989589984885 1.0
C      1  0.8722022558729  0.1924939228643  0.6973064062774 1.0
C      1  0.8411118462900  0.6195284881125  0.8342132063088 1.0
C      1  0.1903150679733  0.8577110621095  0.5447720158036 1.0
C      1  0.1919979811982  0.5660743930464  0.8401194458239 1.0
C      1  0.1743498683277  0.1557868410288  0.6978389179644 1.0
C      1  0.1331057638843  0.1723993932817  0.3089450724022 1.0
C      1  0.1616706062744  0.6108361897930  0.1694462254558 1.0
C      1  0.1970201876503  0.1408740999684  0.3759846904943 1.0
C      1  0.2244797297254  0.2170499977385  0.7557627886768 1.0
C      1  0.2251428069422  0.6589507285781  0.8319248678840 1.0
C      1  0.2262699776325  0.8655075840356  0.4561828308280 1.0
C      1  0.1889671612293  0.5258036938710  0.1535266987753 1.0
C      1  0.8084562810599  0.1647844846317  0.6292989999151 1.0
C      1  0.7570178115695  0.2071428855723  0.2310183121266 1.0
C      1  0.7686218550611  0.6585181403906  0.1524233338564 1.0
C      1  0.8055581687706  0.8800754679160  0.5886949846404 1.0
C      1  0.7949803367970  0.5405536505672  0.8598113610050 1.0
C      1  0.8316525764957  0.1762421535131  0.7865498157773 1.0
C      1  0.7829674707221  0.7058246274790  0.9486574764732 1.0
C      1  0.7769728516235  0.9191517164258  0.4405905266903 1.0
C      1  0.6913683769212  0.5545044261848  0.0168637257514 1.0
C      1  0.7193589081861  0.0742390325246  0.3085751095757 1.0
C      1  0.1749788081318  0.1579766561779  0.2196113665747 1.0
C      1  0.2139444230736  0.6788159336033  0.1261458111566 1.0
C      1  0.2230834872106  0.9837939319933  0.6567836514101 1.0
C      1  0.2824587213425  0.5446512104018  0.9725462883495 1.0
C      1  0.2275736756608  0.0714928596216  0.6701832686219 1.0
C      1  0.3549651976659  0.3792972108723  0.3366908920276 1.0
C      1  0.3388232356080  0.3157131780269  0.4997376459729 1.0
C      1  0.3689138848392  0.4993238166755  0.6854779054000 1.0
C      1  0.4235562609712  0.6911747105053  0.5868680704045 1.0
C      1  0.3701907354337  0.6879765711522  0.3111041525592 1.0
C      1  0.5861056398460  0.3903610639027  0.7381694549307 1.0
C      1  0.6583029323511  0.3103348185170  0.5048954981165 1.0
C      1  0.6279412778767  0.4758006000859  0.2944241263611 1.0
C      1  0.6867802820773  0.7106809071162  0.4279458114713 1.0
C      1  0.6825828566030  0.6334433081179  0.6884809639702 1.0
C      1  0.7334524762194  0.1287123302420  0.6751302097436 1.0
C      1  0.7113038690444  0.5550454237211  0.9148568228216 1.0
C      1  0.7204733873950  0.9220772006783  0.5899252305992 1.0
C      1  0.6998925720353  0.7044650762896  0.1027241789037 1.0
C      1  0.6727077929574  0.1767474597057  0.2054405419849 1.0
C      1  0.2767209004582  0.1143157897724  0.3315482127190 1.0
C      1  0.2639058433761  0.5358102174564  0.0795505560763 1.0
C      1  0.3022064152436  0.9214398379348  0.4486870615384 1.0
C      1  0.2809216428421  0.7031969559539  0.8953017062954 1.0
C      1  0.3123120271483  0.1900559282626  0.7845037813279 1.0
C      1  0.7012981586099  0.9418110624071  0.4943247541805 1.0
C      1  0.6545488384428  0.6433186372284  0.0473950761246 1.0
C      1  0.6481322896943  0.0973373972968  0.2516074077836 1.0
C      1  0.7430242075943  0.1479068580480  0.7682351432427 1.0
C      1  0.7047421843038  0.6673926751798  0.9024599184705 1.0
C      1  0.3307572337462  0.9374331715951  0.5394276381893 1.0
C      1  0.3072504984876  0.6472482643053  0.9750951223002 1.0
C      1  0.3696537641414  0.1389928193236  0.7283245064072 1.0
C      1  0.2652022190471  0.1380425945528  0.2385451051205 1.0
C      1  0.2743427852969  0.6381385793449  0.0688550914518 1.0
C      1  0.2423051497589  0.3037069297721  0.5402342727567 1.0
C      1  0.1578791938783  0.4467642282225  0.6893306608808 1.0
C      1  0.2060426129986  0.6654752531591  0.5768286914324 1.0
C      1  0.2950915324529  0.6425036640941  0.3536389698333 1.0
C      1  0.2590804072994  0.3583362490291  0.3574512538363 1.0
C      1  0.7367330541931  0.3133157013352  0.4496201849556 1.0
C      1  0.7963429832781  0.4536645382698  0.3006204909109 1.0
C      1  0.8260715872918  0.6755196221828  0.4009873314721 1.0
C      1  0.7877756175077  0.6410002125998  0.6514106790874 1.0
C      1  0.7484172879241  0.4253677516361  0.6741271935165 1.0
C      1  0.8811434129991  0.6104975866241  0.6885019432407 1.0
C      1  0.9018623174299  0.7182011822829  0.4478315859308 1.0
C      1  0.8797397851891  0.4981753433532  0.2687561684156 1.0
C      1  0.8817077443107  0.2507778354347  0.3958791158851 1.0
C      1  0.9025058060689  0.3623623823428  0.6963059305961 1.0
C      1  0.0713441093179  0.6337599075424  0.2939971947223 1.0
C      1  0.1142799602613  0.7089774977915  0.5558926050832 1.0
C      1  0.0839741428396  0.4986200738161  0.7252984280200 1.0
C      1  0.0927622948586  0.2493048983186  0.5813634071993 1.0
C      1  0.0971385985791  0.3427369220974  0.3097989069901 1.0
C      1  0.5657927224159  0.4355403886472  0.9367197541118 1.0
C      1  0.5946833300608  0.9200744442847  0.7278057373343 1.0
C      1  0.6027099702308  0.8423147422894  0.1293397985627 1.0
C      1  0.5509172753928  0.2496981023605  0.1085437880768 1.0
C      1  0.5746778795935  0.0510782828698  0.6086873277999 1.0
C      1  0.4139742280045  0.4362870477303  0.0665931180508 1.0
C      1  0.4209183116591  0.9441445989653  0.2830804599933 1.0
C      1  0.3997871706207  0.8309726727907  0.8758260531922 1.0
C      1  0.4164746632953  0.2481982802093  0.9025308014729 1.0
C      1  0.4468693620447  0.0638767701240  0.4044588352651 1.0
C      1  0.1798045346381  0.2376079501477  0.5269263372281 1.0
C      1  0.2180678385353  0.3924994114542  0.7294527225979 1.0
C      1  0.2538318537583  0.7179561775980  0.6532458726142 1.0
C      1  0.2329605049665  0.7088678860160  0.4048286980730 1.0
C      1  0.1787403198422  0.4082774780432  0.3003207270245 1.0
C      1  0.8047668281700  0.2529111151551  0.4614930842272 1.0
C      1  0.7603548308575  0.3802541813959  0.2577335158265 1.0
C      1  0.7889795056853  0.6794739532272  0.3173668507595 1.0
C      1  0.7757373600565  0.7360064007012  0.6317658818060 1.0
C      1  0.8234663260139  0.4177882232299  0.7291175472113 1.0
C      1  0.9230730568320  0.4914393031536  0.4149834713908 1.0
C      1  0.9046650743190  0.4055431957082  0.4519518882945 1.0
C      1  0.9049200479796  0.4156382920057  0.5446236061397 1.0
C      1  0.8889011812065  0.5119876649113  0.5632303613760 1.0
C      1  0.9491247981828  0.5563335524129  0.4834362562734 1.0
C      1  0.0783552792949  0.4879698499915  0.5696645465973 1.0
C      1  0.0614585642877  0.4017593859991  0.5181475145734 1.0
C      1  0.0601085856223  0.4221788592761  0.4304155888896 1.0
C      1  0.0940642529565  0.5145238807906  0.4078431791084 1.0
C      1  0.0571480785237  0.5549464341706  0.4994711595649 1.0
C      1  0.3069487975531  0.4265716512567  0.8607158558672 1.0
C      1  0.2893388676143  0.8162812100102  0.6715729171801 1.0
C      1  0.2684093906042  0.7969976264241  0.2281914935580 1.0
C      1  0.2767005120069  0.3032626442836  0.1759323519458 1.0
C      1  0.3496638938970  0.1349519768476  0.5687452812223 1.0
C      1  0.6719999641820  0.4218301893561  0.1407065707078 1.0
C      1  0.7654122908009  0.8659009194096  0.2758246818285 1.0
C      1  0.7422811332443  0.7724170058514  0.7994982037002 1.0
C      1  0.7108974918329  0.3070438797902  0.8382538889390 1.0
C      1  0.6492342839257  0.1329704360784  0.4433918078189 1.0
C      1  0.5933345576421  0.2643030871626  0.9238074245087 1.0
C      1  0.5917170606529  0.8075289374733  0.8669498624980 1.0
C      1  0.5808510923707  0.8650006800447  0.2982026040870 1.0
C      1  0.5103441104160  0.4163991749192  0.1067462880611 1.0
C      1  0.5176096434937  0.1414202993764  0.3627405907711 1.0
C      1  0.3938006162301  0.2703716083762  0.0977391706719 1.0
C      1  0.4107697196582  0.8501540004626  0.1347792047856 1.0
C      1  0.4209316212932  0.8918543983172  0.7198643485433 1.0
C      1  0.4682543955467  0.4103674607041  0.8933899675219 1.0
C      1  0.5097583505833  0.1418403427480  0.6260261895466 1.0
C      1  0.9354817606916  0.5485447005661  0.6416060146005 1.0
C      1  0.9652550261013  0.6551446554152  0.4788754365174 1.0
C      1  0.9499478685742  0.5155309483149  0.3283653665190 1.0
C      1  0.9391263859942  0.3285478687396  0.3985552549618 1.0
C      1  0.9516693864799  0.3616051232909  0.6085268758265 1.0
C      1  0.0385687589460  0.5595355187207  0.3316357931724 1.0
C      1  0.0485687479140  0.6524795703151  0.5175645749925 1.0
C      1  0.0223191262716  0.5124729208377  0.6534083123703 1.0
C      1  0.0311818508377  0.3239899256213  0.5699931653974 1.0
C      1  0.0216107164873  0.3603848879154  0.3673608383994 1.0
C      1  0.5540396316936  0.8810309735753  0.2057704227295 1.0
C      1  0.5489195770908  0.3359904941669  0.0607880293930 1.0
C      1  0.5578558238676  0.0178893784526  0.5147151358097 1.0
C      1  0.5872013147881  0.3447659200654  0.9802938329448 1.0
C      1  0.5518907560985  0.8707738988374  0.8020427282952 1.0
C      1  0.4557079378247  0.8753117935054  0.8068013305155 1.0
C      1  0.4262190123882  0.3350513134230  0.9459521641114 1.0
C      1  0.4663103256451  0.0196575857029  0.4958516150023 1.0
C      1  0.3962849894244  0.3447205460225  0.0296826899597 1.0
C      1  0.4580765653336  0.9019757500757  0.2053266381273 1.0
C      1  0.3428408217607  0.6656949504649  0.6537850282695 1.0
C      1  0.4089837409634  0.7454852849229  0.3662460471457 1.0
C      1  0.4003954093522  0.5162457151601  0.2749559855701 1.0
C      1  0.3374904703488  0.2971683430163  0.3972571921594 1.0
C      1  0.3121081863354  0.4119541755885  0.6994089906182 1.0
C      1  0.6901077404039  0.6583059162146  0.3417406422459 1.0
C      1  0.6852307310479  0.7383937225310  0.5971709674922 1.0
C      1  0.6599229364336  0.4491591415766  0.7093731475714 1.0
C      1  0.6001321340586  0.2714599828756  0.5732308526141 1.0
C      1  0.6607455200570  0.3997936286022  0.2417569513110 1.0
C      1  0.4507965793180  0.8271327303318  0.9554311071551 1.0
C      1  0.5508863583787  0.9244336951624  0.3774567240610 1.0
C      1  0.4389984326013  0.5190664070548  0.0085745103053 1.0
C      1  0.4914408210946  0.9972086229435  0.3340486627046 1.0
C      1  0.4862131127795  0.1902407010099  0.9166437304205 1.0
C      1  0.5526016876737  0.8369835836316  0.0495857560485 1.0
C      1  0.4526796652320  0.9555382763242  0.6564572123847 1.0
C      1  0.5335692048398  0.5196952911064  0.9910027155935 1.0
C      1  0.5442970260120  0.9798638966160  0.6737383247984 1.0
C      1  0.4773924799531  0.1980994242939  0.1067152584593 1.0
C      1  0.6267224819444  0.2543837960741  0.1690514563660 1.0
C      1  0.6596128130916  0.1152259528780  0.6103063049503 1.0
C      1  0.6525433044631  0.4656056888531  0.8836271230459 1.0
C      1  0.6721820092755  0.8805219350543  0.6777264294836 1.0
C      1  0.6862080613180  0.7926919937832  0.1406556015656 1.0
C      1  0.3426992927276  0.2535593011146  0.8492801525896 1.0
C      1  0.3538195297614  0.1190358621956  0.3984896874316 1.0
C      1  0.3312105851562  0.4653278261112  0.1210084087690 1.0
C      1  0.3484935689402  0.8970897954014  0.3506094000812 1.0
C      1  0.3148293933503  0.7878433249042  0.8557717174806 1.0
C      1  0.5962668697872  0.3157152231483  0.2543277375856 1.0
C      1  0.5941299275626  0.1922855933076  0.6125218495628 1.0
C      1  0.6121266200307  0.4704330571119  0.7957518954906 1.0
C      1  0.6274353970840  0.8055848654202  0.6207809830856 1.0
C      1  0.6196848087863  0.6952333973510  0.2850092289501 1.0
C      1  0.3598132206964  0.3428432346284  0.6786201107570 1.0
C      1  0.3832003786935  0.2139990824302  0.3685565809498 1.0
C      1  0.3808351010343  0.5094009807637  0.1916169523505 1.0
C      1  0.4155075801607  0.8297842248128  0.3920241230149 1.0
C      1  0.3974734619141  0.7048512182618  0.7273269661016 1.0
C      1  0.4044828202281  0.5767996740429  0.4810778492360 1.0
C      1  0.4389889363643  0.4970171338874  0.4333689423716 1.0
C      1  0.3881410329523  0.4805639302908  0.5183875185111 1.0
C      1  0.4282414545546  0.4777582750601  0.6057193107887 1.0
C      1  0.4718342146146  0.6299434621526  0.5334077372027 1.0
C      1  0.5702232548530  0.6152758781137  0.5264713269298 1.0
C      1  0.5157827116150  0.4628142496080  0.6018305116406 1.0
C      1  0.5546508928073  0.4219417960899  0.5233603886638 1.0
C      1  0.5398947988881  0.4787564551316  0.4382744357705 1.0
C      1  0.5993466459724  0.5614158517000  0.4544826814914 1.0
C      1  0.4603754977047  0.1641950099801  0.7137710883908 1.0
C      1  0.3757342882093  0.5748735891198  0.9772164683015 1.0
C      1  0.4125763995090  0.9748429958914  0.5665526918974 1.0
C      1  0.4545228080636  0.8407978130657  0.0531282024457 1.0
C      1  0.3976121339349  0.1741302497790  0.0755782927024 1.0
C      1  0.5709313295552  0.0704895046215  0.3133173199495 1.0
C      1  0.5950766200840  0.5810684043017  0.0154188903454 1.0
C      1  0.6207654348852  0.9775839603991  0.4456452839659 1.0
C      1  0.5484667165582  0.8191092981385  0.9517884962539 1.0
C      1  0.5641131963120  0.1731722040214  0.9493020148336 1.0
C      1  0.4299249041564  0.5273232283854  0.7711640825914 1.0
C      1  0.4527669946873  0.7759957800021  0.6095585923924 1.0
C      1  0.4029691731227  0.7106013881512  0.2190192991184 1.0
C      1  0.4097621575251  0.3424731572435  0.2593507737543 1.0
C      1  0.4317682143421  0.2789753445408  0.5508334787462 1.0
C      1  0.5701130849011  0.5337831391778  0.2215416573827 1.0
C      1  0.6225033092224  0.7736720622105  0.4249706028189 1.0
C      1  0.6258182738409  0.6697229909886  0.7573305243010 1.0
C      1  0.5595981065166  0.2999752979438  0.7599054788767 1.0
C      1  0.5747713900513  0.2832737373604  0.4417774038906 1.0
C      1  0.6021122160839  0.7803696290837  0.3269553167826 1.0
C      1  0.5788184643515  0.4638625325687  0.1446799393844 1.0
C      1  0.5799807172458  0.1870629048067  0.4241431371959 1.0
C      1  0.6156845583535  0.2804826763649  0.8347427143407 1.0
C      1  0.6560263845157  0.7346134716094  0.8344813590898 1.0
C      1  0.3914025001409  0.8053156447922  0.6834862441063 1.0
C      1  0.4047478065486  0.4569313094042  0.8455898130062 1.0
C      1  0.4364232859519  0.1763953509678  0.5651415452250 1.0
C      1  0.3730619938800  0.3045672670316  0.1865649505072 1.0
C      1  0.3567109967562  0.7831940272759  0.1814575959668 1.0
C      1  0.5913238903498  0.4235548438821  0.3721689540579 1.0
C      1  0.6581886215766  0.4120661141851  0.5185829812455 1.0
C      1  0.5655478458785  0.4699151425781  0.6793389938719 1.0
C      1  0.6548884219198  0.6407100678216  0.5876475127374 1.0
C      1  0.6900365591186  0.5753044015480  0.4049542608881 1.0
C      1  0.3092054667983  0.5729517275296  0.6535471791818 1.0
C      1  0.3154998533654  0.4187423360616  0.5029814027384 1.0
C      1  0.3728621478019  0.4796923181904  0.3582395883846 1.0
C      1  0.3143277278701  0.6041936570826  0.4476566987684 1.0
C      1  0.2287756432603  0.5679607651603  0.6104362147651 1.0
C      1  0.3191574921986  0.1051823940335  0.6519787584238 1.0
C      1  0.2510859164464  0.5034857706501  0.8900547611984 1.0
C      1  0.2577135492686  0.9032251432348  0.6107703888311 1.0
C      1  0.1984697696237  0.7394962199010  0.1989367195661 1.0
C      1  0.2411107414980  0.2198454552919  0.1897996585818 1.0
C      1  0.6490630038466  0.0539827012475  0.3826785659627 1.0
C      1  0.7235682009434  0.5019659923519  0.0960346559310 1.0
C      1  0.7764587897810  0.9040619727419  0.3485580329546 1.0
C      1  0.7935430896919  0.7040930666732  0.8515222917594 1.0
C      1  0.7582792106926  0.2294539370401  0.8192971441776 1.0
C      1  0.7947070935391  0.7134443810800  0.2246271048304 1.0
C      1  0.7686763237138  0.3003084294511  0.1986819965626 1.0
C      1  0.7854515263835  0.1811141800431  0.5326419799191 1.0
C      1  0.8002604236858  0.4494476573087  0.8241317717512 1.0
C      1  0.8185437703725  0.8188337496580  0.6598090389553 1.0
C      1  0.2200558855565  0.7168648773106  0.7522324471901 1.0
C      1  0.2161664471769  0.3117258103553  0.7863756714655 1.0
C      1  0.2143499683636  0.1614047553571  0.4705652765793 1.0
C      1  0.1959520280216  0.4427914058555  0.2035120350447 1.0
C      1  0.2222330030798  0.8026745905485  0.3847676526906 1.0
C      1  0.7001181150341  0.3178339800189  0.1354700287093 1.0
C      1  0.7060055033594  0.1359751625911  0.5215896984028 1.0
C      1  0.7303703883049  0.3988118372329  0.8616303808115 1.0
C      1  0.7502830138693  0.8317483233206  0.7290111783554 1.0
C      1  0.7519912321365  0.8011239693321  0.2106426292974 1.0
C      1  0.2843997451794  0.3310027546309  0.8486579335389 1.0
C      1  0.3017902002278  0.1321667081297  0.4856115640329 1.0
C      1  0.2597025469106  0.3945744805763  0.1575045370430 1.0
C      1  0.2724341365660  0.8389947983902  0.3115982219732 1.0
C      1  0.2649562989716  0.7967122973896  0.7705838646443 1.0
C      1  0.5720737650203  0.6419102286206  0.2246971898988 1.0
C      1  0.5653874216668  0.3309726824869  0.3542716794866 1.0
C      1  0.5223281223756  0.3180110554783  0.5220252696138 1.0
C      1  0.5358986723661  0.5271901114383  0.7564469454347 1.0
C      1  0.5413457546124  0.8029572029919  0.5762924506895 1.0
C      1  0.4491280460423  0.6383018629681  0.7713906587190 1.0
C      1  0.4302216302744  0.3014066354597  0.6521843001781 1.0
C      1  0.4624600341629  0.2132450736219  0.3236187527641 1.0
C      1  0.4675119661185  0.5562321310122  0.2193649463068 1.0
C      1  0.4959542407519  0.8609057027295  0.4306613171161 1.0
C      1  0.8903394685492  0.8030289761744  0.4716099710725 1.0
C      1  0.8559905149333  0.5317306393411  0.1894402572533 1.0
C      1  0.8597103849867  0.1778317254533  0.3484513000227 1.0
C      1  0.9002344887762  0.2759745409925  0.7039422191860 1.0
C      1  0.9113278264469  0.6215717467995  0.7737768196801 1.0
C      1  0.1254297007252  0.7977097747528  0.5598145442183 1.0
C      1  0.1141877908334  0.5440397484275  0.7977129153236 1.0
C      1  0.1083614540603  0.1903644739092  0.6473111317086 1.0
C      1  0.1066394842769  0.2559960007731  0.3073004705886 1.0
C      1  0.1287503827282  0.6712168326029  0.2379564389536 1.0
C      1  0.4860617905273  0.2592844746208  0.7229326031159 1.0
C      1  0.5423775357022  0.6256824632106  0.7631774526998 1.0
C      1  0.4803431631652  0.6531502525613  0.2058966794183 1.0
C      1  0.4975337130883  0.3035448336160  0.2876771759168 1.0
C      1  0.5537584891410  0.8056144202653  0.4821437852964 1.0
C      1  0.1934840192822  0.4871941502612  0.3803584451432 1.0
C      1  0.7878500694596  0.5175051432971  0.5563676901530 1.0
END
