TITL C-70363-394-1 -10.401 3375.00 -1985.14900169 0 0 239 (Cs) n - 1
REM
REM Run started: at 2020.11.24 05:17:22 in /rds/project/t2_vol4/rds-t2-cs072/BORA/CARBON/AIRSS/Generating-Clusters/Str-Search/Higher-Symm
REM VASP from code version vasp.5.4.4.18Apr17-6-g9f103f2a35 (build Oct 11 2019 16:45:47) gamma-only
REM
REM
REM
REM
REM ./C.cell (e5ae0387ce4d49c7c0135a1433873289)
REM AIRSS Version 0.9.1 bugfix July 2018 build 013d7b7c2542+ Fri, 06 Jul 2018 19:26:36 +0100
REM compiler GCC version 4.8.5 20150623 (Red Hat 4.8.5-39)
REM options -cpp -mtune=generic -march=x86-64 -g -O0
REM seed -382017580 -59305681 -824442034 569433435 -1496754486 486883028 970792456 -549959236 -1879112378 413889572 1520037014 1028575898
REM
REM C.POTCAR (d86ddea03c3ceb6dc662c8ad6801f873)
REM 
CELL 1.54180   15.00000   15.00000   15.00000   90.00000   90.00000   90.00000
LATT -1
SFAC C  
C      1  0.6123776865374  0.7148113238181  0.7708843299541 1.0
C      1  0.6123685013666  0.2849702462855  0.7708747031222 1.0
C      1  0.5140692759976  0.7267582670345  0.2973181533742 1.0
C      1  0.5140570901021  0.2730528453802  0.2972873521524 1.0
C      1  0.4544654669597  0.1033351668705  0.4777142909365 1.0
C      1  0.4544607949727  0.8964768045617  0.4777258330169 1.0
C      1  0.5721516111146  0.5499120628783  0.7602190423876 1.0
C      1  0.5721602193254  0.4498886099880  0.7602131304197 1.0
C      1  0.2390179495922  0.1910919823012  0.2980035879253 1.0
C      1  0.2390079733113  0.8087401406411  0.2980505818298 1.0
C      1  0.3909715879634  0.1640868529596  0.8146589535523 1.0
C      1  0.3909934215713  0.8356652589982  0.8146592516485 1.0
C      1  0.1788638533859  0.3697068436172  0.7067656445829 1.0
C      1  0.1788558546658  0.6300730996071  0.7067658293718 1.0
C      1  0.8168505164706  0.7525544185731  0.6778174687948 1.0
C      1  0.8168391924673  0.2472162683254  0.6777674868492 1.0
C      1  0.4415287514554  0.3118046440925  0.2563182521690 1.0
C      1  0.4415525428155  0.6880331492566  0.2563287997597 1.0
C      1  0.6756986403111  0.8119228230329  0.4782568983257 1.0
C      1  0.6756959985475  0.1878849334931  0.4782059113186 1.0
C      1  0.4941044909992  0.3943522978024  0.6096483634166 1.0
C      1  0.4940946298204  0.6054298463039  0.6096511713288 1.0
C      1  0.8771869008174  0.4528005635564  0.3529616859962 1.0
C      1  0.8771907455437  0.5470269838605  0.3529752527023 1.0
C      1  0.2843664978401  0.8952209014419  0.6093863099569 1.0
C      1  0.2843602980173  0.1045791069431  0.6093699454403 1.0
C      1  0.3610372307326  0.6732861324952  0.3779104195159 1.0
C      1  0.3610263657769  0.3265359370597  0.3779071370559 1.0
C      1  0.8529896566851  0.3824450000889  0.2908973890477 1.0
C      1  0.8529828137283  0.6173747823369  0.2909282506301 1.0
C      1  0.2905848702194  0.0959794908522  0.5161440964211 1.0
C      1  0.2905693482204  0.9038523272547  0.5161684620030 1.0
C      1  0.5632781310261  0.1355179226000  0.7782168626007 1.0
C      1  0.5633004785771  0.8642619892330  0.7782217909606 1.0
C      1  0.2758136585738  0.3184241043686  0.1507670294828 1.0
C      1  0.2758365055592  0.6814892526986  0.1507755401341 1.0
C      1  0.7619535085910  0.8226100012059  0.6905546442396 1.0
C      1  0.7619517702003  0.1771487499955  0.6905014447563 1.0
C      1  0.8652910186592  0.4541167045222  0.5328846717471 1.0
C      1  0.8652885281981  0.5456792665220  0.5328929124654 1.0
C      1  0.5854083583675  0.6883118443228  0.6890762179091 1.0
C      1  0.5854249692546  0.3114798812020  0.6890636506732 1.0
C      1  0.3440545744854  0.3027277549717  0.8984774106202 1.0
C      1  0.3440338984657  0.6970306481139  0.8985029839071 1.0
C      1  0.4463374262357  0.9059306272931  0.6836865719895 1.0
C      1  0.4463223021849  0.0938488766694  0.6836787420177 1.0
C      1  0.1772108073899  0.2042939627357  0.5638018200785 1.0
C      1  0.1772343734489  0.7954789885133  0.5638182557768 1.0
C      1  0.6209219397729  0.1054757567640  0.4838738474154 1.0
C      1  0.6209362200110  0.8943387245055  0.4838967514324 1.0
C      1  0.5324295375465  0.7838685216704  0.3720077278047 1.0
C      1  0.5324280248137  0.2159357123060  0.3719681495856 1.0
C      1  0.5607386829367  0.5845583186709  0.4099446851174 1.0
C      1  0.5607229476549  0.4152659853364  0.4099353424689 1.0
C      1  0.1102770835631  0.5509657662423  0.4656752399315 1.0
C      1  0.1102667277408  0.4488206856269  0.4656722916891 1.0
C      1  0.5988061884801  0.7885180528165  0.8273259048239 1.0
C      1  0.5987945431161  0.2112674400875  0.8273135675817 1.0
C      1  0.2445063788693  0.7917268113834  0.7259864391758 1.0
C      1  0.2444977097484  0.2080568451321  0.7259635402506 1.0
C      1  0.2417938626212  0.5904950967059  0.1847755187389 1.0
C      1  0.2417869561479  0.4094152057997  0.1847844855127 1.0
C      1  0.3766176133630  0.7715206265793  0.8782899824719 1.0
C      1  0.3766091363566  0.2282128687314  0.8783012123704 1.0
C      1  0.5337833528220  0.0957703130215  0.5324662333473 1.0
C      1  0.5337895639843  0.9040390730458  0.5324731472205 1.0
C      1  0.2219503876080  0.2981219640119  0.7498020588634 1.0
C      1  0.2219490713825  0.7016748198842  0.7498289076955 1.0
C      1  0.4504224533438  0.5931582275191  0.8871418376276 1.0
C      1  0.4504561542656  0.4066087654018  0.8871335160350 1.0
C      1  0.4700094408818  0.1227320428202  0.7740876651531 1.0
C      1  0.4700261371971  0.8770404391930  0.7740955623232 1.0
C      1  0.6101474609018  0.7028363327692  0.8643207603470 1.0
C      1  0.6101550072180  0.2969428523954  0.8643087770711 1.0
C      1  0.3204279174534  0.1546467483799  0.7508082999164 1.0
C      1  0.3204453138207  0.8451428824025  0.7508267266614 1.0
C      1  0.1802996303119  0.4530693914011  0.2555493158692 1.0
C      1  0.1803138816573  0.5468382427794  0.2555550977845 1.0
C      1  0.3505037293988  0.3942567154572  0.8877150552986 1.0
C      1  0.3504770489943  0.6054928547010  0.8877262096909 1.0
C      1  0.7231993067986  0.6870226639054  0.5730204992016 1.0
C      1  0.7231875491245  0.3127781699620  0.5729977009370 1.0
C      1  0.6034085892065  0.6218650106682  0.9215620089783 1.0
C      1  0.6034336244399  0.3779081138906  0.9215696475923 1.0
C      1  0.3080986331063  0.5995205177671  0.5090423940739 1.0
C      1  0.3080878207388  0.4002326577817  0.5090610515565 1.0
C      1  0.6501465858771  0.4554180867506  0.6240246596506 1.0
C      1  0.6501444587937  0.5443978237140  0.6240351808619 1.0
C      1  0.7149329902545  0.6296122428509  0.1915700027527 1.0
C      1  0.7149200410551  0.3702034542696  0.1915294957778 1.0
C      1  0.3413097136551  0.3699290330254  0.1005276906480 1.0
C      1  0.3413269257764  0.6299804256871  0.1005308808996 1.0
C      1  0.6642516604451  0.7702740045241  0.5751937471817 1.0
C      1  0.6642492822492  0.2295144477332  0.5751613021038 1.0
C      1  0.4538647982581  0.8134318139613  0.4244604098915 1.0
C      1  0.4538777547701  0.1863827378933  0.4244471114330 1.0
C      1  0.6004982605382  0.1168341730078  0.6869155042991 1.0
C      1  0.6005197580707  0.8829443107789  0.6869265153158 1.0
C      1  0.5567641150142  0.8432219745088  0.1738610760364 1.0
C      1  0.5567315046968  0.1566465257543  0.1737607072465 1.0
C      1  0.1481573825163  0.6215925839158  0.6168759478659 1.0
C      1  0.1481370415678  0.3781778475878  0.6168748566963 1.0
C      1  0.8182859311138  0.6791296674826  0.7436518338594 1.0
C      1  0.8182515925682  0.3206233476510  0.7436202108238 1.0
C      1  0.6566818224385  0.4502716294843  0.8924516019211 1.0
C      1  0.6566790584326  0.5495156305998  0.8924532482437 1.0
C      1  0.8247656655543  0.2909117608040  0.5843741364304 1.0
C      1  0.8247804803660  0.7088819371962  0.5844012878710 1.0
C      1  0.6952733256302  0.6433937043092  0.4856277200217 1.0
C      1  0.6952700175364  0.3564174094038  0.4856052138605 1.0
C      1  0.1441888071640  0.2894903847869  0.3946644968458 1.0
C      1  0.1441679768113  0.7103045222240  0.3946688079589 1.0
C      1  0.7047830749631  0.5459143285648  0.3598024193075 1.0
C      1  0.7047836157611  0.4539182432420  0.3598030181306 1.0
C      1  0.2312117621237  0.6096648588792  0.7833183365766 1.0
C      1  0.2312385317056  0.3901132638174  0.7832908858729 1.0
C      1  0.2537397174563  0.5507814030796  0.3338852186707 1.0
C      1  0.2537248746322  0.4490718274664  0.3338998377627 1.0
C      1  0.4003397555843  0.4517855167346  0.2725165213246 1.0
C      1  0.4003491414644  0.5480556126283  0.2725096192134 1.0
C      1  0.4015555031231  0.4173630693492  0.3733479933990 1.0
C      1  0.4015748852118  0.5824738822519  0.3733310047915 1.0
C      1  0.8400570444951  0.2517952949510  0.4943303317445 1.0
C      1  0.8400700394631  0.7480131810891  0.4943632440936 1.0
C      1  0.4742423465624  0.4547413664243  0.4208663651540 1.0
C      1  0.4742454990761  0.5450869129579  0.4208664152639 1.0
C      1  0.5727079886780  0.5914569036829  0.6707003403359 1.0
C      1  0.5727232075444  0.4083400040336  0.6706952525379 1.0
C      1  0.2848359892249  0.2520770442692  0.2303629957665 1.0
C      1  0.2848551121677  0.7477984965583  0.2303983628093 1.0
C      1  0.1168932662256  0.3663286054913  0.4178048385967 1.0
C      1  0.1168735356778  0.6334585265784  0.4178193193489 1.0
C      1  0.8429997630402  0.4014608019464  0.7074942082986 1.0
C      1  0.8430046745955  0.5983023367448  0.7075094498376 1.0
C      1  0.2288107060172  0.1700685223134  0.4791131263139 1.0
C      1  0.2288144849386  0.8297200054018  0.4791388465649 1.0
C      1  0.5977292785403  0.3653309714888  0.4746904992643 1.0
C      1  0.5977332774180  0.6344523631744  0.4747117802323 1.0
C      1  0.3748005132217  0.9523544565448  0.4884738711802 1.0
C      1  0.3748061874355  0.0474628095533  0.4884638710825 1.0
C      1  0.8555967289556  0.4103207129574  0.4429147018416 1.0
C      1  0.8556032375069  0.5894901613937  0.4429338835300 1.0
C      1  0.4661325674259  0.6004308913488  0.2145237332509 1.0
C      1  0.4661183840287  0.3994050838067  0.2145223981552 1.0
C      1  0.1870736946921  0.3016084999310  0.5664634261721 1.0
C      1  0.1870923469799  0.6981644389928  0.5664687772832 1.0
C      1  0.7959887206303  0.4117886644773  0.2160916087939 1.0
C      1  0.7959938144907  0.5880130432050  0.2161401135041 1.0
C      1  0.6711594400692  0.7216616495003  0.2288928422181 1.0
C      1  0.6711400587568  0.2781705226668  0.2288352244821 1.0
C      1  0.5865622562099  0.4542962261204  0.0852091792583 1.0
C      1  0.5865713337332  0.5455561509032  0.0852110602657 1.0
C      1  0.6939596491591  0.7649858654954  0.3190011613150 1.0
C      1  0.6939562963515  0.2348440531283  0.3189497531071 1.0
C      1  0.5809886495257  0.7262274298712  0.6008621170093 1.0
C      1  0.5809930508730  0.2735597837286  0.6008413971338 1.0
C      1  0.6276120154296  0.2035305202779  0.1698974760167 1.0
C      1  0.6276331061267  0.7963165700908  0.1699712111492 1.0
C      1  0.4815118829398  0.4226663615353  0.8006168248163 1.0
C      1  0.4814958487839  0.5771273774812  0.8006183523275 1.0
C      1  0.6352321557998  0.9583527395652  0.4234129916915 1.0
C      1  0.6351924939743  0.0414179353895  0.4234224623529 1.0
C      1  0.5396306880245  0.3338970721521  0.5451772958589 1.0
C      1  0.5396307130758  0.6658841104148  0.5451982749950 1.0
C      1  0.4722169623026  0.8693752802890  0.1906065145321 1.0
C      1  0.4721945008701  0.1304726593333  0.1904681809297 1.0
C      1  0.2716104131878  0.6857374617777  0.5291828777477 1.0
C      1  0.2716143361319  0.3140233863391  0.5292139993530 1.0
C      1  0.7491613573258  0.5964733287510  0.4301718780479 1.0
C      1  0.7491565498560  0.4033433359983  0.4301687089531 1.0
C      1  0.1231286726343  0.4505899533763  0.5639282781948 1.0
C      1  0.1231369050196  0.5491815646003  0.5639293015194 1.0
C      1  0.5064004187652  0.4045322687860  0.0524731498353 1.0
C      1  0.5064144728273  0.5953153379392  0.0524776752940 1.0
C      1  0.7248452888758  0.3943365597850  0.6351383238485 1.0
C      1  0.7248500087873  0.6054630711419  0.6351601885111 1.0
C      1  0.3074339406634  0.4075223470344  0.4102389164028 1.0
C      1  0.3074518784430  0.5923009053307  0.4102226121005 1.0
C      1  0.3441249268036  0.3147710515293  0.2798748026487 1.0
C      1  0.3441440267728  0.6850808718230  0.2798798439950 1.0
C      1  0.2843298031383  0.5513726783292  0.8382856926113 1.0
C      1  0.2843457407233  0.4483985263257  0.8382789984244 1.0
C      1  0.7740505003228  0.2017405597319  0.4480824039333 1.0
C      1  0.7740586885760  0.7980798937757  0.4481328324856 1.0
C      1  0.3498261074139  0.5481374016601  0.5715638118533 1.0
C      1  0.3498333502071  0.4516294896109  0.5715749784159 1.0
C      1  0.1937887794459  0.2080474146536  0.3819219820509 1.0
C      1  0.1937703851655  0.7917427387213  0.3819509529773 1.0
C      1  0.5268067778794  0.0949005304773  0.6286686188863 1.0
C      1  0.5268225218455  0.9048840411356  0.6286739519469 1.0
C      1  0.6786366896713  0.5525702137410  0.7939325069176 1.0
C      1  0.6786375594468  0.4472215341507  0.7939267579386 1.0
C      1  0.3521336372092  0.8981761441059  0.6756558611739 1.0
C      1  0.3521200931791  0.1016129866621  0.6756414800844 1.0
C      1  0.6401738468064  0.4397635429896  0.1690567624883 1.0
C      1  0.6401822906029  0.5600723512530  0.1690673037911 1.0
C      1  0.3034725238160  0.7625932870082  0.4855645808441 1.0
C      1  0.3034977705842  0.2371684614010  0.4855787728845 1.0
C      1  0.2159698991118  0.1671948663813  0.6394127742438 1.0
C      1  0.2159862475370  0.8325872780305  0.6394328480511 1.0
C      1  0.4182812928444  0.5457528995307  0.7294259903082 1.0
C      1  0.4182956501011  0.4540352103719  0.7294250149947 1.0
C      1  0.6819211877181  0.1591410303507  0.6526959301958 1.0
C      1  0.6819412955703  0.8406300647634  0.6527177496248 1.0
C      1  0.8479242690267  0.2978037403911  0.3405429025045 1.0
C      1  0.8479244392124  0.7020207121073  0.3405752425549 1.0
C      1  0.5695502407388  0.5917982280982  0.2357785753175 1.0
C      1  0.5695404710939  0.4080339748264  0.2357681388837 1.0
C      1  0.6261771773227  0.7846534898884  0.3880420408340 1.0
C      1  0.6261718326034  0.2151527921738  0.3879873787255 1.0
C      1  0.3805057099849  0.2446675686427  0.4299950231265 1.0
C      1  0.3804979722866  0.7551456043776  0.4300046136668 1.0
C      1  0.7793027316230  0.2295657369483  0.3541504398890 1.0
C      1  0.7793048258404  0.7702512779494  0.3542041397765 1.0
C      1  0.8756921170766  0.3133478474685  0.4304166730537 1.0
C      1  0.8756922272556  0.6864651978472  0.4304450226447 1.0
C      1  0.6070747283352  0.5512895486379  0.3307293072399 1.0
C      1  0.6070717281322  0.4485355416913  0.3307351317437 1.0
C      1  0.8388456510851  0.6052822392952  0.6066138018354 1.0
C      1  0.8388460282813  0.3945044297377  0.6066021151012 1.0
C      1  0.3109034992069  0.4103416031303  0.2602683051399 1.0
C      1  0.3109149826197  0.5895166129381  0.2602520435947 1.0
C      1  0.5125885720391  0.6064542589962  0.9580265565000 1.0
C      1  0.5126093585978  0.3933382544523  0.9580314292825 1.0
C      1  0.5851151052546  0.6850158048921  0.2514416046196 1.0
C      1  0.5851040671344  0.3148154115537  0.2514161938955 1.0
C      1  0.2890378213746  0.4546111636943  0.1085907601196 1.0
C      1  0.2890373652679  0.5453059808277  0.1085808733578 1.0
C      1  0.4400086750662  0.3876346751881  0.1140336914514 1.0
C      1  0.4400234426398  0.6122415936725  0.1140350506388 1.0
C      1  0.7457220586765  0.6054858401226  0.7358172143689 1.0
C      1  0.7457069675918  0.3943003017157  0.7357946706340 1.0
C      1  0.3111125036199  0.8427404538921  0.2472964872566 1.0
C      1  0.3111082903976  0.1571230873407  0.2472201746899 1.0
C      1  0.3937087227024  0.1249991854036  0.2223985461332 1.0
C      1  0.3937344624176  0.8748598878378  0.2225010992241 1.0
C      1  0.4108693075429  0.5852234383262  0.6400515195947 1.0
C      1  0.4108918162060  0.4145431756786  0.6400527563566 1.0
C      1  0.8177187585688  0.4999113535104  0.1867650867247 1.0
END
