TITL C-71879-2601-11 -2.871 3375.00 -481.42868000 0 0 60 (C2) n - 1
REM
REM Run started: at 2020.12.16 05:00:32 in /rds/project/t2_vol4/rds-t2-cs072/BORA/CARBON/AIRSS/Generating-Clusters/Str-Search/Higher-Symm/Only-C60
REM VASP from code version vasp.5.4.4.18Apr17-6-g9f103f2a35 (build Oct 11 2019 16:45:47) gamma-only
REM
REM
REM
REM
REM ./C.cell (5f7b7a0d59291d2373303da1f58b8d66)
REM AIRSS Version 0.9.1 bugfix July 2018 build 013d7b7c2542+ Fri, 06 Jul 2018 19:26:36 +0100
REM compiler GCC version 4.8.5 20150623 (Red Hat 4.8.5-39)
REM options -cpp -mtune=generic -march=x86-64 -g -O0
REM seed -972301126 -2142451788 1727238783 463017221 -1686730685 -657724001 2106959890 2066510106 617225454 -1711032757 -1442581527 702353904
REM
REM C.POTCAR (d86ddea03c3ceb6dc662c8ad6801f873)
REM 
CELL 1.54180   15.00000   15.00000   15.00000   90.00000   90.00000   90.00000
LATT -1
SFAC C  
C      1  0.6668668614427  0.3583013890375  0.4197278622231 1.0
C      1  0.3331329858815  0.6416986319286  0.4197279581298 1.0
C      1  0.5227290538611  0.3585022716212  0.5998827259001 1.0
C      1  0.4772711010044  0.6414978665521  0.5998829354529 1.0
C      1  0.3913059890164  0.3390449577094  0.3647678015803 1.0
C      1  0.6086935355851  0.6609547045704  0.3647676328786 1.0
C      1  0.5103635204494  0.5447892970789  0.7447000437554 1.0
C      1  0.4896366570993  0.4552105825519  0.7447003491060 1.0
C      1  0.6177242298701  0.5723736128452  0.3193761690367 1.0
C      1  0.3822751652846  0.4276260264370  0.3193762004287 1.0
C      1  0.3841288973040  0.6947828697713  0.4839122366153 1.0
C      1  0.6158711428107  0.3052169353824  0.4839118915865 1.0
C      1  0.6282116200700  0.6992244934692  0.5268034533133 1.0
C      1  0.3717883860360  0.3007748387196  0.5268037143169 1.0
C      1  0.2127575343507  0.4302111035951  0.5182382956337 1.0
C      1  0.7872433374062  0.5697892220320  0.5182364201560 1.0
C      1  0.5168314570532  0.6879526774749  0.3714154567610 1.0
C      1  0.4831681329522  0.3120470607104  0.3714156008152 1.0
C      1  0.6619071745977  0.6665879253581  0.4394551641695 1.0
C      1  0.3380926782094  0.3334120549881  0.4394556256789 1.0
C      1  0.6298624833059  0.4824652110010  0.5791436926839 1.0
C      1  0.3701377902226  0.5175349075610  0.5791440219441 1.0
C      1  0.6972380413099  0.6840499961261  0.5879311458511 1.0
C      1  0.3027622041254  0.3159496530320  0.5879312572355 1.0
C      1  0.5209182584125  0.2871797529146  0.4588603176030 1.0
C      1  0.4790816960523  0.7128203215708  0.4588603935086 1.0
C      1  0.6333539641117  0.5292359391329  0.4987726739444 1.0
C      1  0.3666467124964  0.4707639028137  0.4987727639545 1.0
C      1  0.3057189715317  0.4711329874754  0.3587118592342 1.0
C      1  0.6942799788821  0.5288671099768  0.3587110520320 1.0
C      1  0.3123876980243  0.5670928436404  0.3755395655599 1.0
C      1  0.6876116641039  0.4329073173467  0.3755397143035 1.0
C      1  0.5330049640627  0.7007892734895  0.5355754573569 1.0
C      1  0.4669951643490  0.2992105239094  0.5355754879298 1.0
C      1  0.6850352369568  0.4043175513066  0.5948304901206 1.0
C      1  0.3149646860024  0.5956825652303  0.5948309292803 1.0
C      1  0.4513009610783  0.5202296414389  0.4614085033188 1.0
C      1  0.5486994429428  0.4797708566451  0.4614087156053 1.0
C      1  0.1947092672220  0.5148645852155  0.5487218973543 1.0
C      1  0.8052913473669  0.4851352907411  0.5487204189523 1.0
C      1  0.2332394493824  0.3619669404273  0.5793816548071 1.0
C      1  0.7667609504086  0.6380329717040  0.5793806595635 1.0
C      1  0.6209221622082  0.3336746690234  0.5747786620648 1.0
C      1  0.3790778810775  0.6663251777734  0.5747790128455 1.0
C      1  0.4947042357770  0.3774090460388  0.6937660765311 1.0
C      1  0.5052959543677  0.6225910475860  0.6937661332549 1.0
C      1  0.2220225809002  0.5901571076515  0.5764989102972 1.0
C      1  0.7779773120175  0.4098433596024  0.5764981862176 1.0
C      1  0.4356678122943  0.3761257802774  0.7658691328047 1.0
C      1  0.5643323751086  0.6238740063303  0.7658691328771 1.0
C      1  0.4084889486843  0.5830364363581  0.3899802731962 1.0
C      1  0.5915107017654  0.4169638819522  0.3899809623986 1.0
C      1  0.5281938379692  0.3828889980476  0.3273418264009 1.0
C      1  0.4718054525633  0.6171112506734  0.3273408133692 1.0
C      1  0.4756923000024  0.4557356303774  0.2935377160742 1.0
C      1  0.5243072747501  0.5442641721802  0.2935372970539 1.0
C      1  0.7100917378016  0.5774226044719  0.4471229037420 1.0
C      1  0.2899086087897  0.4225776524742  0.4471237736728 1.0
C      1  0.5339016955235  0.4588699480032  0.5639495703043 1.0
C      1  0.4660987357643  0.5411305666459  0.5639496072133 1.0
END
