TITL C-71879-2601-22 -2.881 3375.00 -478.66227173 0 0 60 (C1) n - 1
REM
REM Run started: at 2020.12.16 08:23:24 in /rds/project/t2_vol4/rds-t2-cs072/BORA/CARBON/AIRSS/Generating-Clusters/Str-Search/Higher-Symm/Only-C60
REM VASP from code version vasp.5.4.4.18Apr17-6-g9f103f2a35 (build Oct 11 2019 16:45:47) gamma-only
REM
REM
REM
REM
REM ./C.cell (5f7b7a0d59291d2373303da1f58b8d66)
REM AIRSS Version 0.9.1 bugfix July 2018 build 013d7b7c2542+ Fri, 06 Jul 2018 19:26:36 +0100
REM compiler GCC version 4.8.5 20150623 (Red Hat 4.8.5-39)
REM options -cpp -mtune=generic -march=x86-64 -g -O0
REM seed 1974764979 -2064431853 -687629594 -784263135 -2067019206 -1105977484 2057968535 -1666666493 -1720414715 -1998390050 -144434322 1740502852
REM
REM C.POTCAR (d86ddea03c3ceb6dc662c8ad6801f873)
REM 
CELL 1.54180   15.00000   15.00000   15.00000   90.00000   90.00000   90.00000
LATT -1
SFAC C  
C      1  0.6016775505369  0.6907134746811  0.4006429746685 1.0
C      1  0.6950890675819  0.4047639349390  0.5026895725367 1.0
C      1  0.5489013952854  0.6425468249162  0.6350291898875 1.0
C      1  0.6391610462163  0.7234287780996  0.4772730556878 1.0
C      1  0.4045997260598  0.1822767917639  0.5915072625492 1.0
C      1  0.4958780833704  0.6560484656486  0.7048371030164 1.0
C      1  0.3188061401998  0.4669058115105  0.2859921995714 1.0
C      1  0.6462374876279  0.6458520900898  0.6223262918194 1.0
C      1  0.5009090738907  0.6701715857339  0.4032360310390 1.0
C      1  0.6612391455481  0.4099506230251  0.5893649538231 1.0
C      1  0.2942746304432  0.4009856941126  0.4538929019087 1.0
C      1  0.6585501690817  0.4820694104675  0.6563406893899 1.0
C      1  0.6106971154197  0.4049657088267  0.2871983046755 1.0
C      1  0.2789386095473  0.5275266082290  0.5834874178541 1.0
C      1  0.4649223024610  0.5138192932920  0.6052253013639 1.0
C      1  0.2912811789899  0.6274109364720  0.3928875080046 1.0
C      1  0.3261356339425  0.5443236485223  0.4114666563477 1.0
C      1  0.7002435091648  0.5698566648128  0.6418549797004 1.0
C      1  0.6604475505304  0.3316890781269  0.4433138170791 1.0
C      1  0.5005476672000  0.5770245406928  0.4546724776043 1.0
C      1  0.4387510389295  0.5865291781965  0.2578685001515 1.0
C      1  0.4461581132698  0.2620585096578  0.6009930471907 1.0
C      1  0.7837357765139  0.5604667372119  0.5971048416542 1.0
C      1  0.4007085810923  0.6612367641550  0.5463575934642 1.0
C      1  0.4190051504358  0.7048056072309  0.4566953135665 1.0
C      1  0.4031489561421  0.3520935758186  0.5800770330440 1.0
C      1  0.3829549484471  0.3694603349938  0.4770978925784 1.0
C      1  0.5819959784089  0.4437088397494  0.6988570363498 1.0
C      1  0.4857185660659  0.4715113243579  0.6942480943241 1.0
C      1  0.4864115808373  0.5981297185079  0.5576559391463 1.0
C      1  0.7305760468021  0.4896806053181  0.4628036667002 1.0
C      1  0.3640459276071  0.6844526473565  0.3820238009474 1.0
C      1  0.7914486352969  0.5344611956392  0.5180126594791 1.0
C      1  0.3676438550974  0.5254947496765  0.2488545839749 1.0
C      1  0.6672504643113  0.7051708804612  0.5541513550116 1.0
C      1  0.4467221636020  0.4290281674861  0.4353748862134 1.0
C      1  0.3537363230707  0.6691427287297  0.6362860971354 1.0
C      1  0.5292689212734  0.5587030761635  0.2354130240863 1.0
C      1  0.6066148983756  0.3707452767182  0.3699989610472 1.0
C      1  0.4364914929709  0.6604576692773  0.3212409316700 1.0
C      1  0.4092176934550  0.6279168101504  0.7044150654268 1.0
C      1  0.4763362804858  0.4171573955500  0.6072166071571 1.0
C      1  0.5418972612402  0.2758785806226  0.6127809875026 1.0
C      1  0.4037755967377  0.5264199396494  0.6972911098595 1.0
C      1  0.3640952580955  0.1085420476157  0.5751679890410 1.0
C      1  0.6081897670744  0.5767020762147  0.2805374847336 1.0
C      1  0.6452224610251  0.2531916488037  0.4873703327920 1.0
C      1  0.5418213958657  0.4288085249713  0.4203344932346 1.0
C      1  0.3260366827735  0.4817204389938  0.6593999084451 1.0
C      1  0.3189825227710  0.3967498278423  0.6163289607888 1.0
C      1  0.5726355861266  0.3712732973216  0.6258912382025 1.0
C      1  0.6001784193010  0.2336147349288  0.5559531477462 1.0
C      1  0.5870496930343  0.4849107697631  0.2530016592610 1.0
C      1  0.6656502421643  0.5406299844845  0.4185033554068 1.0
C      1  0.5747273664378  0.5141187489994  0.4335874371483 1.0
C      1  0.3110306774625  0.6163641336874  0.5745526994855 1.0
C      1  0.6479362657985  0.6176515434689  0.3554118753608 1.0
C      1  0.4180726550194  0.5204452672439  0.4330137163173 1.0
C      1  0.2924578847483  0.4579791521428  0.3751689759548 1.0
C      1  0.2737618887358  0.4402571268775  0.5397191098729 1.0
END
