TITL C-71879-2601-18 -2.946 3375.00 -486.07948114 0 0 60 (C1) n - 1
REM
REM Run started: at 2020.12.16 06:59:26 in /rds/project/t2_vol4/rds-t2-cs072/BORA/CARBON/AIRSS/Generating-Clusters/Str-Search/Higher-Symm/Only-C60
REM VASP from code version vasp.5.4.4.18Apr17-6-g9f103f2a35 (build Oct 11 2019 16:45:47) gamma-only
REM
REM
REM
REM
REM ./C.cell (5f7b7a0d59291d2373303da1f58b8d66)
REM AIRSS Version 0.9.1 bugfix July 2018 build 013d7b7c2542+ Fri, 06 Jul 2018 19:26:36 +0100
REM compiler GCC version 4.8.5 20150623 (Red Hat 4.8.5-39)
REM options -cpp -mtune=generic -march=x86-64 -g -O0
REM seed -695344298 1629268848 1041613730 328072391 1762308691 -1000583339 -1445615652 -2075760618 1489577089 810320695 1596475411 590694942
REM
REM C.POTCAR (d86ddea03c3ceb6dc662c8ad6801f873)
REM 
CELL 1.54180   15.00000   15.00000   15.00000   90.00000   90.00000   90.00000
LATT -1
SFAC C  
C      1  0.4519762880936  0.3131035496540  0.3972077957756 1.0
C      1  0.3923657483911  0.2992014221588  0.4814554420670 1.0
C      1  0.4195713636442  0.3290510725636  0.5729958844644 1.0
C      1  0.5046899211565  0.3212213996274  0.6257430483842 1.0
C      1  0.5807678408437  0.3495453093251  0.5698299021434 1.0
C      1  0.6141137211395  0.3179950118320  0.4838208498409 1.0
C      1  0.5521890744835  0.3109746452444  0.3998107442015 1.0
C      1  0.3719394109178  0.6741020619505  0.3507301420133 1.0
C      1  0.2871552586063  0.6753710256242  0.5150607710135 1.0
C      1  0.3727908420326  0.6314624042450  0.6719453114784 1.0
C      1  0.5940607649635  0.6312814322082  0.7366216798180 1.0
C      1  0.6931615324255  0.6270242855630  0.5917081176907 1.0
C      1  0.6997834484350  0.6628946812519  0.4134317011218 1.0
C      1  0.5490860922836  0.6891181428595  0.3124151431393 1.0
C      1  0.6795414621444  0.6006652630879  0.3444338590457 1.0
C      1  0.5123421031363  0.6076317743727  0.2829327060863 1.0
C      1  0.3159451272686  0.5996589258257  0.3750957052338 1.0
C      1  0.2678498804728  0.5886333552904  0.5462961399423 1.0
C      1  0.4387849991829  0.6746818671760  0.7205206987079 1.0
C      1  0.6152798174103  0.5408724086970  0.7132433348708 1.0
C      1  0.6542048986087  0.5568753334295  0.5259499145189 1.0
C      1  0.5493290736491  0.2112438690148  0.4057410097790 1.0
C      1  0.4526013592983  0.2069377217576  0.3892612853169 1.0
C      1  0.3988561004291  0.1956312660815  0.4680162099948 1.0
C      1  0.4088156835111  0.1348872812949  0.5366161726208 1.0
C      1  0.5280077568820  0.2184548074301  0.6408851679667 1.0
C      1  0.5707490145321  0.1771829968151  0.5665015206567 1.0
C      1  0.6037867181251  0.2105679358116  0.4850842199527 1.0
C      1  0.3215621509700  0.3681869926189  0.4592331987093 1.0
C      1  0.3664513784644  0.3985438112403  0.6031687355818 1.0
C      1  0.5004263875117  0.4084629651248  0.6850874976221 1.0
C      1  0.6288081059842  0.4203138110823  0.6032650951185 1.0
C      1  0.6749840259870  0.4021803030584  0.4559215794010 1.0
C      1  0.5785093845064  0.3812140320021  0.3381844751508 1.0
C      1  0.4238484566302  0.3961755894781  0.3447068559151 1.0
C      1  0.5871198508027  0.4578662367892  0.6815135785266 1.0
C      1  0.6772343532123  0.4604538723335  0.5284421632791 1.0
C      1  0.6533666992130  0.4309843681230  0.3651336608659 1.0
C      1  0.5048881236250  0.4351319507158  0.3083502034541 1.0
C      1  0.3414284028105  0.4255523077978  0.3833417054582 1.0
C      1  0.3012657595212  0.4221328795252  0.5335243324675 1.0
C      1  0.4217896274839  0.4535850901698  0.6632286607872 1.0
C      1  0.2764504467194  0.5083415960814  0.5006538159418 1.0
C      1  0.4217446729783  0.5493488948925  0.6412611569253 1.0
C      1  0.4783003492857  0.5757492240789  0.5721413848299 1.0
C      1  0.5578224251477  0.5765203210186  0.5213488077506 1.0
C      1  0.6396469210484  0.5184140570345  0.3270954048853 1.0
C      1  0.5459701592447  0.5217030638652  0.2916431156963 1.0
C      1  0.3028674390288  0.5127116265523  0.4053465743104 1.0
C      1  0.6698712121189  0.6144410541712  0.6816737375458 1.0
C      1  0.7070324128612  0.6414427526117  0.5047914154969 1.0
C      1  0.6364179108554  0.6857157823949  0.3457841318702 1.0
C      1  0.4538145874053  0.6778817278457  0.3119511168354 1.0
C      1  0.3126137007762  0.6798124336388  0.4251760729912 1.0
C      1  0.3086558322223  0.6504483706269  0.6063828834409 1.0
C      1  0.5168375950373  0.6773191190040  0.7522109032544 1.0
C      1  0.5070343510997  0.6546034835215  0.5245729226227 1.0
C      1  0.5000703171352  0.7440006047860  0.5113046051426 1.0
C      1  0.4784026442230  0.1542185248654  0.5896506518078 1.0
C      1  0.4952686140226  0.8275725027589  0.4971082784699 1.0
END
