TITL C-7109-1575-6 -9.743 3375.00 -1480.43378015 0 0 180 (C1) n - 1
REM
REM Run started: at 2020.12.24 01:38:21 in /rds/project/t2_vol4/rds-t2-cs072/BORA/CARBON/AIRSS/Generating-Clusters/Str-Search/Higher-Symm/Only-C180
REM VASP from code version vasp.5.4.4.18Apr17-6-g9f103f2a35 (build Oct 11 2019 16:45:47) gamma-only
REM
REM
REM
REM
REM ./C.cell (f712cfaf3acf65fd2d5dcba0fd1fd40b)
REM AIRSS Version 0.9.1 bugfix July 2018 build 013d7b7c2542+ Fri, 06 Jul 2018 19:26:36 +0100
REM compiler GCC version 4.8.5 20150623 (Red Hat 4.8.5-39)
REM options -cpp -mtune=generic -march=x86-64 -g -O0
REM seed 606478119 -19660617 -776179842 -1302086456 -990164737 -1724591519 1116114893 -596656852 -1178649125 -120094214 1072286975 -1588551022
REM
REM C.POTCAR (d86ddea03c3ceb6dc662c8ad6801f873)
REM 
CELL 1.54180   15.00000   15.00000   15.00000   90.00000   90.00000   90.00000
LATT -1
SFAC C  
C      1  0.2593033363902  0.5603430585298  0.8759904679832 1.0
C      1  0.0507520727208  0.5723259336050  0.5660983871619 1.0
C      1  0.1008473539556  0.5518187628137  0.3223931272706 1.0
C      1  0.3738140616178  0.5647371216767  0.1042710932524 1.0
C      1  0.5789019775396  0.5583077110975  0.0589161494970 1.0
C      1  0.8586671786339  0.5464999723136  0.2663477915084 1.0
C      1  0.9638512748676  0.5698649523200  0.5290615441041 1.0
C      1  0.7754876865914  0.5867998099542  0.8173652558078 1.0
C      1  0.5745590344704  0.5524344355300  0.9671588895287 1.0
C      1  0.1590851942439  0.2539178806052  0.6348515899593 1.0
C      1  0.1535744103156  0.2643524955362  0.4035123079020 1.0
C      1  0.3300542119282  0.2645683452062  0.1613333554852 1.0
C      1  0.5627256626836  0.2300132244273  0.1517487633617 1.0
C      1  0.7681399872520  0.2137379819138  0.2644050753040 1.0
C      1  0.8634719793427  0.2650407041756  0.4669460272482 1.0
C      1  0.7944993791874  0.2658027579048  0.7322753835563 1.0
C      1  0.5842579792092  0.2296823941303  0.8769726501734 1.0
C      1  0.3487842943419  0.2687559344585  0.8480228991196 1.0
C      1  0.5700273777602  0.6603512932443  0.3211619680051 1.0
C      1  0.6682543719969  0.6931463637823  0.3598338629886 1.0
C      1  0.6926211004043  0.6717217067292  0.4646072625506 1.0
C      1  0.6368445591362  0.6835685832515  0.6229035741322 1.0
C      1  0.4958922667498  0.6325662355406  0.7190058564109 1.0
C      1  0.4106706938010  0.6691741482591  0.6760851302083 1.0
C      1  0.3049337431778  0.6685045714747  0.5188737922765 1.0
C      1  0.3038265259494  0.6947967739835  0.4133310315911 1.0
C      1  0.3859785147567  0.6651925968663  0.3516468914325 1.0
C      1  0.6410659512349  0.8625300161265  0.3292940608857 1.0
C      1  0.7319113474466  0.8940144858880  0.3426096070531 1.0
C      1  0.7756599828935  0.9022434195201  0.4232654686615 1.0
C      1  0.5372428346180  0.8554254345317  0.6885917847818 1.0
C      1  0.4652909856396  0.8735931027152  0.7545735847199 1.0
C      1  0.3769503140210  0.8860894522193  0.7342105819551 1.0
C      1  0.3006716240730  0.8667932014334  0.4400771701378 1.0
C      1  0.2766373700134  0.8933954057397  0.3500523816757 1.0
C      1  0.3326896640734  0.8965703314962  0.2765517872858 1.0
C      1  0.0561567790922  0.4076762323300  0.4205175485501 1.0
C      1  0.3195042486598  0.4035097786408  0.0525793367900 1.0
C      1  0.5859224300544  0.3809161036897  0.0671906924753 1.0
C      1  0.8165341325406  0.3749754362919  0.2389043008167 1.0
C      1  0.9656434464172  0.4080973201482  0.4586172207999 1.0
C      1  0.8389259074374  0.4179535190135  0.7964206991672 1.0
C      1  0.5901026075379  0.3767893641541  0.9710515895639 1.0
C      1  0.3240129226345  0.4076246736479  0.9547522210058 1.0
C      1  0.0746169494869  0.4008076358063  0.6243229162926 1.0
C      1  0.3761658742052  0.1677916730391  0.2975214597180 1.0
C      1  0.5589478004365  0.1230560814806  0.2819161092201 1.0
C      1  0.6442499807168  0.1177658244775  0.3308321880043 1.0
C      1  0.7287848718429  0.1606827716468  0.4857240237036 1.0
C      1  0.6855427876629  0.1673075601980  0.6448628975162 1.0
C      1  0.5549262135331  0.1418146472849  0.7355905326816 1.0
C      1  0.3935720225938  0.1723408381511  0.7121268741690 1.0
C      1  0.2852867706622  0.1683087117443  0.5618737162537 1.0
C      1  0.2775618126307  0.1659703645425  0.4626311398257 1.0
C      1  0.8110993830497  0.5015508483459  0.7830547308411 1.0
C      1  0.5808568405871  0.4596483811141  0.9306445896999 1.0
C      1  0.3187888450024  0.4866984849193  0.8997120381171 1.0
C      1  0.0929978477646  0.4880024616545  0.6004828416427 1.0
C      1  0.1068866589864  0.4877143324808  0.3936844925563 1.0
C      1  0.3293342678142  0.4790711758988  0.1084155084285 1.0
C      1  0.5812707551075  0.4696438636813  0.1017392042348 1.0
C      1  0.8083745815223  0.4647892102651  0.2505131783244 1.0
C      1  0.9276291880395  0.4821328296478  0.5029561660420 1.0
C      1  0.6037160075631  0.4158160018198  0.7037600834324 1.0
C      1  0.4549106821134  0.4054823109314  0.7313112071140 1.0
C      1  0.3272396743387  0.4244573100739  0.6502339893077 1.0
C      1  0.2885888695532  0.4339225625961  0.5061552998845 1.0
C      1  0.3370836124650  0.4187028074738  0.3587490383651 1.0
C      1  0.4650001358223  0.3995309014174  0.2847363272290 1.0
C      1  0.6068712439540  0.4206400328490  0.3256094723582 1.0
C      1  0.7037384624267  0.4263148732683  0.4435089342828 1.0
C      1  0.7036834956963  0.4211341812242  0.5915492013270 1.0
C      1  0.5999562747314  0.6008418410656  0.5831443138374 1.0
C      1  0.5171481849195  0.5859684873467  0.6346052429443 1.0
C      1  0.4262186500547  0.5965141928332  0.6024656407559 1.0
C      1  0.3663068884562  0.5870481769546  0.5321015989612 1.0
C      1  0.3714244495461  0.5412340307491  0.4471689249076 1.0
C      1  0.4372126812699  0.5808560436078  0.3855238733713 1.0
C      1  0.5287751315273  0.5795073234087  0.3707520779054 1.0
C      1  0.6072965082192  0.5414298760597  0.4163104852621 1.0
C      1  0.6334879603624  0.5904140036952  0.4962861652656 1.0
C      1  0.1940571248727  0.8492672961497  0.3298488192747 1.0
C      1  0.3641451145374  0.8300656480122  0.2323352460373 1.0
C      1  0.6120014289217  0.8305889086115  0.2453571077770 1.0
C      1  0.7844693972359  0.8459712059910  0.2783526745075 1.0
C      1  0.8088254624129  0.8417888346443  0.4743614730354 1.0
C      1  0.6280384692784  0.8437013877478  0.7150946979709 1.0
C      1  0.4814734504741  0.8119834974306  0.8255773367382 1.0
C      1  0.3105565616615  0.8317451889766  0.7504066404325 1.0
C      1  0.2330127938574  0.8416222973636  0.5008590268176 1.0
C      1  0.3626991096931  0.7840930678108  0.4418694659383 1.0
C      1  0.4392714708140  0.7472857311238  0.3821008483094 1.0
C      1  0.5276394216465  0.7434590603862  0.3662787162828 1.0
C      1  0.6165206608307  0.7842881090042  0.3913569781138 1.0
C      1  0.6367300176129  0.7572239931234  0.4881135782631 1.0
C      1  0.5969613576657  0.7594236151483  0.5695322411999 1.0
C      1  0.5163563976463  0.8005924877573  0.6149838307209 1.0
C      1  0.4272604519339  0.7513513315885  0.6083495308231 1.0
C      1  0.3711131967237  0.7461320621002  0.5364686872371 1.0
C      1  0.2129504942840  0.6878646368711  0.3651531462156 1.0
C      1  0.3692583775305  0.6655785059799  0.2478589661805 1.0
C      1  0.5722395228854  0.6698782156321  0.2149152008225 1.0
C      1  0.7502798751450  0.6850175947348  0.2986349677959 1.0
C      1  0.7997308325144  0.6764355326787  0.4984818607398 1.0
C      1  0.6923703657600  0.6937348275717  0.6967237082606 1.0
C      1  0.5207216667888  0.6463558222894  0.8121854289051 1.0
C      1  0.3281345948385  0.6671712507829  0.7439303162523 1.0
C      1  0.2060671467031  0.6845748873073  0.5523603844573 1.0
C      1  0.2868963447443  0.4822325059517  0.4186064938535 1.0
C      1  0.3769100445144  0.4347392948517  0.2753553246106 1.0
C      1  0.5462499655602  0.4425182253096  0.2596520410696 1.0
C      1  0.6757056087584  0.4814036395752  0.3648755267115 1.0
C      1  0.7541675769181  0.4540726164173  0.5170174364323 1.0
C      1  0.6858361489185  0.4552199852956  0.6778419441891 1.0
C      1  0.5373708177529  0.4363141852548  0.7663693208608 1.0
C      1  0.3663244790379  0.4396788496914  0.7355344417822 1.0
C      1  0.2626388458368  0.4661019150240  0.5915937232754 1.0
C      1  0.7439603812359  0.5250305571889  0.7140769598207 1.0
C      1  0.5566799158661  0.4874953905571  0.8449696430355 1.0
C      1  0.3459906404405  0.5017781224216  0.8066841266546 1.0
C      1  0.1810305896545  0.5223584570819  0.5973290285395 1.0
C      1  0.1966403915651  0.5220988102937  0.4023128752716 1.0
C      1  0.3408174687705  0.4931629060652  0.2053414365678 1.0
C      1  0.5636560542515  0.5016571056888  0.1856458527676 1.0
C      1  0.7392457295836  0.5145109179379  0.2958056540279 1.0
C      1  0.8355069632540  0.5085522490787  0.5156945042254 1.0
C      1  0.7961323313204  0.7635913919795  0.2748666054255 1.0
C      1  0.8301761644659  0.7624034449143  0.5000922063240 1.0
C      1  0.6853466957214  0.7848778857136  0.7264436680328 1.0
C      1  0.5007063089670  0.7337692989029  0.8414158852370 1.0
C      1  0.2894829165083  0.7494153373253  0.7559124615684 1.0
C      1  0.1957902062529  0.7771297731465  0.5391902991763 1.0
C      1  0.1787486571421  0.7676348769883  0.3275301096304 1.0
C      1  0.3717059478902  0.7479249826521  0.2071158041648 1.0
C      1  0.5876335064451  0.7623065566650  0.2035104795945 1.0
C      1  0.5968877122351  0.1093031596242  0.4153193992137 1.0
C      1  0.6398948512563  0.1294584417672  0.4979032664365 1.0
C      1  0.6141305637898  0.1372508605793  0.5910922073441 1.0
C      1  0.5317718929320  0.1316908891435  0.6443831973917 1.0
C      1  0.4366911614744  0.1421403633166  0.6315645963194 1.0
C      1  0.3778324072936  0.1413500888470  0.5559927152370 1.0
C      1  0.3703598658221  0.1371408651225  0.4571460319661 1.0
C      1  0.4199974947798  0.1350087423285  0.3768151896094 1.0
C      1  0.5109455129267  0.1124342529763  0.3663219373151 1.0
C      1  0.3913740243996  0.3709736440042  0.5960797280804 1.0
C      1  0.3640310060095  0.3747478791676  0.5064635846590 1.0
C      1  0.3956387035225  0.3657194911081  0.4170801516281 1.0
C      1  0.4769387076760  0.3542759202918  0.3712771503940 1.0
C      1  0.5684540231037  0.3643010892611  0.3947025405624 1.0
C      1  0.6283417297064  0.3684512124741  0.4673147722279 1.0
C      1  0.6276327109294  0.3661973862182  0.5608293238756 1.0
C      1  0.5643142090822  0.3647733957978  0.6291097007042 1.0
C      1  0.4712954033071  0.3631062845885  0.6439363390690 1.0
C      1  0.5900458859685  0.2968923163384  0.9241071186851 1.0
C      1  0.3383589685649  0.3284231368755  0.9048455713764 1.0
C      1  0.1081198436641  0.3258255557841  0.6407815943513 1.0
C      1  0.0987638408411  0.3293906258716  0.4055619367837 1.0
C      1  0.3200052121496  0.3216908911134  0.1020271704544 1.0
C      1  0.5749495172767  0.3057535666204  0.1162626604244 1.0
C      1  0.8011421659597  0.2933301734517  0.2450640723504 1.0
C      1  0.9160822883649  0.3282655194153  0.4585168717836 1.0
C      1  0.8263224734335  0.3376887990216  0.7659325779401 1.0
C      1  0.5450048910372  0.1648913529810  0.2048940693814 1.0
C      1  0.7221132998973  0.1550750870791  0.3023733447409 1.0
C      1  0.7981545996480  0.2046740109744  0.4766939441348 1.0
C      1  0.7442080544236  0.2091527893905  0.6884167394709 1.0
C      1  0.5708742362023  0.1717980320813  0.8106607869495 1.0
C      1  0.3672759339102  0.2128581004461  0.7795203974309 1.0
C      1  0.2239294588471  0.2029195450688  0.6193567306269 1.0
C      1  0.2152609954762  0.2054166650322  0.4130412853880 1.0
C      1  0.3507346379006  0.2094153285491  0.2305067849517 1.0
C      1  0.3159470706210  0.5921996758795  0.8010913405673 1.0
C      1  0.1499644853451  0.6118171546059  0.5714777411190 1.0
C      1  0.1738513105130  0.6061278973515  0.3622437565234 1.0
C      1  0.3525737227507  0.5883893097236  0.1960816789655 1.0
C      1  0.5685084649441  0.5957794518702  0.1582112073427 1.0
C      1  0.7779852125755  0.6003222132098  0.2790988129189 1.0
C      1  0.8565602244744  0.6005081933201  0.5177848998595 1.0
C      1  0.7402812388450  0.6183918598439  0.7333643882153 1.0
C      1  0.5519135783989  0.5783697220252  0.8695189053438 1.0
END
