TITL C-71879-2601-10 -2.943 3375.00 -495.72820645 0 0 60 (C1) n - 1
REM
REM Run started: at 2020.12.16 04:46:16 in /rds/project/t2_vol4/rds-t2-cs072/BORA/CARBON/AIRSS/Generating-Clusters/Str-Search/Higher-Symm/Only-C60
REM VASP from code version vasp.5.4.4.18Apr17-6-g9f103f2a35 (build Oct 11 2019 16:45:47) gamma-only
REM
REM
REM
REM
REM ./C.cell (5f7b7a0d59291d2373303da1f58b8d66)
REM AIRSS Version 0.9.1 bugfix July 2018 build 013d7b7c2542+ Fri, 06 Jul 2018 19:26:36 +0100
REM compiler GCC version 4.8.5 20150623 (Red Hat 4.8.5-39)
REM options -cpp -mtune=generic -march=x86-64 -g -O0
REM seed 1316579351 204110624 -1467035645 1962320855 -28836018 1895650355 509045202 -1257177671 -956666665 1375243677 1685815727 1757758784
REM
REM C.POTCAR (d86ddea03c3ceb6dc662c8ad6801f873)
REM 
CELL 1.54180   15.00000   15.00000   15.00000   90.00000   90.00000   90.00000
LATT -1
SFAC C  
C      1  0.4655830109139  0.6795022247534  0.6354244183980 1.0
C      1  0.3959797786039  0.6718400132610  0.4025429191110 1.0
C      1  0.6353104381378  0.6758641058647  0.4568872346389 1.0
C      1  0.3713609617400  0.4632996478499  0.5337896323498 1.0
C      1  0.4878963382110  0.4276946318563  0.3712329570846 1.0
C      1  0.6685565401638  0.3812952783589  0.6270686440564 1.0
C      1  0.3075418240952  0.6279420415431  0.6180415976124 1.0
C      1  0.4951183192050  0.6341528642642  0.2724878271164 1.0
C      1  0.6778819177280  0.6205458931959  0.6100161887997 1.0
C      1  0.3837022138352  0.4540568252116  0.6902836327383 1.0
C      1  0.4087689830110  0.4520601302229  0.3013161224776 1.0
C      1  0.7305394258783  0.4629759445830  0.5106726336733 1.0
C      1  0.6498307976346  0.3338086744332  0.5451518949622 1.0
C      1  0.4121961833812  0.2967429011489  0.6230373955642 1.0
C      1  0.4858882456298  0.3260990325060  0.3760315797029 1.0
C      1  0.6952881266391  0.6255805146359  0.5158159923208 1.0
C      1  0.3911634144718  0.6200258965783  0.6593920484155 1.0
C      1  0.4174528789259  0.6216980762466  0.3211163229896 1.0
C      1  0.6266061812186  0.6819785200224  0.6572326446697 1.0
C      1  0.2817832259739  0.6399331526487  0.5283090069001 1.0
C      1  0.5874414466450  0.6494597788000  0.2948182991304 1.0
C      1  0.5394510996627  0.2797250321542  0.4453802291336 1.0
C      1  0.5657824516246  0.2879522443354  0.5369052798216 1.0
C      1  0.3464201149835  0.2787393252005  0.5622589673239 1.0
C      1  0.6534359780896  0.3846402069849  0.3811401276235 1.0
C      1  0.5225844245361  0.3521512368447  0.6857152547819 1.0
C      1  0.3209770133029  0.3679380717978  0.4226559947053 1.0
C      1  0.3217957673259  0.6282748244290  0.4436521417064 1.0
C      1  0.6421110975620  0.6366256726857  0.3696862305306 1.0
C      1  0.5429833949563  0.6489940033811  0.6823212232883 1.0
C      1  0.6761627381306  0.5328609317710  0.6505391971417 1.0
C      1  0.2383349040721  0.5721566764807  0.5778181325868 1.0
C      1  0.5663442026358  0.5807670343336  0.2362784108454 1.0
C      1  0.7217472761037  0.5461236923774  0.4668449098678 1.0
C      1  0.4284285790137  0.5412804186173  0.7033311681593 1.0
C      1  0.3654758476359  0.5378622636315  0.3259509210001 1.0
C      1  0.5519408017600  0.7149314838333  0.4830315238823 1.0
C      1  0.4830528905716  0.7149691362661  0.5493882466423 1.0
C      1  0.4597141258137  0.7152879523168  0.4578683152182 1.0
C      1  0.5084443705375  0.2886647097004  0.6136034893103 1.0
C      1  0.3233509355530  0.3003376241635  0.4844331953061 1.0
C      1  0.5863730587993  0.3136471989441  0.3727301694305 1.0
C      1  0.3232555852407  0.4550587468051  0.6111534858014 1.0
C      1  0.5034510869251  0.4474435788293  0.2786922571397 1.0
C      1  0.7173800801573  0.4598069701214  0.6055594708604 1.0
C      1  0.4263963867423  0.3705325313121  0.6906948795943 1.0
C      1  0.3894838436848  0.3667137726058  0.3529560620965 1.0
C      1  0.6904834076929  0.3838570293346  0.4712495254382 1.0
C      1  0.5984477577128  0.4048629674395  0.6887184598608 1.0
C      1  0.2968141124894  0.4625212298730  0.4637604774369 1.0
C      1  0.6535009571751  0.4704328873093  0.3314251036008 1.0
C      1  0.5246476699225  0.5583010439583  0.7145182756381 1.0
C      1  0.3100502722153  0.5412155571897  0.4013924143601 1.0
C      1  0.6862873803324  0.5493959869968  0.3773990197478 1.0
C      1  0.4572157163433  0.4858664191756  0.5201447318904 1.0
C      1  0.5079330950055  0.4808366941411  0.4450516019539 1.0
C      1  0.5457963383017  0.5209028832597  0.5200703167003 1.0
C      1  0.5832816149130  0.4897736953425  0.2628368071651 1.0
C      1  0.6008182123489  0.5014009535688  0.7037781592124 1.0
C      1  0.2439550580837  0.4805911645029  0.5583971304854 1.0
END
