TITL C-71916-9403-1 -8.63 3375.00 -1539.66014709 0 0 186 (C1) n - 1
REM
REM Run started: at 2020.11.23 22:55:31 in /rds/project/t2_vol4/rds-t2-cs072/BORA/CARBON/AIRSS/Generating-Clusters/Str-Search/Higher-Symm
REM VASP from code version vasp.5.4.4.18Apr17-6-g9f103f2a35 (build Oct 11 2019 16:45:47) gamma-only
REM
REM
REM
REM
REM ./C.cell (e5ae0387ce4d49c7c0135a1433873289)
REM AIRSS Version 0.9.1 bugfix July 2018 build 013d7b7c2542+ Fri, 06 Jul 2018 19:26:36 +0100
REM compiler GCC version 4.8.5 20150623 (Red Hat 4.8.5-39)
REM options -cpp -mtune=generic -march=x86-64 -g -O0
REM seed 1709505065 39716164 -189309626 -1744071503 -610777646 644078953 1054883176 -322294205 -1706630256 -597943285 2034216786 935888353
REM
REM C.POTCAR (d86ddea03c3ceb6dc662c8ad6801f873)
REM 
CELL 1.54180   15.00000   15.00000   15.00000   90.00000   90.00000   90.00000
LATT -1
SFAC C  
C      1  0.2428742438945  0.5557617830081  0.7659250321678 1.0
C      1  0.2296407784954  0.3232039898029  0.7173335644198 1.0
C      1  0.2279331985081  0.2214933775376  0.5010494970097 1.0
C      1  0.2610198220806  0.3428518251034  0.2956176961458 1.0
C      1  0.2394199316998  0.5658309320956  0.2304510458929 1.0
C      1  0.2386771280782  0.7462283802840  0.3823242613121 1.0
C      1  0.2399669240183  0.7391171008793  0.6229528746637 1.0
C      1  0.6262389707977  0.6391737215323  0.2033444346835 1.0
C      1  0.6107329920709  0.8103784513608  0.3596196464680 1.0
C      1  0.6570326348118  0.8160448709424  0.6987869397940 1.0
C      1  0.6251780746376  0.5211297411541  0.8141557694471 1.0
C      1  0.6165834391680  0.2390055477216  0.7189439007895 1.0
C      1  0.6062388182590  0.1697496655220  0.4319738530426 1.0
C      1  0.6848701712241  0.3104128948178  0.1612110196085 1.0
C      1  0.6992636440106  0.4852290223864  0.6353449733950 1.0
C      1  0.7346753547709  0.4343394286429  0.5517552346815 1.0
C      1  0.6911904005698  0.3270450750802  0.4046622487061 1.0
C      1  0.6994821264953  0.3929829040454  0.3434481618664 1.0
C      1  0.6936985801192  0.6226356987371  0.3787143077819 1.0
C      1  0.6645499166254  0.6798137326894  0.4463460055699 1.0
C      1  0.6708011100790  0.5758602345325  0.6033004064483 1.0
C      1  0.2963113465423  0.7106797080796  0.2261056985611 1.0
C      1  0.2715328969319  0.8525849590670  0.4845933027451 1.0
C      1  0.2774531914816  0.7211047004325  0.7778824527804 1.0
C      1  0.2998425028566  0.4322654917859  0.8415320539079 1.0
C      1  0.2880180502940  0.1916675811458  0.6637981619687 1.0
C      1  0.2882061971366  0.1834551231331  0.3667907475593 1.0
C      1  0.3035583448381  0.4178069876927  0.1591462101922 1.0
C      1  0.3012081685133  0.6269336216661  0.1849771279638 1.0
C      1  0.2764892357739  0.8377210408705  0.3926469536201 1.0
C      1  0.2755044510401  0.7833038429531  0.7061826459660 1.0
C      1  0.2984230630977  0.5247037821623  0.8421484704216 1.0
C      1  0.2883195292493  0.2466957885561  0.7396789952936 1.0
C      1  0.2813226530012  0.1501604823274  0.4529882358941 1.0
C      1  0.3033496767790  0.3359898296782  0.2041727112061 1.0
C      1  0.2308113618182  0.7710940478203  0.5295382592119 1.0
C      1  0.2241794394741  0.6469062339367  0.7462243491580 1.0
C      1  0.2448404152145  0.4081732611546  0.7612878349828 1.0
C      1  0.2222497186802  0.2329942406105  0.5992246825763 1.0
C      1  0.2467040751535  0.2738487684173  0.3622983888440 1.0
C      1  0.2459836220363  0.4722549194473  0.2171737889670 1.0
C      1  0.2337951059566  0.6937395472038  0.3025145193423 1.0
C      1  0.7327052782699  0.7688902222475  0.2610001283770 1.0
C      1  0.6764640112869  0.8144007955923  0.5417284458717 1.0
C      1  0.6983247652625  0.6663413221504  0.7802118268876 1.0
C      1  0.6958957259231  0.3714697913112  0.7865180564479 1.0
C      1  0.6819189371547  0.1574595310516  0.5848630303357 1.0
C      1  0.7199130932496  0.2041524681382  0.2862135769630 1.0
C      1  0.7047562577400  0.4884761310519  0.1903498705774 1.0
C      1  0.6870894670380  0.2401925282098  0.2070519637853 1.0
C      1  0.6265698558592  0.5483836069909  0.1870878468664 1.0
C      1  0.6605596429011  0.8213672137595  0.2882315679983 1.0
C      1  0.6390752138327  0.8407247852616  0.6194465712081 1.0
C      1  0.6225949148813  0.6141477650978  0.8010894429260 1.0
C      1  0.6201354063457  0.3121154877529  0.7766206507160 1.0
C      1  0.6094369032452  0.1606947170622  0.5271957496685 1.0
C      1  0.4215313154766  0.1487748404382  0.5605188317665 1.0
C      1  0.4095581549045  0.2727249996847  0.3051877337500 1.0
C      1  0.4413594731098  0.5243549734228  0.1714763714074 1.0
C      1  0.4223874487128  0.8027910555138  0.3042873767783 1.0
C      1  0.3824889113165  0.8180037458903  0.5949910716752 1.0
C      1  0.4285705107596  0.6341194128741  0.8170479334008 1.0
C      1  0.4322962519785  0.3288182800937  0.8049938856614 1.0
C      1  0.4667529946160  0.7673852592766  0.5956536708616 1.0
C      1  0.5215942939414  0.6057625134109  0.7700351812927 1.0
C      1  0.5219013998459  0.3400602435588  0.7528671686000 1.0
C      1  0.5124455953130  0.1984314467415  0.5401325351783 1.0
C      1  0.4970097707265  0.3156343324350  0.3257193997929 1.0
C      1  0.5314787455883  0.5376203574375  0.2265904813517 1.0
C      1  0.5101009172062  0.7680637192160  0.3561456540111 1.0
C      1  0.3758256676207  0.6159685172938  0.3718901306207 1.0
C      1  0.3537258447910  0.6390565483838  0.5387080088775 1.0
C      1  0.3648362348364  0.5871590091311  0.6249314090705 1.0
C      1  0.3609310085628  0.4072026446136  0.6229355664017 1.0
C      1  0.3366222562624  0.3543184218654  0.5416223510720 1.0
C      1  0.3593864582041  0.3898247455146  0.4521972190737 1.0
C      1  0.3653179095703  0.5174888700157  0.3649452585031 1.0
C      1  0.5110755368045  0.3838591710241  0.2683605837223 1.0
C      1  0.5312663162979  0.6410782916476  0.2463533690233 1.0
C      1  0.4802121824908  0.7881129979622  0.4469258202062 1.0
C      1  0.4794746001920  0.7250127405074  0.6741566926280 1.0
C      1  0.5291305759362  0.5013708197737  0.7861923701102 1.0
C      1  0.5204324979941  0.2603877942228  0.6879224546058 1.0
C      1  0.5134512786027  0.2112935342513  0.4395449108001 1.0
C      1  0.7493337305429  0.2410499336860  0.4135463290933 1.0
C      1  0.7749872552576  0.4003980881509  0.2742362647235 1.0
C      1  0.7597155860607  0.6407032353710  0.2987672547401 1.0
C      1  0.7788847059383  0.7910602472384  0.4502813060237 1.0
C      1  0.7905239455258  0.7192067149989  0.6883946759548 1.0
C      1  0.7618459891394  0.4779104988386  0.7187851135233 1.0
C      1  0.7767624589042  0.2299342049790  0.6535543637796 1.0
C      1  0.8381641279662  0.3392338052532  0.3249046692438 1.0
C      1  0.8194107894037  0.5642649261028  0.3027958704068 1.0
C      1  0.8351135917698  0.7309015776974  0.4040193139084 1.0
C      1  0.8157975967832  0.7253462237659  0.5981904496078 1.0
C      1  0.8190405166261  0.5590123958585  0.6951268866636 1.0
C      1  0.7974952840984  0.3226291395789  0.6566192049890 1.0
C      1  0.8035477973957  0.2389998729971  0.4942033256646 1.0
C      1  0.1684231234051  0.4600481529200  0.3955590668660 1.0
C      1  0.1610865322282  0.5586778745542  0.3938437941770 1.0
C      1  0.1663252444301  0.6168304350922  0.4739781641053 1.0
C      1  0.1959239853990  0.5721304608783  0.5663882994361 1.0
C      1  0.1715406709519  0.4830506059315  0.6190794955621 1.0
C      1  0.1621826246505  0.3981329576144  0.5725718633111 1.0
C      1  0.1643666519811  0.3857424151389  0.4688766363495 1.0
C      1  0.4608005249062  0.3905784756965  0.4616561883230 1.0
C      1  0.4676445165448  0.4992274614825  0.3818112726842 1.0
C      1  0.4697633308690  0.6041721902369  0.4090419701132 1.0
C      1  0.4548539628215  0.6299040107745  0.5090808988392 1.0
C      1  0.4580298151009  0.5613070597113  0.6092995128503 1.0
C      1  0.4581631263128  0.4469620645785  0.6256745302775 1.0
C      1  0.4848434403282  0.3726321399541  0.5595483272856 1.0
C      1  0.4461939992495  0.6776087594049  0.2046097401718 1.0
C      1  0.4189130710204  0.8632403165757  0.4488417160985 1.0
C      1  0.4185381454196  0.7658814369959  0.7359777726961 1.0
C      1  0.4477921124970  0.4816709404013  0.8427082307220 1.0
C      1  0.4351868138858  0.2091993349312  0.7076466678407 1.0
C      1  0.4327818732517  0.1613017577161  0.4084145481180 1.0
C      1  0.4499513819681  0.3709689818881  0.1936239952710 1.0
C      1  0.3915816068024  0.3009743695025  0.2131706903065 1.0
C      1  0.3948873917440  0.6065988205771  0.1706249285127 1.0
C      1  0.3705020501129  0.8525196348567  0.3645040371388 1.0
C      1  0.3588115814423  0.8253635262501  0.6907740470077 1.0
C      1  0.3908750280109  0.5556621365176  0.8493353021772 1.0
C      1  0.3827148971297  0.2569516109500  0.7698467477562 1.0
C      1  0.3760337628294  0.1332512785725  0.4814492957667 1.0
C      1  0.3607205660300  0.8764074231152  0.5196267015216 1.0
C      1  0.3766848715997  0.7098822661299  0.7997451907916 1.0
C      1  0.3954094398778  0.4035983180006  0.8455581016518 1.0
C      1  0.3820778602031  0.1648285246213  0.6447409615726 1.0
C      1  0.3827187979765  0.1844478331962  0.3370349714319 1.0
C      1  0.4016041720276  0.4430493484585  0.1536607535898 1.0
C      1  0.3891255494081  0.7469717462570  0.2356178367290 1.0
C      1  0.6431735782479  0.6084083564312  0.5145179967612 1.0
C      1  0.5991161081684  0.6255028182411  0.6122256176547 1.0
C      1  0.6143491668046  0.4295373975246  0.6332087444799 1.0
C      1  0.6367767902671  0.3965052401236  0.5474226291370 1.0
C      1  0.6109169401190  0.3664136908459  0.4481166705450 1.0
C      1  0.6251583294332  0.4542658414341  0.3771933244791 1.0
C      1  0.6734643507093  0.5350686859971  0.4295151157257 1.0
C      1  0.7863317985317  0.6372125841662  0.7368245708399 1.0
C      1  0.7702214071343  0.3771506149375  0.7257350572625 1.0
C      1  0.7756726239193  0.1898264866476  0.5663931837046 1.0
C      1  0.7970826471869  0.2534516626887  0.3274288815926 1.0
C      1  0.7818284094251  0.4964278050608  0.2537162086475 1.0
C      1  0.8026697259712  0.7278927499917  0.3168094959827 1.0
C      1  0.7713044593389  0.7905960817239  0.5419179449315 1.0
C      1  0.6861677257687  0.1958118328645  0.6726664392172 1.0
C      1  0.6801735483673  0.1811893026650  0.3734973147093 1.0
C      1  0.7154862853870  0.3941428962962  0.1886160997091 1.0
C      1  0.7064934091342  0.6844159284370  0.2255563492523 1.0
C      1  0.6696147091787  0.7816125747357  0.4447759100107 1.0
C      1  0.7086758226625  0.7526512540593  0.7365211359788 1.0
C      1  0.6965722671987  0.4658631932807  0.7983709587189 1.0
C      1  0.8106225049333  0.3699887848650  0.5727901591761 1.0
C      1  0.8467937044474  0.3281244785007  0.4955355781958 1.0
C      1  0.8586006438058  0.3789845775666  0.4157185652998 1.0
C      1  0.8610787729978  0.5639225473097  0.3923293760035 1.0
C      1  0.8593624296092  0.6444984498878  0.4489288780850 1.0
C      1  0.8533323475485  0.6447481046415  0.5512961286590 1.0
C      1  0.8569761770511  0.5686508849198  0.6076541467388 1.0
C      1  0.5291460622414  0.4323222927814  0.7013811539646 1.0
C      1  0.5093048947445  0.2874216715650  0.5905382275183 1.0
C      1  0.5209291695260  0.3179251494785  0.4194543185107 1.0
C      1  0.5376390744407  0.4721645867673  0.3112470952405 1.0
C      1  0.5209780533676  0.6673990040289  0.3444909385302 1.0
C      1  0.4871846857847  0.7264299885958  0.5149016997682 1.0
C      1  0.5170168011323  0.6301438195039  0.6701941605518 1.0
C      1  0.1920133989703  0.2969020859242  0.4419771761448 1.0
C      1  0.2188317464155  0.4319953053620  0.3100467204849 1.0
C      1  0.1948559252504  0.6040711781870  0.3087355427484 1.0
C      1  0.1919322583845  0.7086377860443  0.4634101852166 1.0
C      1  0.2156947721404  0.6440563120586  0.6433344366307 1.0
C      1  0.1966444071906  0.4837957388564  0.7147973286537 1.0
C      1  0.1840992755903  0.3189161808514  0.6309218647185 1.0
C      1  0.3209316009956  0.7317742894464  0.5620021667385 1.0
C      1  0.2970237318075  0.5944854597541  0.6838402304209 1.0
C      1  0.3087577343770  0.3895404690306  0.6917132075189 1.0
C      1  0.2937027580418  0.2785213799807  0.5445651410293 1.0
C      1  0.3367879682364  0.3316140081482  0.3650714204305 1.0
C      1  0.2959549453406  0.4943313807436  0.3005062129964 1.0
C      1  0.3128370702638  0.6773626169232  0.3712476340655 1.0
C      1  0.3275658053917  0.4903327747055  0.4559028177864 1.0
C      1  0.2975622814182  0.5548486141372  0.5192285671998 1.0
C      1  0.7546804789915  0.4869068352760  0.4722377608559 1.0
C      1  0.8397876878475  0.4770623241126  0.4326364914749 1.0
END
