TITL C-72528-1438-7 -6.901 3375.00 -1241.35318553 0 0 154 (C1) n - 1
REM
REM Run started: at 2020.11.21 10:55:12 in /rds/project/t2_vol4/rds-t2-cs072/BORA/CARBON/AIRSS/Generating-Clusters/Str-Search/Higher-Symm
REM VASP from code version vasp.5.4.4.18Apr17-6-g9f103f2a35 (build Oct 11 2019 16:45:47) gamma-only
REM
REM
REM
REM
REM ./C.cell (e5ae0387ce4d49c7c0135a1433873289)
REM AIRSS Version 0.9.1 bugfix July 2018 build 013d7b7c2542+ Fri, 06 Jul 2018 19:26:36 +0100
REM compiler GCC version 4.8.5 20150623 (Red Hat 4.8.5-39)
REM options -cpp -mtune=generic -march=x86-64 -g -O0
REM seed 868443245 2116114484 367474062 414227259 862162347 608745093 423367321 -1738268827 -1755349474 -1697476661 366822873 -1914801136
REM
REM C.POTCAR (d86ddea03c3ceb6dc662c8ad6801f873)
REM 
CELL 1.54180   15.00000   15.00000   15.00000   90.00000   90.00000   90.00000
LATT -1
SFAC C  
C      1  0.4510909360599  0.6640901022485  0.7979869028241 1.0
C      1  0.2892412755019  0.6644416872539  0.7253036408659 1.0
C      1  0.2018760496929  0.6638970870595  0.5806365964812 1.0
C      1  0.2037821947183  0.6649581714424  0.4015182219667 1.0
C      1  0.3014211804667  0.6712559181986  0.2646691581678 1.0
C      1  0.4658349739961  0.6709329821958  0.1928170787458 1.0
C      1  0.6273321613727  0.6750071591640  0.2317597306991 1.0
C      1  0.7541888145383  0.6784602496388  0.3424737702659 1.0
C      1  0.8237479928377  0.6751153360082  0.5038670741502 1.0
C      1  0.7602443761064  0.6671847660166  0.6680090504334 1.0
C      1  0.6203999879748  0.6707049510774  0.7810092271123 1.0
C      1  0.6427889837672  0.2316424177218  0.7103973985688 1.0
C      1  0.5124014672852  0.2401843564842  0.7551661987609 1.0
C      1  0.3664340816737  0.2333253694862  0.7177863863379 1.0
C      1  0.2612092328716  0.2400627471431  0.6190146024812 1.0
C      1  0.2309137055384  0.2324468888504  0.4727339873508 1.0
C      1  0.2963961464426  0.2459877007749  0.3412901488769 1.0
C      1  0.4197392128853  0.2429095674252  0.2690246422809 1.0
C      1  0.5676860892067  0.2429049177720  0.2575196683964 1.0
C      1  0.6865336784557  0.2351965829046  0.3287722686235 1.0
C      1  0.7542999852637  0.2374312200317  0.4589320760648 1.0
C      1  0.7360756771112  0.2345182039601  0.5969751779788 1.0
C      1  0.2310165982592  0.2844128773791  0.3954219276036 1.0
C      1  0.3401217347923  0.2894172311702  0.2712929738513 1.0
C      1  0.4930516695435  0.2998400412087  0.2462431858490 1.0
C      1  0.6533335676614  0.2791139999025  0.2537535346827 1.0
C      1  0.7336295192914  0.2968491758025  0.3856450042835 1.0
C      1  0.7949742352968  0.2726947164109  0.5353860945156 1.0
C      1  0.6976716709273  0.2927253897639  0.6619314203655 1.0
C      1  0.5957398587864  0.2777917758665  0.7761770715841 1.0
C      1  0.4332378306348  0.2914794963496  0.7551009309644 1.0
C      1  0.2882167986463  0.2801703299550  0.6991959720600 1.0
C      1  0.2129293551764  0.2814734941814  0.5499965883496 1.0
C      1  0.3612440679080  0.6942255496296  0.4708175305042 1.0
C      1  0.3922409225303  0.6473232524020  0.3996750072826 1.0
C      1  0.4643174101291  0.6908375504964  0.3599206633165 1.0
C      1  0.5411152165890  0.6427158979306  0.3640757819318 1.0
C      1  0.6062798776637  0.6887237236556  0.4131158492283 1.0
C      1  0.6410979115162  0.6374303490731  0.4782952284256 1.0
C      1  0.6265436495801  0.6817036998797  0.5606507737016 1.0
C      1  0.5736347393538  0.6330538004538  0.6152293502822 1.0
C      1  0.4923041960705  0.6780476306349  0.6301218064670 1.0
C      1  0.4248239688738  0.6214847340891  0.6096238285519 1.0
C      1  0.3659362710791  0.6316726766593  0.5420245968396 1.0
C      1  0.2278754209527  0.6050174497036  0.6630143012839 1.0
C      1  0.1825933809079  0.6178862476971  0.4903228224903 1.0
C      1  0.2354328025818  0.6130496853207  0.3155789027863 1.0
C      1  0.3794450263216  0.6216601133413  0.2155323475960 1.0
C      1  0.5566012454740  0.6185902962752  0.1867999890225 1.0
C      1  0.6985621158767  0.6304161260376  0.2767214286346 1.0
C      1  0.8100133903395  0.6278461255973  0.4127153726799 1.0
C      1  0.8084805438775  0.6097381032894  0.5970104017211 1.0
C      1  0.7013427246426  0.6243799259272  0.7419726126408 1.0
C      1  0.5375059879238  0.6092679422589  0.8116887843008 1.0
C      1  0.3595303712568  0.6206729641751  0.7838765316357 1.0
C      1  0.3029283565333  0.7542394924932  0.3150293676958 1.0
C      1  0.4878897995172  0.7520107255782  0.2307453712574 1.0
C      1  0.5834893972043  0.7623743825328  0.2498836866885 1.0
C      1  0.7291740555890  0.7648838701393  0.3538796229884 1.0
C      1  0.7688037719398  0.7495821657254  0.5253631286795 1.0
C      1  0.7357386101197  0.7428524377326  0.6189535228691 1.0
C      1  0.5802032942873  0.7484952624477  0.7454201768802 1.0
C      1  0.4822607816821  0.7413156410520  0.7538715348431 1.0
C      1  0.3009846204936  0.7418514899156  0.6776284975252 1.0
C      1  0.2445251058857  0.7461000336645  0.5965404465423 1.0
C      1  0.2467661298600  0.7468980238467  0.3952088042358 1.0
C      1  0.3160845064054  0.1766529477357  0.4827305087483 1.0
C      1  0.3578946484086  0.1825215371404  0.3934884360804 1.0
C      1  0.4428522669562  0.1816727040932  0.3402542749778 1.0
C      1  0.5442429060802  0.1804229994430  0.3340585917655 1.0
C      1  0.6291925706978  0.1759965117464  0.3821664880073 1.0
C      1  0.6749881153395  0.1762436870132  0.4709443502185 1.0
C      1  0.6628665100951  0.1737648799638  0.5669085663378 1.0
C      1  0.5979967859704  0.1728025957115  0.6447086808552 1.0
C      1  0.5049604545793  0.1775416141890  0.6750169515893 1.0
C      1  0.4057068218033  0.1758571708221  0.6505096799631 1.0
C      1  0.3344890412712  0.1787451996016  0.5795514913924 1.0
C      1  0.3180429247110  0.4750177244400  0.2357964281854 1.0
C      1  0.4851994770728  0.4795065854254  0.1812535035957 1.0
C      1  0.6726080615114  0.4668247025550  0.2133957285995 1.0
C      1  0.7820557284542  0.4795678997906  0.3154203775236 1.0
C      1  0.8277410251858  0.4442363864597  0.5666458580301 1.0
C      1  0.7493239494186  0.4772227475176  0.7021090635259 1.0
C      1  0.6132598631518  0.4713972816582  0.8086655859809 1.0
C      1  0.4201940354852  0.4741336049772  0.8159670764519 1.0
C      1  0.2641008116999  0.4687258967787  0.7335178875822 1.0
C      1  0.1847141256839  0.4710064031349  0.5579963453058 1.0
C      1  0.2055615286582  0.4753363371789  0.3866586398366 1.0
C      1  0.8277582672809  0.5080386101638  0.6344965871702 1.0
C      1  0.7072879612811  0.5247724450601  0.7819389290739 1.0
C      1  0.5207857274001  0.5079387548464  0.8511912397304 1.0
C      1  0.3274957336507  0.5206797961285  0.8090144998777 1.0
C      1  0.1871171687141  0.5037776966844  0.6638468848025 1.0
C      1  0.1523062403130  0.5177151880482  0.4700533342065 1.0
C      1  0.2297788283988  0.5111855206839  0.2874000309161 1.0
C      1  0.3852858690637  0.5226874282359  0.1692922547303 1.0
C      1  0.5879217209807  0.5109536567374  0.1659240545481 1.0
C      1  0.7678966315405  0.4990709882477  0.2175952445583 1.0
C      1  0.8301169616348  0.5296381028205  0.3869596530236 1.0
C      1  0.7820220240488  0.3711422982361  0.5414898670850 1.0
C      1  0.6974415769449  0.3865453833866  0.6930166347384 1.0
C      1  0.6121943348966  0.3810016655477  0.7560834360815 1.0
C      1  0.4052760456240  0.3849619872971  0.7647151794790 1.0
C      1  0.3126107307322  0.3796150497476  0.7113464935388 1.0
C      1  0.2272661026726  0.3795822448508  0.5265117561021 1.0
C      1  0.2405788040321  0.3836305938504  0.4213473014145 1.0
C      1  0.3652640795915  0.3876787736328  0.2664726334809 1.0
C      1  0.4655894537779  0.3926454149849  0.2295352966288 1.0
C      1  0.6622964022090  0.3800820332416  0.2739352478405 1.0
C      1  0.7389028867274  0.3894937805393  0.3457149520835 1.0
C      1  0.4526836434463  0.3628136762251  0.6754440359303 1.0
C      1  0.3695928956555  0.3895887339859  0.6179207897575 1.0
C      1  0.3310964551781  0.3701239863035  0.5284909285299 1.0
C      1  0.3450822588820  0.3816517323456  0.4385032264259 1.0
C      1  0.4111018416733  0.4040249734992  0.3622133910758 1.0
C      1  0.5016630467828  0.3725959270981  0.3268046346083 1.0
C      1  0.5969228128431  0.4004184364274  0.3539443630211 1.0
C      1  0.6664158630663  0.3695842219249  0.4233224661277 1.0
C      1  0.6791284809260  0.3956744762257  0.5243506254023 1.0
C      1  0.6349069486701  0.3634929056035  0.6131201148544 1.0
C      1  0.5481852149948  0.3929973390108  0.6692095400072 1.0
C      1  0.3139887441072  0.8045604187227  0.5537622984421 1.0
C      1  0.3259294532633  0.7855937762145  0.4535493443221 1.0
C      1  0.3690142834611  0.8123866371804  0.3562343170440 1.0
C      1  0.4643385320358  0.7857029686648  0.3286865626114 1.0
C      1  0.5718025998363  0.8121714754356  0.3306889137785 1.0
C      1  0.6423123955959  0.7828100899720  0.4024369933619 1.0
C      1  0.6903387687359  0.8048375566504  0.4964327444633 1.0
C      1  0.6439477723121  0.7775411145416  0.5898223564678 1.0
C      1  0.5770929903930  0.8017894087741  0.6630619240315 1.0
C      1  0.4719869830720  0.7738321216142  0.6570567784579 1.0
C      1  0.3720880113882  0.7950239493381  0.6306028368001 1.0
C      1  0.7609321701016  0.5442503805766  0.4506766128573 1.0
C      1  0.7599075731220  0.5327154643003  0.5486512639330 1.0
C      1  0.6793960187329  0.5437738380010  0.6868204917588 1.0
C      1  0.5489340647732  0.5249113813538  0.7593521832998 1.0
C      1  0.4011675848381  0.5386603606615  0.7444032749515 1.0
C      1  0.2826717993093  0.5214359117834  0.6547014529869 1.0
C      1  0.2403160574376  0.5381467101878  0.5133867222652 1.0
C      1  0.2781595531573  0.5388854603223  0.3692500939406 1.0
C      1  0.3867559404033  0.5361164724038  0.2676255619479 1.0
C      1  0.5335119293645  0.5407589338479  0.2412612687785 1.0
C      1  0.6881973650008  0.5321249026602  0.2941568567930 1.0
C      1  0.4328946727770  0.5321372166654  0.6507982482108 1.0
C      1  0.3598532369506  0.4892488735830  0.6000674212771 1.0
C      1  0.3394201879237  0.5402998561866  0.5112211576222 1.0
C      1  0.3687528585070  0.5511768539760  0.4108348824295 1.0
C      1  0.4333357262038  0.5049659349932  0.3525135890109 1.0
C      1  0.5313694219735  0.5460434057901  0.3408151434338 1.0
C      1  0.6159867754740  0.5023912683614  0.3680687195056 1.0
C      1  0.6571735113315  0.5420333525025  0.4540462609591 1.0
C      1  0.6636022465827  0.4968292798808  0.5424249068793 1.0
C      1  0.6046642278607  0.5378840992837  0.6212569959121 1.0
C      1  0.5288611643572  0.4929850060684  0.6672462969906 1.0
END
