TITL C-72528-1438-1 -1.918 3375.00 -298.05552085 0 0 37 (C1) n - 1
REM
REM Run started: at 2020.11.21 07:25:35 in /rds/project/t2_vol4/rds-t2-cs072/BORA/CARBON/AIRSS/Generating-Clusters/Str-Search/Higher-Symm
REM VASP from code version vasp.5.4.4.18Apr17-6-g9f103f2a35 (build Oct 11 2019 16:45:47) gamma-only
REM
REM
REM
REM
REM ./C.cell (e5ae0387ce4d49c7c0135a1433873289)
REM AIRSS Version 0.9.1 bugfix July 2018 build 013d7b7c2542+ Fri, 06 Jul 2018 19:26:36 +0100
REM compiler GCC version 4.8.5 20150623 (Red Hat 4.8.5-39)
REM options -cpp -mtune=generic -march=x86-64 -g -O0
REM seed 490664367 -1011836845 1902331693 217615936 -771477267 -1929485957 -841321437 803965420 -2111579494 135934188 2117577163 -189287852
REM
REM C.POTCAR (d86ddea03c3ceb6dc662c8ad6801f873)
REM 
CELL 1.54180   15.00000   15.00000   15.00000   90.00000   90.00000   90.00000
LATT -1
SFAC C  
C      1  0.6123054573046  0.5425927286677  0.6241442922135 1.0
C      1  0.5525359521185  0.3530034406271  0.6088747456423 1.0
C      1  0.4018777022595  0.4214485348961  0.5985873936242 1.0
C      1  0.4496055518472  0.5712035656629  0.6096068557396 1.0
C      1  0.4581803969380  0.6591355961714  0.5816654616645 1.0
C      1  0.4348473343880  0.5457533352413  0.3966649204563 1.0
C      1  0.5221383558291  0.5877098758330  0.3875573063394 1.0
C      1  0.5876847221050  0.5154627148309  0.3934756487387 1.0
C      1  0.5391063937319  0.4283378357074  0.3894600744630 1.0
C      1  0.4431237818039  0.4498568840589  0.3911458994762 1.0
C      1  0.4733275916210  0.7397899144430  0.4420661756461 1.0
C      1  0.7009669027210  0.5944116717480  0.4908474183005 1.0
C      1  0.6428337339673  0.3225900947959  0.4725682914654 1.0
C      1  0.3807805405086  0.3100287752552  0.4691188188858 1.0
C      1  0.3170174021588  0.5419632425998  0.5119328981759 1.0
C      1  0.3410578788774  0.6771505514064  0.4072362143132 1.0
C      1  0.6308980697855  0.7056078168169  0.4045742851706 1.0
C      1  0.7290627423813  0.4447155576659  0.4222748060504 1.0
C      1  0.5100357091395  0.2674573492427  0.3924302241806 1.0
C      1  0.2882903680778  0.4347358071214  0.4334320823078 1.0
C      1  0.2422822062294  0.4933378901637  0.4736490857378 1.0
C      1  0.3907699609624  0.7460987471031  0.4005975852457 1.0
C      1  0.6942099808660  0.6767945631683  0.4528054951052 1.0
C      1  0.7198498135189  0.3663344186466  0.4514630537254 1.0
C      1  0.4415625611514  0.2470610064407  0.4366454925868 1.0
C      1  0.3574751048677  0.5927081355236  0.4360809924543 1.0
C      1  0.5426246452316  0.6837876423433  0.3974189641241 1.0
C      1  0.6794813508042  0.5213463265832  0.4255079575708 1.0
C      1  0.5694250905620  0.3382295711946  0.4062146870727 1.0
C      1  0.3672085633364  0.3917110825916  0.4129391428624 1.0
C      1  0.6748358705802  0.5724714105646  0.5786085997119 1.0
C      1  0.6079031905824  0.3154723201599  0.5595997070281 1.0
C      1  0.3768655774473  0.3467107898694  0.5510307113818 1.0
C      1  0.3741081569607  0.5155433990878  0.5827079525154 1.0
C      1  0.4742497425315  0.7263594612252  0.5347149292517 1.0
C      1  0.4945127091482  0.4231897468258  0.6288492220947 1.0
C      1  0.5237637876558  0.5149134957166  0.6355517086774 1.0
END
