TITL C-73608-4894-7 -7.352 3375.00 -1492.00085131 0 0 180 (C1) n - 1
REM
REM Run started: at 2020.12.24 06:43:11 in /rds/project/t2_vol4/rds-t2-cs072/BORA/CARBON/AIRSS/Generating-Clusters/Str-Search/Higher-Symm/Only-C180/Try2-6A
REM VASP from code version vasp.5.4.4.18Apr17-6-g9f103f2a35 (build Oct 11 2019 16:45:47) gamma-only
REM
REM
REM
REM
REM ./C.cell (901f2866ec5ebbefad8c960c6350b03a)
REM AIRSS Version 0.9.1 bugfix July 2018 build 013d7b7c2542+ Fri, 06 Jul 2018 19:26:36 +0100
REM compiler GCC version 4.8.5 20150623 (Red Hat 4.8.5-39)
REM options -cpp -mtune=generic -march=x86-64 -g -O0
REM seed -339254644 -1096748758 -256184724 913258279 394997526 717249301 -585811700 -402793793 -1222043548 1961095202 1337885657 -1237890697
REM
REM C.POTCAR (d86ddea03c3ceb6dc662c8ad6801f873)
REM 
CELL 1.54180   15.00000   15.00000   15.00000   90.00000   90.00000   90.00000
LATT -1
SFAC C  
C      1  0.7827132502400  0.3896201460457  0.4402672188189 1.0
C      1  0.7541029804949  0.4935126117187  0.4581447661485 1.0
C      1  0.8069517959060  0.3540043215618  0.6320641231301 1.0
C      1  0.8598009884514  0.4364686405286  0.7182015953143 1.0
C      1  0.8311191476729  0.5160467038935  0.7644973686736 1.0
C      1  0.8136735751045  0.6044453879355  0.7311545723971 1.0
C      1  0.7980056790014  0.6608231565558  0.6475611898379 1.0
C      1  0.7865219882235  0.6511228871904  0.5476641788376 1.0
C      1  0.7127833565984  0.6249078617043  0.3551464099923 1.0
C      1  0.7283682166366  0.5330013871396  0.3756129471790 1.0
C      1  0.7230241873299  0.4649702028636  0.3080271994776 1.0
C      1  0.5390320274973  0.4519955484101  0.0797162327806 1.0
C      1  0.6033588831581  0.2315243525009  0.2266842384765 1.0
C      1  0.6116023839587  0.1803592853905  0.3122749709686 1.0
C      1  0.6111557879553  0.1179986488008  0.5554254789681 1.0
C      1  0.6397895827936  0.1728016640832  0.7490028842895 1.0
C      1  0.6310885052580  0.3181588173855  0.8842688372511 1.0
C      1  0.6080318979477  0.5774539030195  0.9067312892147 1.0
C      1  0.5700851376666  0.7871468085851  0.8260220512356 1.0
C      1  0.5746513800804  0.8850048276161  0.6329129819861 1.0
C      1  0.5416314795028  0.8648521581937  0.4470975908190 1.0
C      1  0.5792622692606  0.7982678719221  0.2430488600905 1.0
C      1  0.1264792216101  0.3549661891745  0.3430072204637 1.0
C      1  0.0411444347675  0.3690111786046  0.4047680196662 1.0
C      1  0.0687639971182  0.3366697126082  0.4959204201666 1.0
C      1  0.0139488021360  0.3714211321270  0.5644237187162 1.0
C      1  0.0608997477785  0.4219934086191  0.6278296838574 1.0
C      1  0.0631186836904  0.5198507349356  0.6274984218320 1.0
C      1  0.0179228015348  0.5836168051761  0.5759172756302 1.0
C      1  0.0768215614097  0.6446706937021  0.5305086046374 1.0
C      1  0.0888172045151  0.6785707716727  0.4411714028440 1.0
C      1  0.0951124303633  0.6289369931138  0.3599077294560 1.0
C      1  0.0832103607679  0.5394062627191  0.3288641811101 1.0
C      1  0.1965187195127  0.6254361390240  0.3611192567562 1.0
C      1  0.1867318230559  0.5260442813296  0.3234183175354 1.0
C      1  0.1729170304128  0.4476123959789  0.3872477094731 1.0
C      1  0.1997012383317  0.3540482883049  0.4175202265404 1.0
C      1  0.1597082097838  0.3322941122240  0.5062911122672 1.0
C      1  0.2072419226843  0.3575958664025  0.5869069449976 1.0
C      1  0.1569796406489  0.4191674934196  0.6371406377930 1.0
C      1  0.1568974633745  0.5211476286921  0.6439102339028 1.0
C      1  0.2100290064526  0.5931852358498  0.6162509016129 1.0
C      1  0.1697669020965  0.6500655755488  0.5492252093730 1.0
C      1  0.1926334215595  0.6888305647629  0.4548987798004 1.0
C      1  0.5677867062300  0.2955172324437  0.5847650360661 1.0
C      1  0.5915830280495  0.3822601134566  0.7009831665096 1.0
C      1  0.5858606622735  0.5301677324578  0.7327504682158 1.0
C      1  0.5487086547011  0.6576398706544  0.6753000048210 1.0
C      1  0.5170834422459  0.7369930301082  0.5591255560982 1.0
C      1  0.4670804487801  0.7383367887945  0.4241000932764 1.0
C      1  0.4593801759695  0.6834666969163  0.2861898985803 1.0
C      1  0.5253195410390  0.5707883701075  0.1959455794342 1.0
C      1  0.4984670860515  0.4212475359182  0.2317370513368 1.0
C      1  0.5037142988971  0.3217874197311  0.3409433407889 1.0
C      1  0.4518341670934  0.3050562882835  0.4847364809971 1.0
C      1  0.5324002004329  0.1056944585556  0.5797419435328 1.0
C      1  0.5572655006822  0.1762576051059  0.7601760163786 1.0
C      1  0.5553002168391  0.3513539590997  0.8841813156232 1.0
C      1  0.5438313243179  0.5074146131891  0.9159982601657 1.0
C      1  0.5036475596126  0.7369102329151  0.8404695419911 1.0
C      1  0.4965037619082  0.8781304565004  0.6664797906786 1.0
C      1  0.4520924674464  0.9006573046796  0.4100189112315 1.0
C      1  0.5214095619934  0.8573247923556  0.2598578612450 1.0
C      1  0.5291116308294  0.4855032661119  0.9988304217199 1.0
C      1  0.5129882426834  0.2453483372353  0.1931228162148 1.0
C      1  0.5361037003177  0.1356963245549  0.3447293862598 1.0
C      1  0.4893636223759  0.3296265754475  0.2467971794881 1.0
C      1  0.4721541921545  0.2603188376108  0.3991232119488 1.0
C      1  0.4956121136575  0.2520459162422  0.5528539870981 1.0
C      1  0.5574299181889  0.2986078455985  0.6777380493936 1.0
C      1  0.5725396460503  0.4460923052983  0.7667356179062 1.0
C      1  0.5444393608983  0.6112658929382  0.7550746746404 1.0
C      1  0.5050243629554  0.7339511185319  0.6499202454824 1.0
C      1  0.4817702418355  0.8023501139639  0.4976965885373 1.0
C      1  0.4146629630656  0.7571569655142  0.3397231888951 1.0
C      1  0.4539463884794  0.6418634513678  0.2011443072162 1.0
C      1  0.4836071885734  0.4837585497087  0.1574080555781 1.0
C      1  0.5888820974295  0.3789905344341  0.5445517726051 1.0
C      1  0.6105690878501  0.4329968129256  0.6170531865415 1.0
C      1  0.6058867125984  0.5248329656969  0.6363270478066 1.0
C      1  0.5797482859552  0.6060131910807  0.5980391139893 1.0
C      1  0.5501133140497  0.6558647034568  0.5213649496120 1.0
C      1  0.5179957615763  0.6601973130456  0.4302606481484 1.0
C      1  0.5125187651280  0.6286137493600  0.3425289238337 1.0
C      1  0.5453299901170  0.5536879500648  0.2941621652302 1.0
C      1  0.5234496371280  0.4634546427225  0.3119529590925 1.0
C      1  0.5258051584626  0.4020670768660  0.3805925217570 1.0
C      1  0.5138685249968  0.3949907210274  0.4785968100128 1.0
C      1  0.6752861304947  0.4774915991301  0.2289326823811 1.0
C      1  0.7509664315972  0.3803277564773  0.3445882246604 1.0
C      1  0.7453680450351  0.3082247222282  0.4894491193345 1.0
C      1  0.7641660151600  0.2951246585897  0.5792911279381 1.0
C      1  0.8155749002425  0.3493141817504  0.7238749250608 1.0
C      1  0.7947297330845  0.4785693235219  0.8450749143187 1.0
C      1  0.7713432567536  0.6789536187687  0.7784885181628 1.0
C      1  0.7641873921406  0.7324590048542  0.6974784661353 1.0
C      1  0.7265002626805  0.7182962043676  0.5043611304042 1.0
C      1  0.7146864178234  0.7025459493021  0.4125147531433 1.0
C      1  0.6254090016214  0.5688369710027  0.2267058166611 1.0
C      1  0.3244992228453  0.2488842896192  0.3463016109545 1.0
C      1  0.3407072889500  0.2060326616828  0.4977208248543 1.0
C      1  0.3456329770343  0.2605177670087  0.6430707354125 1.0
C      1  0.3931865522517  0.3746774388804  0.7345448876604 1.0
C      1  0.3868411562323  0.5235671808444  0.7608135532814 1.0
C      1  0.3431290497806  0.6662954634882  0.7100882237095 1.0
C      1  0.3293379919717  0.7410723568101  0.5744906067312 1.0
C      1  0.2663584907664  0.7601691082661  0.4325915347929 1.0
C      1  0.2835815818373  0.6556780779963  0.3195691341271 1.0
C      1  0.2654074263253  0.5205827571773  0.2557498051946 1.0
C      1  0.3261252274775  0.3739536803737  0.2557889242220 1.0
C      1  0.9162175917724  0.4300325723385  0.3125605441709 1.0
C      1  0.9433071598270  0.3747487804499  0.3833561780630 1.0
C      1  0.8846469266482  0.3755247989405  0.4571234981487 1.0
C      1  0.9246866559268  0.3876937860948  0.5441476573034 1.0
C      1  0.8676203600875  0.4305438244239  0.6152833274933 1.0
C      1  0.8580766145135  0.5177677594618  0.5756915628890 1.0
C      1  0.9262450234976  0.5796416974575  0.5568074282431 1.0
C      1  0.8797771567076  0.6457726774549  0.5000474039637 1.0
C      1  0.8941895291058  0.6405412751375  0.4103430475208 1.0
C      1  0.9046306057697  0.5929853893832  0.3410098141125 1.0
C      1  0.9161980917762  0.5142428164457  0.3013616798451 1.0
C      1  0.3177702445764  0.4539277841301  0.1979011454796 1.0
C      1  0.3422726964609  0.2755164033538  0.2569548220087 1.0
C      1  0.3630001522271  0.1801777846773  0.4057459304959 1.0
C      1  0.3693604359720  0.1877068342119  0.5870930380831 1.0
C      1  0.4032116436287  0.2810738486742  0.7152207809213 1.0
C      1  0.4243048569361  0.4414291923270  0.7959067792724 1.0
C      1  0.3937036160356  0.6180756264484  0.7763814973069 1.0
C      1  0.3591062879501  0.7500272070869  0.6692956596127 1.0
C      1  0.3207760633812  0.8042082490811  0.5014879719942 1.0
C      1  0.3138083867739  0.7413612690435  0.3554423743070 1.0
C      1  0.2947667079479  0.6112388820328  0.2313487109966 1.0
C      1  0.4748693814779  0.6526117007445  0.8145077409628 1.0
C      1  0.4434310081187  0.8015080208485  0.6822425213897 1.0
C      1  0.3985347655154  0.8555396394497  0.4825496166506 1.0
C      1  0.4545135943298  0.8527153988855  0.3257012681615 1.0
C      1  0.3703997568610  0.6007201843699  0.1781345676013 1.0
C      1  0.3830744482136  0.5050266520503  0.1556569335363 1.0
C      1  0.4269080865553  0.2550729592148  0.2125252555889 1.0
C      1  0.4599820687653  0.1650084731524  0.3797449887695 1.0
C      1  0.4677020356206  0.1743914882575  0.6092611834040 1.0
C      1  0.4903481933177  0.2262771926791  0.7061670831425 1.0
C      1  0.5145809079224  0.4349798508303  0.8460412652747 1.0
C      1  0.6594818783961  0.6398134912435  0.8919435513112 1.0
C      1  0.6553335089140  0.7798828964391  0.7911361144375 1.0
C      1  0.6556536261229  0.8357833245311  0.6188578288753 1.0
C      1  0.6335032408560  0.8317226184211  0.4414581397552 1.0
C      1  0.6439699710611  0.7436146912014  0.2809781085427 1.0
C      1  0.6114872072140  0.3954375877413  0.0991047309538 1.0
C      1  0.6647909332996  0.3059705214680  0.2285348272595 1.0
C      1  0.6824984424663  0.2238592706026  0.3646953835495 1.0
C      1  0.6853383844438  0.1722641972020  0.5408992179319 1.0
C      1  0.7169656394247  0.2159197120586  0.7157327445595 1.0
C      1  0.7199738315624  0.3255877159329  0.8525975401121 1.0
C      1  0.7117564568482  0.3012855475413  0.3118641695723 1.0
C      1  0.7032495747258  0.2275190224932  0.4582157158020 1.0
C      1  0.7264068526107  0.2165484250492  0.6180541159882 1.0
C      1  0.7557915443326  0.2882572261821  0.7708054960020 1.0
C      1  0.7639363724913  0.4074047072206  0.8743193063434 1.0
C      1  0.7025052108972  0.7018663165863  0.8346245659550 1.0
C      1  0.6934080198810  0.7953949331161  0.6999065630264 1.0
C      1  0.6765362660369  0.7998713674251  0.5289084684422 1.0
C      1  0.6677696383296  0.7744610773025  0.3713830087616 1.0
C      1  0.6691444685821  0.6492495793257  0.2728839739205 1.0
C      1  0.6523280016954  0.3930514491677  0.1822442939931 1.0
C      1  0.3329093830165  0.5852316472337  0.3827849181511 1.0
C      1  0.3245755879004  0.5025983367229  0.3402075363826 1.0
C      1  0.3285291981919  0.4062292834258  0.3427990078004 1.0
C      1  0.2987052637161  0.3321428044567  0.4041034563465 1.0
C      1  0.3430561677657  0.3089118285569  0.4955799373238 1.0
C      1  0.3068279035878  0.3439428923095  0.5946309776672 1.0
C      1  0.3426186398793  0.4161345877504  0.6601648495774 1.0
C      1  0.3400611432939  0.5078103194646  0.6769790573713 1.0
C      1  0.3082826164155  0.5974782480361  0.6396872606532 1.0
C      1  0.3349520873588  0.6484414252824  0.5543909897827 1.0
C      1  0.3495883189452  0.5949794975785  0.4771045776540 1.0
C      1  0.7803424416769  0.5479447043174  0.5288868624140 1.0
C      1  0.0803920848023  0.4599552485100  0.3893776703794 1.0
C      1  0.4595546521803  0.4676917311195  0.5033518550147 1.0
C      1  0.3990577984885  0.5207398565939  0.5011864422347 1.0
END
