TITL C-74311-9526-13 -3.322 3375.00 -585.49668408 0 0 72 (C2) n - 1
REM
REM Run started: at 2020.12.04 04:13:37 in /rds/project/t2_vol4/rds-t2-cs072/BORA/CARBON/AIRSS/Generating-Clusters/Str-Search/Higher-Symm/C10-100
REM VASP from code version vasp.5.4.4.18Apr17-6-g9f103f2a35 (build Oct 11 2019 16:45:47) gamma-only
REM
REM
REM
REM
REM ./C.cell (f39ce9773e2efe3fa5bbdf770a4156b8)
REM AIRSS Version 0.9.1 bugfix July 2018 build 013d7b7c2542+ Fri, 06 Jul 2018 19:26:36 +0100
REM compiler GCC version 4.8.5 20150623 (Red Hat 4.8.5-39)
REM options -cpp -mtune=generic -march=x86-64 -g -O0
REM seed -1926682668 -193116059 -650532438 1089193651 472177779 46068564 -1417150820 -2136170620 -867785560 833632638 2016063557 -338519582
REM
REM C.POTCAR (d86ddea03c3ceb6dc662c8ad6801f873)
REM 
CELL 1.54180   15.00000   15.00000   15.00000   90.00000   90.00000   90.00000
LATT -1
SFAC C  
C      1  0.6036676217915  0.2957126245518  0.4404587847979 1.0
C      1  0.3963594443096  0.7042787824675  0.4405118373738 1.0
C      1  0.7377416718779  0.5032604656734  0.4244840882935 1.0
C      1  0.2622539475854  0.4967756945142  0.4244834762761 1.0
C      1  0.6344910356151  0.5259980975410  0.7191376344824 1.0
C      1  0.3655494301352  0.4739531113932  0.7191527919338 1.0
C      1  0.6513349169041  0.3731891448208  0.4861155243916 1.0
C      1  0.3486360889223  0.6268267818026  0.4861462923582 1.0
C      1  0.4116280553047  0.4658635485609  0.5774071535723 1.0
C      1  0.5883280771103  0.5341215455277  0.5774078507161 1.0
C      1  0.7007908152107  0.6629623670903  0.5091290099828 1.0
C      1  0.2992549145073  0.3369918181960  0.5092172905222 1.0
C      1  0.5065333647186  0.5832014491919  0.4761132268986 1.0
C      1  0.4933938377768  0.4167368657332  0.4761063003001 1.0
C      1  0.4771955765084  0.7349141913897  0.4849854210049 1.0
C      1  0.5228167595422  0.2651303698372  0.4849326626303 1.0
C      1  0.4917951071164  0.3951420992633  0.5751418837072 1.0
C      1  0.5081882528046  0.6048790996137  0.5751343534182 1.0
C      1  0.3546131111924  0.2563612782462  0.4962383743168 1.0
C      1  0.6454004056861  0.7436358757680  0.4961460214009 1.0
C      1  0.5967269685308  0.3233961116061  0.3477594993377 1.0
C      1  0.4032818503027  0.6766205045364  0.3478010896028 1.0
C      1  0.4170299426396  0.5593430113783  0.4395071478642 1.0
C      1  0.5829022278432  0.4405995850403  0.4394848021147 1.0
C      1  0.3121861979783  0.5019032639951  0.3408569485548 1.0
C      1  0.6877556282348  0.4981620623333  0.3408900838909 1.0
C      1  0.6393174647477  0.8004751991995  0.5714867175171 1.0
C      1  0.3606793750915  0.1994392945909  0.5715874531570 1.0
C      1  0.4354286255804  0.2750390395036  0.3469924091311 1.0
C      1  0.5645541597827  0.7250425473515  0.3469788746817 1.0
C      1  0.2795094229882  0.5442381239108  0.5822673254739 1.0
C      1  0.7204750326314  0.4557452262750  0.5822509418727 1.0
C      1  0.4131514356724  0.3903213048430  0.7283793227752 1.0
C      1  0.5868902185187  0.6096169776432  0.7283531673584 1.0
C      1  0.4794432855357  0.5439321842250  0.2837243881150 1.0
C      1  0.5205384832729  0.4561045752354  0.2837090317719 1.0
C      1  0.5015611062102  0.7062779256140  0.5789890747733 1.0
C      1  0.4984410042087  0.2937443340361  0.5789592515913 1.0
C      1  0.5639126393834  0.7471249599967  0.4387478898480 1.0
C      1  0.4360795316615  0.2529463092785  0.4387571398621 1.0
C      1  0.4960558142642  0.5977712273052  0.7541317587994 1.0
C      1  0.5040067584847  0.4021676731882  0.7541721071600 1.0
C      1  0.2631349921801  0.5632204202158  0.4888601151359 1.0
C      1  0.7368179264476  0.4367989979573  0.4888303123108 1.0
C      1  0.6139322981947  0.6516138436484  0.3037228710719 1.0
C      1  0.3860564918072  0.3484465882347  0.3036808098168 1.0
C      1  0.6308794462313  0.6774744247741  0.6676363033264 1.0
C      1  0.3691603691936  0.3224823527615  0.6676710395362 1.0
C      1  0.3928394321758  0.5678810487117  0.3372117894318 1.0
C      1  0.6071261346476  0.4321610099370  0.3372123081717 1.0
C      1  0.5696979084062  0.4385154018884  0.6151958861061 1.0
C      1  0.4302828350962  0.5614721002203  0.6151857138047 1.0
C      1  0.2869058785706  0.3998748627460  0.4362644113124 1.0
C      1  0.7133766277741  0.6002414180335  0.4361693635392 1.0
C      1  0.5180682285258  0.3017568270307  0.3047073884137 1.0
C      1  0.4819181827165  0.6982874343916  0.3047235583085 1.0
C      1  0.6829849245576  0.5392333593678  0.6282363029056 1.0
C      1  0.3170165081114  0.4607342487782  0.6282837455699 1.0
C      1  0.6751384163303  0.5961827352888  0.3440513192845 1.0
C      1  0.3249125681707  0.4038860250205  0.3440490039214 1.0
C      1  0.4286947739123  0.5525679201008  0.7166934990645 1.0
C      1  0.5713271548801  0.4473702183511  0.7167107792843 1.0
C      1  0.3068369493045  0.3639032328228  0.6068940547772 1.0
C      1  0.6931847992259  0.6360666598943  0.6068485501159 1.0
C      1  0.3490554890035  0.6069974038196  0.5839047045214 1.0
C      1  0.6509209163574  0.3929815031907  0.5838708251442 1.0
C      1  0.4736075846351  0.3792376929226  0.2668388489471 1.0
C      1  0.5263888522319  0.6207984635357  0.2668922286453 1.0
C      1  0.5820717571202  0.5309938960255  0.4790307992234 1.0
C      1  0.4177336096576  0.4688902447308  0.4789906790993 1.0
C      1  0.4247585088546  0.2552650840431  0.6186864888878 1.0
C      1  0.5752708274963  0.7447179292879  0.6187096966917 1.0
END
