TITL C-74311-9526-36 -4.713 3375.00 -826.09715470 0 0 100 (C1) n - 1
REM
REM Run started: at 2020.12.04 12:36:00 in /rds/project/t2_vol4/rds-t2-cs072/BORA/CARBON/AIRSS/Generating-Clusters/Str-Search/Higher-Symm/C10-100
REM VASP from code version vasp.5.4.4.18Apr17-6-g9f103f2a35 (build Oct 11 2019 16:45:47) gamma-only
REM
REM
REM
REM
REM ./C.cell (f39ce9773e2efe3fa5bbdf770a4156b8)
REM AIRSS Version 0.9.1 bugfix July 2018 build 013d7b7c2542+ Fri, 06 Jul 2018 19:26:36 +0100
REM compiler GCC version 4.8.5 20150623 (Red Hat 4.8.5-39)
REM options -cpp -mtune=generic -march=x86-64 -g -O0
REM seed -447431212 798875566 -36449267 42402704 -661813184 -1704608591 -2143347347 -495819188 777223974 833105424 912774461 -961571522
REM
REM C.POTCAR (d86ddea03c3ceb6dc662c8ad6801f873)
REM 
CELL 1.54180   15.00000   15.00000   15.00000   90.00000   90.00000   90.00000
LATT -1
SFAC C  
C      1  0.6142550847630  0.4265332170183  0.5393813327322 1.0
C      1  0.6019715896426  0.4501191931957  0.6316846377203 1.0
C      1  0.5286473052722  0.4733656054094  0.6858926496252 1.0
C      1  0.4337175169931  0.4817956158960  0.6707497283727 1.0
C      1  0.3548024943270  0.4734254193302  0.6157457150382 1.0
C      1  0.3383835442084  0.4498676692956  0.5260142271554 1.0
C      1  0.3920325274909  0.4257491709403  0.4501136055202 1.0
C      1  0.4813265437277  0.4342574156884  0.4243622365028 1.0
C      1  0.5672435213545  0.4345191324465  0.4591041872391 1.0
C      1  0.6259209856740  0.4842818120284  0.3910391116246 1.0
C      1  0.7151472677604  0.4312860056034  0.5211004729180 1.0
C      1  0.6813788354876  0.4998154438307  0.6610635906007 1.0
C      1  0.5582111090096  0.5450886314140  0.7498425101947 1.0
C      1  0.4118074216737  0.5584704004215  0.7253418992393 1.0
C      1  0.2893408713032  0.5452701917001  0.6417413626506 1.0
C      1  0.2604785524606  0.4996093869987  0.4928877604551 1.0
C      1  0.3313871848737  0.4309088918581  0.3673484039870 1.0
C      1  0.4857096256703  0.4842938871192  0.3348149114839 1.0
C      1  0.7028379818900  0.6383403333761  0.7316824104775 1.0
C      1  0.4428794330951  0.6851615511655  0.7909954701759 1.0
C      1  0.3440074502813  0.6851084402404  0.7513745453934 1.0
C      1  0.1965899634505  0.6383596244685  0.5295639597701 1.0
C      1  0.2823401536064  0.5807238731779  0.3377301593719 1.0
C      1  0.3556982004426  0.5584106699381  0.2713671186859 1.0
C      1  0.6081408208143  0.5430155803182  0.2323348005591 1.0
C      1  0.7640733456471  0.5581818107258  0.4345736861548 1.0
C      1  0.7718974802827  0.5806910699624  0.5329869518052 1.0
C      1  0.5570942770937  0.7961876723936  0.6036501448833 1.0
C      1  0.4617680748422  0.8155856240055  0.6005729485940 1.0
C      1  0.3907309713629  0.7958686052510  0.5370384177605 1.0
C      1  0.3710927088700  0.7838040043855  0.4457317660164 1.0
C      1  0.4218207343502  0.7644520960431  0.3645512551937 1.0
C      1  0.5120063894163  0.7391557081120  0.3446920061818 1.0
C      1  0.6004886231984  0.7391429434413  0.3800833140318 1.0
C      1  0.6524403405934  0.7644401713573  0.4565125795372 1.0
C      1  0.6339264766752  0.7840398409435  0.5504905416786 1.0
C      1  0.5003077998278  0.5800459008851  0.3631872229910 1.0
C      1  0.5957894369302  0.5800296264927  0.4014870263003 1.0
C      1  0.5938325241110  0.6036065862776  0.4911299260019 1.0
C      1  0.5750718864126  0.6233078599880  0.5668113385863 1.0
C      1  0.5333856923172  0.6522356571756  0.6411098149342 1.0
C      1  0.4451796452625  0.6168182687988  0.6420848345872 1.0
C      1  0.3816017730704  0.6518251879653  0.5805426620881 1.0
C      1  0.4022922792818  0.6228121795568  0.4979585831188 1.0
C      1  0.4399981163182  0.6034355751707  0.4296322512786 1.0
C      1  0.6438712633982  0.2036323899300  0.5140477548234 1.0
C      1  0.5617467521769  0.1817739006296  0.5620675018223 1.0
C      1  0.4754018312296  0.1345681434965  0.5598121741112 1.0
C      1  0.4113157511587  0.1801842889029  0.5005692763701 1.0
C      1  0.3865620230322  0.2024732516479  0.4087360268683 1.0
C      1  0.4348037546925  0.2278049358552  0.3327342113798 1.0
C      1  0.5259855615028  0.2468177189304  0.3070905089449 1.0
C      1  0.6154259062201  0.2467486402408  0.3435270393721 1.0
C      1  0.6627317458280  0.2280397879877  0.4256912924508 1.0
C      1  0.4279635788154  0.3671542073469  0.2510642352848 1.0
C      1  0.5969644636531  0.3777403326551  0.2606739631838 1.0
C      1  0.7252083494238  0.3666416918044  0.3710726397798 1.0
C      1  0.7357211053153  0.3304350428726  0.5265907744246 1.0
C      1  0.6573925035027  0.2509660852964  0.6655134280091 1.0
C      1  0.5056393122384  0.1734680138475  0.7130934681183 1.0
C      1  0.3455810764927  0.1710262256375  0.6472322169112 1.0
C      1  0.2698423041753  0.2480615939700  0.5074005619103 1.0
C      1  0.3123923864375  0.3302615266369  0.3554915288034 1.0
C      1  0.5857639862497  0.4691487973479  0.2887119158021 1.0
C      1  0.7222463341577  0.4629228344245  0.4199243168748 1.0
C      1  0.7413554700378  0.5073492506284  0.5837852459878 1.0
C      1  0.6554332594276  0.5592248676882  0.7334585867215 1.0
C      1  0.4808282445691  0.5951441055569  0.7838682591191 1.0
C      1  0.3215393214621  0.5951026737882  0.7200590618202 1.0
C      1  0.2298484231934  0.5591628059024  0.5631606555268 1.0
C      1  0.2694850356512  0.5071357673715  0.3953191212683 1.0
C      1  0.3960869378523  0.4631397124973  0.2891882831449 1.0
C      1  0.5026192423558  0.6534353998644  0.2871486894321 1.0
C      1  0.6466399284825  0.6533047450318  0.3447706967241 1.0
C      1  0.7327590267889  0.7084353759436  0.4579689891239 1.0
C      1  0.7018611369683  0.7335935868535  0.6043603195992 1.0
C      1  0.5681353760974  0.7375507450703  0.6879003278899 1.0
C      1  0.4264596675035  0.7991487388569  0.6886551636639 1.0
C      1  0.3245720760388  0.7373754394694  0.5905940005522 1.0
C      1  0.2846349664230  0.7335587237733  0.4381673236485 1.0
C      1  0.3622753749340  0.7085634005763  0.3104687231384 1.0
C      1  0.2471970800847  0.7150322555082  0.5236967990676 1.0
C      1  0.2855353769432  0.6791038484471  0.3568921749900 1.0
C      1  0.4058541583907  0.6386804675466  0.2602808468526 1.0
C      1  0.5973913002818  0.6258306643545  0.2589329351770 1.0
C      1  0.7353780501699  0.6384174434123  0.3917297604498 1.0
C      1  0.7566528311804  0.6790625490973  0.5444995111672 1.0
C      1  0.6704410498876  0.7149610181334  0.6923012816723 1.0
C      1  0.4890968751462  0.7565696464696  0.7490686776391 1.0
C      1  0.3396027325765  0.7565032195530  0.6891635260742 1.0
C      1  0.6910925084961  0.2623572949325  0.5785144661404 1.0
C      1  0.5817537865348  0.1989996492318  0.6686951867291 1.0
C      1  0.4355013327232  0.1494301887054  0.6568926880509 1.0
C      1  0.3220719147658  0.1959219013501  0.5622095746370 1.0
C      1  0.3075314173128  0.2610036034728  0.4223415483946 1.0
C      1  0.3787464365008  0.3010960701735  0.2951564157113 1.0
C      1  0.5171032254437  0.3307121829518  0.2518636630130 1.0
C      1  0.6603936964085  0.3304954673827  0.3098912533346 1.0
C      1  0.7298762054188  0.3007702628600  0.4372601901629 1.0
C      1  0.4843622831116  0.2371435662736  0.5353264389129 1.0
END
