TITL C-74311-9526-10 -1.82 3375.00 -317.39772176 0 0 40 (D5h) n - 1
REM
REM Run started: at 2020.12.04 03:36:40 in /rds/project/t2_vol4/rds-t2-cs072/BORA/CARBON/AIRSS/Generating-Clusters/Str-Search/Higher-Symm/C10-100
REM VASP from code version vasp.5.4.4.18Apr17-6-g9f103f2a35 (build Oct 11 2019 16:45:47) gamma-only
REM
REM
REM
REM
REM ./C.cell (f39ce9773e2efe3fa5bbdf770a4156b8)
REM AIRSS Version 0.9.1 bugfix July 2018 build 013d7b7c2542+ Fri, 06 Jul 2018 19:26:36 +0100
REM compiler GCC version 4.8.5 20150623 (Red Hat 4.8.5-39)
REM options -cpp -mtune=generic -march=x86-64 -g -O0
REM seed -2019709225 -251410674 1488858896 -1659477555 1785090971 -1108912216 1806605599 -1579194119 980594848 2096537810 1055201437 -1407525456
REM
REM C.POTCAR (d86ddea03c3ceb6dc662c8ad6801f873)
REM 
CELL 1.54180   15.00000   15.00000   15.00000   90.00000   90.00000   90.00000
LATT -1
SFAC C  
C      1  0.4409574536013  0.3913329804075  0.3734806494974 1.0
C      1  0.4408974587205  0.3458334963147  0.5642210086079 1.0
C      1  0.4406400230422  0.5134510492884  0.6665599434079 1.0
C      1  0.4405854010903  0.6623257171086  0.5386382544792 1.0
C      1  0.4407435558179  0.5869326165512  0.3575527866971 1.0
C      1  0.5001011132471  0.4373483778422  0.3114892407283 1.0
C      1  0.5001746109738  0.3010770629180  0.5013541056488 1.0
C      1  0.5000642906534  0.4398765282995  0.6894160033607 1.0
C      1  0.4999191146291  0.6614669322238  0.6157098710810 1.0
C      1  0.4999321479284  0.6600471620375  0.3821742735191 1.0
C      1  0.6206869587945  0.5466773634579  0.4235449471510 1.0
C      1  0.6206973835469  0.4417918113767  0.4323333092152 1.0
C      1  0.6207783388634  0.4175389200276  0.5346005512353 1.0
C      1  0.6208468102677  0.5074199019426  0.5893577608953 1.0
C      1  0.6207427868046  0.5872082678823  0.5206149554943 1.0
C      1  0.3792094782782  0.5466983719933  0.4236463134640 1.0
C      1  0.3793803635800  0.4417889470351  0.4321552922490 1.0
C      1  0.3793003207888  0.4172778651097  0.5343901243791 1.0
C      1  0.3790972474041  0.5070155163086  0.5893576065036 1.0
C      1  0.3790838703999  0.5869702833757  0.5208118129513 1.0
C      1  0.2751479835769  0.4463192512757  0.4370383797419 1.0
C      1  0.2749178675645  0.4232691980225  0.5314353779822 1.0
C      1  0.2748502852103  0.5061931494929  0.5821073540054 1.0
C      1  0.2748133033161  0.5800740796841  0.5190848267304 1.0
C      1  0.2748936625288  0.5432042678497  0.4292085073692 1.0
C      1  0.5594127863563  0.5136248699896  0.6665542044878 1.0
C      1  0.5592390338095  0.6624491721085  0.5385427539965 1.0
C      1  0.5592487918625  0.5869238548865  0.3575343153644 1.0
C      1  0.5592872359644  0.3913372577679  0.3735348391315 1.0
C      1  0.5594025082344  0.3459427316418  0.5643134063962 1.0
C      1  0.7251079350150  0.4237116887354  0.5317641964672 1.0
C      1  0.7250844436289  0.5068407711154  0.5821222880075 1.0
C      1  0.7249799142529  0.5804359989344  0.5188213530618 1.0
C      1  0.7250014190061  0.5431967833521  0.4290679058120 1.0
C      1  0.7248932880085  0.4463927061242  0.4372943008876 1.0
C      1  0.5001051304649  0.3229709626068  0.4094326228200 1.0
C      1  0.5000745865231  0.3591606149234  0.6403356975231 1.0
C      1  0.4999100799997  0.5899068222910  0.6772721121890 1.0
C      1  0.4998224830496  0.6964306393723  0.4693397730329 1.0
C      1  0.4999680331956  0.5315360083246  0.3037869744279 1.0
END
