TITL C-74311-9526-37 -1.665 3375.00 -277.49015113 0 0 34 (C1) n - 1
REM
REM Run started: at 2020.12.04 12:45:45 in /rds/project/t2_vol4/rds-t2-cs072/BORA/CARBON/AIRSS/Generating-Clusters/Str-Search/Higher-Symm/C10-100
REM VASP from code version vasp.5.4.4.18Apr17-6-g9f103f2a35 (build Oct 11 2019 16:45:47) gamma-only
REM
REM
REM
REM
REM ./C.cell (f39ce9773e2efe3fa5bbdf770a4156b8)
REM AIRSS Version 0.9.1 bugfix July 2018 build 013d7b7c2542+ Fri, 06 Jul 2018 19:26:36 +0100
REM compiler GCC version 4.8.5 20150623 (Red Hat 4.8.5-39)
REM options -cpp -mtune=generic -march=x86-64 -g -O0
REM seed 1186181791 407136931 -1011545434 -712281954 -1438042690 2011887898 1658948647 2097481158 670781168 -712008673 -462794553 -2073416627
REM
REM C.POTCAR (d86ddea03c3ceb6dc662c8ad6801f873)
REM 
CELL 1.54180   15.00000   15.00000   15.00000   90.00000   90.00000   90.00000
LATT -1
SFAC C  
C      1  0.6515876426903  0.3892638892995  0.4491886184696 1.0
C      1  0.5974549747281  0.3383867673540  0.5094726311104 1.0
C      1  0.5053846306893  0.3200980126235  0.4797764053790 1.0
C      1  0.4282732740256  0.3581481465940  0.5281186618622 1.0
C      1  0.3579514122409  0.3910469558549  0.4722572461105 1.0
C      1  0.3026846212367  0.4672845239843  0.4947186455601 1.0
C      1  0.3404138172594  0.6532980650938  0.4939625412034 1.0
C      1  0.4099492977449  0.7172581618735  0.4724221761213 1.0
C      1  0.4940143345181  0.6834595513772  0.5097201748248 1.0
C      1  0.6503172371588  0.6033464492414  0.5177255477913 1.0
C      1  0.7022612308248  0.4713374382039  0.4695656847587 1.0
C      1  0.3956066724250  0.4893356402364  0.6288734170176 1.0
C      1  0.3208846873309  0.5129439986717  0.5737513080466 1.0
C      1  0.3377749096981  0.6080468506691  0.5752709103339 1.0
C      1  0.4234679978925  0.5865062574097  0.6206052819917 1.0
C      1  0.5040864333088  0.6274550172039  0.5898967052494 1.0
C      1  0.5948740112252  0.5965978977566  0.5955738988054 1.0
C      1  0.6466313610718  0.5196863753196  0.6276411648391 1.0
C      1  0.6136806138243  0.4386664988368  0.6549021686842 1.0
C      1  0.6018315357078  0.3597498126585  0.6017778007866 1.0
C      1  0.5291489061019  0.3925920216860  0.6485645913843 1.0
C      1  0.4438356625320  0.4081976446705  0.6119635646974 1.0
C      1  0.6514658238922  0.5158324939540  0.3944666043880 1.0
C      1  0.6157225849320  0.4281389868978  0.3675417998733 1.0
C      1  0.5409957899374  0.3852263529666  0.3324093980807 1.0
C      1  0.4962928414887  0.3200526878814  0.3865317327894 1.0
C      1  0.4458930409062  0.3874178999949  0.3404585575038 1.0
C      1  0.3727315755847  0.4237492135421  0.3810659701918 1.0
C      1  0.3307475868240  0.5093712571704  0.4095035624744 1.0
C      1  0.3540479508650  0.5991408857092  0.4108744254299 1.0
C      1  0.4379607536968  0.6535841284609  0.4004642687927 1.0
C      1  0.5312935217244  0.6475654731529  0.4252316240693 1.0
C      1  0.6114853339164  0.5950902594672  0.4289718725114 1.0
C      1  0.7013754319969  0.5247826841836  0.5442360388678 1.0
END
