TITL C-74311-9526-17 -2.172 3375.00 -343.44578972 0 0 44 (C1) n - 1
REM
REM Run started: at 2020.12.04 05:21:47 in /rds/project/t2_vol4/rds-t2-cs072/BORA/CARBON/AIRSS/Generating-Clusters/Str-Search/Higher-Symm/C10-100
REM VASP from code version vasp.5.4.4.18Apr17-6-g9f103f2a35 (build Oct 11 2019 16:45:47) gamma-only
REM
REM
REM
REM
REM ./C.cell (f39ce9773e2efe3fa5bbdf770a4156b8)
REM AIRSS Version 0.9.1 bugfix July 2018 build 013d7b7c2542+ Fri, 06 Jul 2018 19:26:36 +0100
REM compiler GCC version 4.8.5 20150623 (Red Hat 4.8.5-39)
REM options -cpp -mtune=generic -march=x86-64 -g -O0
REM seed -908522824 1168181969 174549429 1677166366 -1015916846 -737107053 -501773340 669869753 -861603920 897928382 -965627499 -1957486961
REM
REM C.POTCAR (d86ddea03c3ceb6dc662c8ad6801f873)
REM 
CELL 1.54180   15.00000   15.00000   15.00000   90.00000   90.00000   90.00000
LATT -1
SFAC C  
C      1  0.3395127562615  0.3921121165099  0.4223115890371 1.0
C      1  0.5895816148381  0.3478959201595  0.5020901778273 1.0
C      1  0.5251003354208  0.3535203639175  0.7522556220792 1.0
C      1  0.3536600984778  0.4855770219448  0.3925635024334 1.0
C      1  0.6665826720489  0.4911753438239  0.6281251719312 1.0
C      1  0.5356789781403  0.4012610491935  0.4389843821437 1.0
C      1  0.5708093416683  0.4382608901206  0.7427097499182 1.0
C      1  0.6459224125383  0.4156713465889  0.6819649161452 1.0
C      1  0.7016445082643  0.5079721253199  0.3935988246642 1.0
C      1  0.3912319934897  0.4975430815464  0.2976623056674 1.0
C      1  0.6572661082175  0.5770364252715  0.3799608482312 1.0
C      1  0.4434077644582  0.7007377112754  0.4129255070456 1.0
C      1  0.4046649858592  0.2702558595598  0.4922834635501 1.0
C      1  0.4526916639777  0.5534891444815  0.7018139452478 1.0
C      1  0.5753717878163  0.3474968099371  0.6674542817487 1.0
C      1  0.5865967512545  0.6349869789517  0.4003802785027 1.0
C      1  0.4723035903752  0.6424021022226  0.2713403953022 1.0
C      1  0.4301251965404  0.4875696901085  0.5583623576571 1.0
C      1  0.3986879681050  0.6488459570242  0.5711269272704 1.0
C      1  0.2622828712183  0.4676251741060  0.4501614798305 1.0
C      1  0.5387491056093  0.3279629468578  0.5803109920127 1.0
C      1  0.3467307959212  0.7248749367886  0.5790876069313 1.0
C      1  0.5945460702158  0.5559708780051  0.6460605338408 1.0
C      1  0.4944661479330  0.4712521616109  0.4819436757375 1.0
C      1  0.3823739014919  0.3997230620188  0.5750689926660 1.0
C      1  0.4170054712245  0.5790168952502  0.2639513700510 1.0
C      1  0.3527786241779  0.7636581993934  0.5004008551873 1.0
C      1  0.7746343381875  0.3553699175383  0.4670132405067 1.0
C      1  0.5382155362173  0.5285033643313  0.7198626553243 1.0
C      1  0.4394597530502  0.3215736509398  0.5629170462687 1.0
C      1  0.3822633077881  0.7701594424186  0.4179275655674 1.0
C      1  0.5178396728612  0.3974716950397  0.3463064065806 1.0
C      1  0.7254011695848  0.4277128272958  0.4307961312657 1.0
C      1  0.4235378093591  0.5303958660340  0.4603649810544 1.0
C      1  0.6060095149148  0.6000324902756  0.5643593842110 1.0
C      1  0.5132829757198  0.6710709637656  0.3489595245898 1.0
C      1  0.4636557800624  0.4369108726467  0.2970253138366 1.0
C      1  0.4165782018200  0.5676929682734  0.6218368165174 1.0
C      1  0.3126057300685  0.4190154204229  0.5133240012846 1.0
C      1  0.4523346030076  0.6320390136105  0.4861670125788 1.0
C      1  0.5563754225197  0.6313843741024  0.4928801726013 1.0
C      1  0.7019149188384  0.5639656719396  0.5793574932438 1.0
C      1  0.3651398885857  0.3019001045459  0.4238920667658 1.0
C      1  0.6809777618712  0.3609073648320  0.4821105351435 1.0
END
