TITL C-74311-9526-20 -3.003 3375.00 -494.42635645 0 0 63 (C1) n - 1
REM
REM Run started: at 2020.12.04 07:52:05 in /rds/project/t2_vol4/rds-t2-cs072/BORA/CARBON/AIRSS/Generating-Clusters/Str-Search/Higher-Symm/C10-100
REM VASP from code version vasp.5.4.4.18Apr17-6-g9f103f2a35 (build Oct 11 2019 16:45:47) gamma-only
REM
REM
REM
REM
REM ./C.cell (f39ce9773e2efe3fa5bbdf770a4156b8)
REM AIRSS Version 0.9.1 bugfix July 2018 build 013d7b7c2542+ Fri, 06 Jul 2018 19:26:36 +0100
REM compiler GCC version 4.8.5 20150623 (Red Hat 4.8.5-39)
REM options -cpp -mtune=generic -march=x86-64 -g -O0
REM seed -813025050 -222865320 490118023 2083276210 -1724436292 1445633124 -2127477502 -816585922 -1130853365 452361346 1201768983 -1768182683
REM
REM C.POTCAR (d86ddea03c3ceb6dc662c8ad6801f873)
REM 
CELL 1.54180   15.00000   15.00000   15.00000   90.00000   90.00000   90.00000
LATT -1
SFAC C  
C      1  0.3811973111813  0.3733358967628  0.5814209426787 1.0
C      1  0.3131525234131  0.4482247814663  0.5752966163589 1.0
C      1  0.3118713486667  0.5431675957559  0.6019623195635 1.0
C      1  0.3502162605152  0.6285532348515  0.5967386311343 1.0
C      1  0.4432320222909  0.6757405565337  0.5819550326586 1.0
C      1  0.5351070431336  0.6324342674790  0.5740614722108 1.0
C      1  0.6243307617203  0.5929620950317  0.5110701653869 1.0
C      1  0.6609021334659  0.5040179808466  0.5489210397081 1.0
C      1  0.6364609894148  0.4152895687616  0.5463575399968 1.0
C      1  0.5616089201452  0.3558324783354  0.5062176567920 1.0
C      1  0.4683851014077  0.3409568448362  0.5614335674309 1.0
C      1  0.6659948451572  0.5102923528829  0.3667973860745 1.0
C      1  0.6410258559054  0.4115983106965  0.3636395913888 1.0
C      1  0.5661596085597  0.3588668583194  0.4074510998701 1.0
C      1  0.4957928861269  0.3283678572913  0.3478888242290 1.0
C      1  0.3998754554839  0.3573844284199  0.3287693841760 1.0
C      1  0.3471712973888  0.4386569553207  0.3135162751160 1.0
C      1  0.3388941974983  0.5363810528545  0.3071465653328 1.0
C      1  0.3891840797311  0.6215297115084  0.3162114855774 1.0
C      1  0.4744830209908  0.6646719642804  0.3337081363461 1.0
C      1  0.5713752514276  0.6493549079481  0.3548964283902 1.0
C      1  0.6231066057731  0.5904295957514  0.4133641659528 1.0
C      1  0.4186198743932  0.3544719748510  0.2319046817578 1.0
C      1  0.3653996305400  0.4337759479540  0.2151923613987 1.0
C      1  0.3602370755757  0.5331012299230  0.2109159570334 1.0
C      1  0.4091006005082  0.6198935671834  0.2182264297257 1.0
C      1  0.4933519414211  0.6656377719536  0.2362855048329 1.0
C      1  0.5887046162560  0.6515887184265  0.2574314037241 1.0
C      1  0.6653216521254  0.6043423935191  0.2349306599880 1.0
C      1  0.6967903635598  0.5432038926194  0.2847042331258 1.0
C      1  0.6601454336261  0.3678896549320  0.2823471553351 1.0
C      1  0.5978766684006  0.3390937135773  0.2324276434253 1.0
C      1  0.5097211616673  0.3197767499520  0.2509928924376 1.0
C      1  0.3562968905873  0.6708490291429  0.6838969244927 1.0
C      1  0.4375192013100  0.7215128264507  0.6662112193256 1.0
C      1  0.5982658040761  0.6678824758221  0.6444121812016 1.0
C      1  0.6700991570436  0.6292513585335  0.6008858199977 1.0
C      1  0.6995698065327  0.5410494189398  0.6288746455035 1.0
C      1  0.6569879567710  0.3596065841978  0.6207450909667 1.0
C      1  0.5968658125567  0.2917355125871  0.5895753720346 1.0
C      1  0.5129110159253  0.2935178024264  0.6329852136419 1.0
C      1  0.3480501387941  0.3565936957330  0.6760481886071 1.0
C      1  0.2820620636558  0.4225929131177  0.6668893649445 1.0
C      1  0.2943478015287  0.5103095667918  0.6982971901174 1.0
C      1  0.4230699639799  0.4561463177996  0.7826630432791 1.0
C      1  0.3638657740848  0.5303707219806  0.7625843108372 1.0
C      1  0.3906835814627  0.6243984522261  0.7593333366039 1.0
C      1  0.4782084840807  0.6750617399447  0.7456284377199 1.0
C      1  0.5656517033501  0.6456374132991  0.7355588372873 1.0
C      1  0.5886386335432  0.5490713679511  0.7533696729913 1.0
C      1  0.6684891492006  0.4999952895516  0.7093942939255 1.0
C      1  0.6505610293126  0.4053357912546  0.7061615623138 1.0
C      1  0.5683221320978  0.3858742680738  0.7521014944257 1.0
C      1  0.5005627115793  0.3269683613037  0.7239423090669 1.0
C      1  0.4146933695262  0.3680290755878  0.7432848135582 1.0
C      1  0.5229122553484  0.4714671514240  0.7763529002662 1.0
C      1  0.4669483108950  0.5045006236547  0.4441473501743 1.0
C      1  0.5041004475209  0.5386605070448  0.6031393296060 1.0
C      1  0.5214276245433  0.4939223940372  0.1921236027232 1.0
C      1  0.5147789392955  0.4949999053997  0.2785916962124 1.0
C      1  0.4655912769386  0.5016279640105  0.5268293777333 1.0
C      1  0.5251560737431  0.5121638080982  0.6852603005237 1.0
C      1  0.4794535532453  0.4984802527898  0.3565994707611 1.0
END
