TITL C-75168-9482-5 -1.693 3375.00 -255.22172400 0 0 32 (Ci) n - 1
REM
REM Run started: at 2020.11.24 11:19:52 in /rds/project/t2_vol4/rds-t2-cs072/BORA/CARBON/AIRSS/Generating-Clusters/Str-Search/Higher-Symm
REM VASP from code version vasp.5.4.4.18Apr17-6-g9f103f2a35 (build Oct 11 2019 16:45:47) gamma-only
REM
REM
REM
REM
REM ./C.cell (e5ae0387ce4d49c7c0135a1433873289)
REM AIRSS Version 0.9.1 bugfix July 2018 build 013d7b7c2542+ Fri, 06 Jul 2018 19:26:36 +0100
REM compiler GCC version 4.8.5 20150623 (Red Hat 4.8.5-39)
REM options -cpp -mtune=generic -march=x86-64 -g -O0
REM seed 958739420 -1689266283 1268481756 -1352151122 -305460394 1245777463 1328575174 -1770519436 367618268 1586743891 904469767 873886744
REM
REM C.POTCAR (d86ddea03c3ceb6dc662c8ad6801f873)
REM 
CELL 1.54180   15.00000   15.00000   15.00000   90.00000   90.00000   90.00000
LATT -1
SFAC C  
C      1  0.6461112355037  0.3030361191008  0.5512283748943 1.0
C      1  0.3538887786533  0.6969639117852  0.4487716806347 1.0
C      1  0.5152074173505  0.4092357058981  0.2955847833333 1.0
C      1  0.4847925323825  0.5907645290091  0.7044154226559 1.0
C      1  0.4891037118731  0.7188586086420  0.5427104112457 1.0
C      1  0.5108961989882  0.2811413456784  0.4572896610310 1.0
C      1  0.6728186113751  0.3799884000200  0.6017156611884 1.0
C      1  0.3271812857165  0.6200114839779  0.3982843312442 1.0
C      1  0.5037673651734  0.4403593237541  0.7834200920405 1.0
C      1  0.4962325564870  0.5596407448820  0.2165799951340 1.0
C      1  0.4057310907347  0.6375490081904  0.6820173617942 1.0
C      1  0.5942690661483  0.3624508792948  0.3179825675572 1.0
C      1  0.3943957200449  0.7127133488219  0.5308505072523 1.0
C      1  0.6056044496307  0.2872866092313  0.4691495488240 1.0
C      1  0.4640965531371  0.6397978375689  0.2329561292173 1.0
C      1  0.5359034891060  0.3602020545599  0.7670438529627 1.0
C      1  0.6263414720231  0.3287180360399  0.3866308825456 1.0
C      1  0.3736585692118  0.6712818247123  0.6133691714102 1.0
C      1  0.3363666109532  0.5306985488391  0.3884455122236 1.0
C      1  0.6636334192512  0.4693013880315  0.6115543626058 1.0
C      1  0.4367180105072  0.3920552302191  0.3584885716560 1.0
C      1  0.5632817181353  0.6079448077563  0.6415113816747 1.0
C      1  0.5121161556165  0.4805397399253  0.2385241054355 1.0
C      1  0.4878837892706  0.5194603385834  0.7614757594192 1.0
C      1  0.3739387780969  0.4582537044736  0.3702874966688 1.0
C      1  0.6260613122005  0.5417462962022  0.6297125226348 1.0
C      1  0.5515391090701  0.6820112050399  0.5833604884663 1.0
C      1  0.4484608953626  0.3179889237748  0.4166395922852 1.0
C      1  0.6270468829129  0.3064895478987  0.6435182052760 1.0
C      1  0.3729531218306  0.6935104961398  0.3564817378394 1.0
C      1  0.5758189497355  0.3051043276873  0.7176291264794 1.0
C      1  0.4241811435170  0.6948956742618  0.2823707023697 1.0
END
