TITL C-75691-1650-1 -12.24 3375.00 -2748.49855662 0 0 331 (C1) n - 1
REM
REM Run started: at 2020.11.24 16:50:11 in /rds/project/t2_vol4/rds-t2-cs072/BORA/CARBON/AIRSS/Generating-Clusters/Str-Search/Higher-Symm
REM VASP from code version vasp.5.4.4.18Apr17-6-g9f103f2a35 (build Oct 11 2019 16:45:47) gamma-only
REM
REM
REM
REM
REM ./C.cell (e5ae0387ce4d49c7c0135a1433873289)
REM AIRSS Version 0.9.1 bugfix July 2018 build 013d7b7c2542+ Fri, 06 Jul 2018 19:26:36 +0100
REM compiler GCC version 4.8.5 20150623 (Red Hat 4.8.5-39)
REM options -cpp -mtune=generic -march=x86-64 -g -O0
REM seed 1863999514 179321236 -1501017064 1995928401 -113575750 483376789 1931378923 -1759348903 -945789705 1141818170 -1476750440 -2076084172
REM
REM C.POTCAR (d86ddea03c3ceb6dc662c8ad6801f873)
REM 
CELL 1.54180   15.00000   15.00000   15.00000   90.00000   90.00000   90.00000
LATT -1
SFAC C  
C      1  0.8558560962567  0.4940468931607  0.7993690716449 1.0
C      1  0.5216315909553  0.7834677366141  0.8848727497482 1.0
C      1  0.8247964892635  0.8307849465183  0.5659919577518 1.0
C      1  0.1239304934324  0.4715381033071  0.7889571023149 1.0
C      1  0.8699889613450  0.4924679421553  0.2024750805617 1.0
C      1  0.1449536241742  0.5139538421228  0.1884255743200 1.0
C      1  0.4801003561775  0.1953078062378  0.8493286521697 1.0
C      1  0.5099965315168  0.2023682918076  0.1290916732442 1.0
C      1  0.4907790912066  0.7933902829000  0.1408059008090 1.0
C      1  0.1980576552931  0.1393874023643  0.4994240265034 1.0
C      1  0.7863931953581  0.1458858666995  0.4861297293856 1.0
C      1  0.1944407695574  0.8377386951180  0.4585704384820 1.0
C      1  0.5565869200336  0.7250142150971  0.2013842901278 1.0
C      1  0.7201158896994  0.1994768068569  0.5553061430616 1.0
C      1  0.1911562593844  0.5396014317480  0.7317289154083 1.0
C      1  0.4468239771755  0.2689281796586  0.1875211367032 1.0
C      1  0.5468246806751  0.2660803489077  0.7962816613847 1.0
C      1  0.4597917605059  0.7283414903006  0.8105325834852 1.0
C      1  0.2635580890187  0.8102766441404  0.5401293769014 1.0
C      1  0.7653497346494  0.8024006783442  0.4947941229757 1.0
C      1  0.2659960516459  0.1955946245827  0.4402290583723 1.0
C      1  0.7982394803041  0.4354150636053  0.7276980493761 1.0
C      1  0.1971756017091  0.4494768434584  0.2608357665133 1.0
C      1  0.8148732540858  0.5524499501054  0.2722961152557 1.0
C      1  0.6401155978644  0.5366808717583  0.0716979483921 1.0
C      1  0.5685525606854  0.0833808172380  0.6436478817188 1.0
C      1  0.0638561509198  0.7143405693347  0.6010602199311 1.0
C      1  0.3573802191733  0.4365712012600  0.0783238254065 1.0
C      1  0.6406995780352  0.4514408302446  0.9318769549384 1.0
C      1  0.2654466164281  0.5981490701747  0.9246550689496 1.0
C      1  0.4078813643984  0.9210011749311  0.7370412536603 1.0
C      1  0.5310371507362  0.9355963595322  0.3491404917498 1.0
C      1  0.4576987625818  0.0663644321236  0.3589775714821 1.0
C      1  0.9290431467263  0.3569151675651  0.5348442416608 1.0
C      1  0.0663594028251  0.3670203217920  0.4553821842825 1.0
C      1  0.9501241907093  0.7224313258193  0.4094538967403 1.0
C      1  0.3724956253802  0.4266844199561  0.5023230157765 1.0
C      1  0.3997598325299  0.4915652231144  0.3589624717899 1.0
C      1  0.4664572449309  0.3517118376182  0.3822582136599 1.0
C      1  0.6428442681397  0.6050256592367  0.4903295531167 1.0
C      1  0.3479609894267  0.6098375496020  0.5259048321280 1.0
C      1  0.6155877324831  0.4271637666797  0.4736990225640 1.0
C      1  0.5995096936754  0.4967244687443  0.3837482261661 1.0
C      1  0.3915768615475  0.5313720241626  0.6505353884738 1.0
C      1  0.5951268594314  0.5054949419001  0.6189623852050 1.0
C      1  0.5130532701659  0.6385193769980  0.4108596255278 1.0
C      1  0.5112312774173  0.6357961912760  0.5856361151319 1.0
C      1  0.5273134271166  0.3538105332058  0.6084125466319 1.0
C      1  0.3687848975533  0.8406729947311  0.6961131581457 1.0
C      1  0.8663796214717  0.6990020080337  0.3767332202920 1.0
C      1  0.7012445346532  0.3558320150067  0.8452566699863 1.0
C      1  0.6268118597673  0.1472351740354  0.7014408941326 1.0
C      1  0.3656018298335  0.1501116837411  0.2883368645189 1.0
C      1  0.6248064328411  0.8546013044369  0.2769904299879 1.0
C      1  0.1466180870160  0.2982485307874  0.3613074001378 1.0
C      1  0.8382083456617  0.2927023551024  0.6263819315214 1.0
C      1  0.1468279697811  0.6873376892090  0.6334176916092 1.0
C      1  0.3012520413348  0.6358753928350  0.8423952812644 1.0
C      1  0.7083285403112  0.6325331247876  0.1601011786561 1.0
C      1  0.2981507774540  0.3728302501954  0.1428982554265 1.0
C      1  0.7351892777825  0.5552016407444  0.0977126339497 1.0
C      1  0.5499658803843  0.0875043956390  0.7383739394915 1.0
C      1  0.0541202767473  0.7614818870921  0.5202443137791 1.0
C      1  0.2606483089688  0.4457900797159  0.0833466785296 1.0
C      1  0.7342482325453  0.4299107433649  0.9083536812533 1.0
C      1  0.2153814562306  0.5228979152141  0.9198671998898 1.0
C      1  0.4813312931752  0.9146439574487  0.7896584998159 1.0
C      1  0.5430156027703  0.9085541731311  0.2545470504162 1.0
C      1  0.4451210697454  0.0894073037511  0.2602530222655 1.0
C      1  0.8992693374159  0.2623969440247  0.5494449223226 1.0
C      1  0.0868262227690  0.2694380592539  0.4397055741227 1.0
C      1  0.9619502669543  0.7612049690395  0.4932264051549 1.0
C      1  0.3987793874812  0.7467929406374  0.1315825925445 1.0
C      1  0.7383885033361  0.1439618514020  0.3925109079579 1.0
C      1  0.1234509285132  0.3780848529538  0.7402963317492 1.0
C      1  0.6089320051403  0.2495853853628  0.1259784921097 1.0
C      1  0.3853623959326  0.2382618756996  0.8494567042704 1.0
C      1  0.6203180448962  0.7347656379128  0.8948587525348 1.0
C      1  0.2439024671803  0.8553676528764  0.3752305041364 1.0
C      1  0.7734658186414  0.8502915342050  0.6469635725549 1.0
C      1  0.2452956440190  0.1148298110332  0.5969763472519 1.0
C      1  0.8641374868638  0.5883564267762  0.7605152315618 1.0
C      1  0.1448818548685  0.6085093378831  0.2280484111068 1.0
C      1  0.8720573992106  0.3885285467910  0.2451090758251 1.0
C      1  0.3381281421462  0.2117496310539  0.5099430756865 1.0
C      1  0.2068862708786  0.5159418171980  0.3346719250697 1.0
C      1  0.5122551068815  0.3457605026983  0.1970667354445 1.0
C      1  0.6780192288072  0.8098834102628  0.5298180279163 1.0
C      1  0.3441957829168  0.8068732141228  0.4822341918931 1.0
C      1  0.6287699596335  0.1933698275521  0.5049544443882 1.0
C      1  0.8107372140542  0.4855080238578  0.3446591298322 1.0
C      1  0.2011797658776  0.4803272868787  0.6524764899566 1.0
C      1  0.7940228787919  0.5038132148622  0.6550949957480 1.0
C      1  0.4918895231813  0.6510386047435  0.2079788579550 1.0
C      1  0.5260628034793  0.6548817036955  0.8043762675168 1.0
C      1  0.4832042424063  0.3442615950586  0.7945261431114 1.0
C      1  0.3215659692819  0.3677418507571  0.2933905176002 1.0
C      1  0.3901585209066  0.3090882583839  0.3302232347791 1.0
C      1  0.3005913907912  0.3201648400726  0.3620149985933 1.0
C      1  0.6907531781142  0.6249347119175  0.3330413236340 1.0
C      1  0.3271199507689  0.6092109143512  0.6812265556977 1.0
C      1  0.6434173229521  0.3829918531601  0.6961362299904 1.0
C      1  0.6329590581496  0.7062190068478  0.3553035733060 1.0
C      1  0.4051287920860  0.6786921169249  0.6662970731676 1.0
C      1  0.6041607055587  0.3066961373593  0.6506242359060 1.0
C      1  0.7271191198294  0.7122849289662  0.3642995380673 1.0
C      1  0.2857085822821  0.6394487950840  0.5979587048071 1.0
C      1  0.6806328501106  0.3577045211634  0.6075568286457 1.0
C      1  0.4206665649067  0.2659666625570  0.5131800897062 1.0
C      1  0.2542184651716  0.5158135347212  0.4192687998202 1.0
C      1  0.5159874380178  0.4257190220557  0.2545125962673 1.0
C      1  0.5907310317804  0.7606586925360  0.5130890581855 1.0
C      1  0.4267387824976  0.7540295689456  0.4914865754339 1.0
C      1  0.5642197048448  0.2663108502141  0.4741004748944 1.0
C      1  0.7528338847047  0.4908224807677  0.4202051627311 1.0
C      1  0.2552579081562  0.4836340583744  0.5716851069391 1.0
C      1  0.7451566213150  0.5089844261431  0.5724741960345 1.0
C      1  0.4878487645739  0.5729578230872  0.2631084039595 1.0
C      1  0.5227236783546  0.5800722928856  0.7458052871584 1.0
C      1  0.4883216164798  0.4300245379613  0.7457842280626 1.0
C      1  0.5938855630391  0.4864716298026  0.8574325695712 1.0
C      1  0.5033543236336  0.8743865491453  0.5837774398999 1.0
C      1  0.8787081656619  0.5775981714659  0.5063992605418 1.0
C      1  0.4192503735713  0.5068149494465  0.8703480176581 1.0
C      1  0.5935556544606  0.5107502530229  0.1480086930950 1.0
C      1  0.4154963134823  0.4834348188995  0.1400174927137 1.0
C      1  0.5410697786448  0.1543245437387  0.5689070298913 1.0
C      1  0.4834363393667  0.1446861649059  0.4031573290694 1.0
C      1  0.5100094822788  0.8612133520480  0.4050443492898 1.0
C      1  0.1433365600600  0.4097069881618  0.4848440506100 1.0
C      1  0.8551821594994  0.4054512758268  0.5065697277686 1.0
C      1  0.1295982358863  0.5831447638664  0.4853549426381 1.0
C      1  0.6364281656091  0.6915908357701  0.1428079434936 1.0
C      1  0.7078688617925  0.1376997530671  0.6386392982642 1.0
C      1  0.1353655707970  0.6184978986050  0.6986831689729 1.0
C      1  0.3599933043315  0.2946805194529  0.1316526415954 1.0
C      1  0.6280021326952  0.2975451854117  0.8571047608325 1.0
C      1  0.3734654683050  0.6939819221867  0.8589428353401 1.0
C      1  0.3058895538026  0.8636316369407  0.6245919995619 1.0
C      1  0.6965720355569  0.8787578937828  0.3262753153576 1.0
C      1  0.3031439472637  0.1341330744437  0.3592053908884 1.0
C      1  0.8575851871710  0.3586845044391  0.6901442679559 1.0
C      1  0.1353985830778  0.3715546630188  0.3007752217588 1.0
C      1  0.8719652102508  0.6313488648773  0.3101113705638 1.0
C      1  0.6777302471994  0.5557668712904  0.4071485191136 1.0
C      1  0.5528108776670  0.4293818238062  0.6687526739231 1.0
C      1  0.4209185858962  0.6760241944354  0.5559863391266 1.0
C      1  0.3383771993721  0.4673767430208  0.4206821714260 1.0
C      1  0.6618261018636  0.4510141673911  0.5640634118966 1.0
C      1  0.3564469463190  0.5149248370040  0.5599516632866 1.0
C      1  0.4669942772381  0.5992078649079  0.6668972076211 1.0
C      1  0.5295123642504  0.5655329684483  0.3572279993024 1.0
C      1  0.4646817412539  0.4317319368972  0.3358383160199 1.0
C      1  0.5430095814605  0.3599652400803  0.5106817642477 1.0
C      1  0.4460026332637  0.3594182546468  0.4770937993054 1.0
C      1  0.5955773472725  0.6838364852340  0.4475968652596 1.0
C      1  0.9985084301041  0.5093857731542  0.4543478629988 1.0
C      1  0.4181755123506  0.4465891392580  0.9515377065207 1.0
C      1  0.4506085023014  0.9985190653480  0.4955216035945 1.0
C      1  0.0520343811588  0.5903027639764  0.4353001006107 1.0
C      1  0.9410955505312  0.5771066094002  0.5892879606115 1.0
C      1  0.9919013456483  0.4978237662061  0.5561714893815 1.0
C      1  0.5040165534440  0.5465677957993  0.0014329496733 1.0
C      1  0.4094562932703  0.5507239419580  0.9670804822333 1.0
C      1  0.5075563132937  0.4501737146601  0.9916243886195 1.0
C      1  0.5468015868186  0.9920034517336  0.4862176184240 1.0
C      1  0.4541674009798  0.9696262724063  0.5925123139791 1.0
C      1  0.5593428695866  0.9573053347777  0.5779489804310 1.0
C      1  0.0430356619274  0.6030123095968  0.7181127139982 1.0
C      1  0.5872098211214  0.6906557715775  0.0571545138260 1.0
C      1  0.7113651099776  0.0496886885100  0.6003337310442 1.0
C      1  0.9445630839376  0.4046557109186  0.6924017315907 1.0
C      1  0.0541055163666  0.4266355131884  0.3023892525535 1.0
C      1  0.9629509974750  0.6134662725731  0.2877068840039 1.0
C      1  0.3942305387060  0.2888197121129  0.0416609619242 1.0
C      1  0.5791279737040  0.2966987571860  0.9417582861754 1.0
C      1  0.3885886938976  0.7057127660469  0.9539139479762 1.0
C      1  0.3026988605128  0.9599239484004  0.6221038197859 1.0
C      1  0.6929205404719  0.9482854233108  0.3930933530208 1.0
C      1  0.3033804799705  0.0491176153997  0.4109975987393 1.0
C      1  0.6159239609165  0.5538722961232  0.7073457138294 1.0
C      1  0.5639103688301  0.7201356674099  0.6048928535695 1.0
C      1  0.7211221667682  0.6087848012764  0.5515753470122 1.0
C      1  0.3941772011068  0.4554646663346  0.7144141388227 1.0
C      1  0.6095151645773  0.4463934078503  0.2965601950480 1.0
C      1  0.3908680506659  0.5536352569556  0.2871767786096 1.0
C      1  0.4500672463753  0.2906740495548  0.6096147893581 1.0
C      1  0.5457187210408  0.2909219396724  0.3785929349135 1.0
C      1  0.4486227768559  0.7095742491528  0.3966401517185 1.0
C      1  0.2918440244627  0.3896177279506  0.5476716793145 1.0
C      1  0.7055434848255  0.3977933455699  0.4367867533570 1.0
C      1  0.2857694480052  0.6119159884871  0.4459386802888 1.0
C      1  0.3505494264103  0.5107024277173  0.2075670946147 1.0
C      1  0.5082599056368  0.2101494408696  0.3376636062349 1.0
C      1  0.2151301196286  0.3466243647103  0.5023522524897 1.0
C      1  0.6540812500900  0.4953898021272  0.2221922533592 1.0
C      1  0.3482962563968  0.4881950004643  0.8000339041455 1.0
C      1  0.6552672469494  0.5043725702032  0.7854207655056 1.0
C      1  0.4910858474753  0.7868723881573  0.3472793668207 1.0
C      1  0.5220562091263  0.8011153348217  0.6540309052363 1.0
C      1  0.4918714085774  0.2076332738937  0.6407579841805 1.0
C      1  0.8087208405677  0.6482463973923  0.5184126771680 1.0
C      1  0.1976133970001  0.6528850088998  0.4753592891376 1.0
C      1  0.7792111261376  0.3494038648458  0.4854130331015 1.0
C      1  0.3351546525826  0.8453233126881  0.3986475045399 1.0
C      1  0.8494702942583  0.4035032942614  0.3343134381887 1.0
C      1  0.4013151903136  0.3296969226889  0.8340958864575 1.0
C      1  0.6501830188059  0.1541716615079  0.4103782964991 1.0
C      1  0.3329115277435  0.1607782908158  0.5834333481825 1.0
C      1  0.6840357748957  0.8464640916583  0.6192965489407 1.0
C      1  0.1674328034858  0.5959177112997  0.3180722383514 1.0
C      1  0.8584672979626  0.5772958184623  0.6610275760549 1.0
C      1  0.1558794867298  0.3995828260158  0.6560769095968 1.0
C      1  0.6031153038347  0.6538475589234  0.8541298836276 1.0
C      1  0.4135951109231  0.6598200169358  0.1590838041994 1.0
C      1  0.5924155528652  0.3381644545687  0.1515824412100 1.0
C      1  0.8409038132757  0.2224908993140  0.2932383067369 1.0
C      1  0.2204804279822  0.2788207095782  0.8296626038175 1.0
C      1  0.2966208543547  0.8397700377950  0.2118472652894 1.0
C      1  0.1530847042499  0.7689410375836  0.2666811298997 1.0
C      1  0.8619046954175  0.7518385377476  0.7403527851153 1.0
C      1  0.1527048375179  0.2128983129460  0.6923368170086 1.0
C      1  0.7855924369112  0.6818801313908  0.8725293131280 1.0
C      1  0.2341319593888  0.7064901567328  0.1303052304248 1.0
C      1  0.7762473377505  0.2956630854400  0.1520056568961 1.0
C      1  0.7017707627923  0.1566536346570  0.2199465470974 1.0
C      1  0.2881864712480  0.1370371344452  0.7606012663542 1.0
C      1  0.7213774636348  0.8215522429940  0.8055188243418 1.0
C      1  0.7137088357030  0.3357287281748  0.3595983604017 1.0
C      1  0.3348778412409  0.3707143928468  0.7104074143726 1.0
C      1  0.3695081148446  0.7144256351000  0.3341278464296 1.0
C      1  0.2877202176315  0.6696537048804  0.3632631967155 1.0
C      1  0.7242511963851  0.6646832409135  0.6371771157696 1.0
C      1  0.2898315382676  0.3335183219300  0.6302390953728 1.0
C      1  0.6741672941862  0.6333990766098  0.7160396552985 1.0
C      1  0.3356918367812  0.6362900669622  0.2832180518545 1.0
C      1  0.6653843858378  0.3653144354694  0.2805912213310 1.0
C      1  0.6318298700560  0.2859939591702  0.3276921704194 1.0
C      1  0.3687288650216  0.2860417017719  0.6666389235690 1.0
C      1  0.6427329229751  0.7145988812413  0.6681896730320 1.0
C      1  0.7056037349087  0.4142873362241  0.7639891918430 1.0
C      1  0.4349849754798  0.7643800874212  0.7105492308092 1.0
C      1  0.7899498489030  0.7212120390624  0.4387746783035 1.0
C      1  0.2863462902426  0.5720120478177  0.7669672794982 1.0
C      1  0.7174027587429  0.5799079564963  0.2462258840342 1.0
C      1  0.2894433179209  0.4276563412053  0.2274296443087 1.0
C      1  0.5711599809161  0.2302053375043  0.7032162432521 1.0
C      1  0.4251650910040  0.2324254602959  0.2794633102129 1.0
C      1  0.5779322939331  0.7640733147272  0.2915672275036 1.0
C      1  0.2310899177182  0.2869499547172  0.4168226199321 1.0
C      1  0.7527174033345  0.2958239982627  0.5730225597662 1.0
C      1  0.2214013930239  0.7024908296242  0.5681740757521 1.0
C      1  0.7541454739225  0.3913594802197  0.1266707798454 1.0
C      1  0.3832653336162  0.0989222242373  0.7290340371559 1.0
C      1  0.1089139987825  0.7377805378322  0.3559983817701 1.0
C      1  0.2689442741734  0.6148461884966  0.0965741905742 1.0
C      1  0.7542544636712  0.5909845718472  0.8909286331761 1.0
C      1  0.2402507052982  0.3699173972505  0.8652613402282 1.0
C      1  0.6329226498795  0.8545966018681  0.7796036925691 1.0
C      1  0.3840931277703  0.8709555644856  0.2405173013447 1.0
C      1  0.6106246467072  0.1242611112005  0.2425828141133 1.0
C      1  0.8718328245981  0.2460086596977  0.3850853587111 1.0
C      1  0.1273958443896  0.2429945298749  0.6018218430413 1.0
C      1  0.9056443771788  0.7262761946769  0.6519654318330 1.0
C      1  0.8241549894827  0.6667898801760  0.6200636630296 1.0
C      1  0.6797805036507  0.5955166845826  0.8259673934061 1.0
C      1  0.6186809422744  0.8187998499308  0.6890798094690 1.0
C      1  0.1849749828377  0.3230098893916  0.5984534523725 1.0
C      1  0.8144111162699  0.3261246036328  0.3897041460266 1.0
C      1  0.1866805683062  0.6760530590215  0.3756302289032 1.0
C      1  0.3217319464743  0.3895892698790  0.8137436534311 1.0
C      1  0.6722338304060  0.3958034496544  0.1815004990828 1.0
C      1  0.3304379942015  0.6065387303499  0.1789562958153 1.0
C      1  0.3943520118680  0.1761773338084  0.6613046030181 1.0
C      1  0.6029976438953  0.1804067626457  0.3240732992282 1.0
C      1  0.3942832429164  0.8166198975050  0.3227604880073 1.0
C      1  0.1526616460740  0.2829192025551  0.7625826098289 1.0
C      1  0.3024726545096  0.7745453792964  0.1403701018924 1.0
C      1  0.7670459172343  0.1611018978946  0.2957239576795 1.0
C      1  0.8516030725314  0.6764598620753  0.7997404932967 1.0
C      1  0.1631984249761  0.7002275515571  0.1973844699942 1.0
C      1  0.8433967481770  0.2953541715859  0.2216239248888 1.0
C      1  0.7035833511475  0.2263653104392  0.1509183162909 1.0
C      1  0.2942879822459  0.2103666796904  0.8253353786261 1.0
C      1  0.7185420313085  0.7547599436819  0.8741331369052 1.0
C      1  0.2240613404435  0.8323845848790  0.2805807607912 1.0
C      1  0.7929645608344  0.8188360069006  0.7369492792633 1.0
C      1  0.2192782310692  0.1432481951239  0.6934803517885 1.0
C      1  0.8700021565409  0.2063898625010  0.4776418311019 1.0
C      1  0.1814373325842  0.4529769420192  0.8742889294865 1.0
C      1  0.4744409081737  0.8760649006375  0.1991144617819 1.0
C      1  0.1138177195632  0.7931817992475  0.4488453424072 1.0
C      1  0.9054510278033  0.7868779700131  0.5696230394991 1.0
C      1  0.1176757918923  0.2071796448461  0.5098855352589 1.0
C      1  0.7946468670148  0.4992954040861  0.8842720141608 1.0
C      1  0.2094557563387  0.5213780017595  0.1043165130445 1.0
C      1  0.7953325694374  0.4820463015261  0.1245441572787 1.0
C      1  0.5191643647545  0.1194548568660  0.2012805129730 1.0
C      1  0.4741174771823  0.1110372439228  0.7880485906947 1.0
C      1  0.5467741631881  0.8672441675227  0.8295394647164 1.0
C      1  0.0237604171024  0.6675648829385  0.3655737986236 1.0
C      1  0.5766890187311  0.3901385096609  0.9727446879301 1.0
C      1  0.3834208447159  0.9977627690224  0.6768195934403 1.0
C      1  0.0213216815915  0.4334414604069  0.3956227436685 1.0
C      1  0.9738400615880  0.4167745977774  0.5992442486769 1.0
C      1  0.9884015976924  0.6602301047441  0.6438822027182 1.0
C      1  0.3316040319126  0.6220396579801  0.9975506965597 1.0
C      1  0.5761445777007  0.5984971903040  0.0298935722212 1.0
C      1  0.3716621173472  0.3762677073089  0.0007315492142 1.0
C      1  0.6280187573219  0.0094437490903  0.6215423477322 1.0
C      1  0.3953005493539  0.0231401522378  0.4232221509430 1.0
C      1  0.5972661982485  0.9714703856061  0.4100383288839 1.0
C      1  0.0476138076476  0.4847050263419  0.2257488122695 1.0
C      1  0.4654752671612  0.2260915555065  0.0328975102350 1.0
C      1  0.2352412890926  0.0432659787358  0.4775445968443 1.0
C      1  0.9677105914318  0.5406794469934  0.2273660487529 1.0
C      1  0.0325784976969  0.5221005137506  0.7669646545358 1.0
C      1  0.9515974425424  0.4668014215058  0.7646618054864 1.0
C      1  0.5215114542039  0.7590188482058  0.0494113006152 1.0
C      1  0.4663035234881  0.7571890574198  0.9690809631284 1.0
C      1  0.5163750098709  0.2264252494833  0.9501698151987 1.0
C      1  0.7519301173539  0.9872191029794  0.4507053522469 1.0
C      1  0.2549965033361  0.0187572700957  0.5689148602598 1.0
C      1  0.7637411007433  0.0463777262792  0.5163588297680 1.0
C      1  0.5046928816326  0.5029860558221  0.8163787026375 1.0
C      1  0.5028755309809  0.4981289018713  0.1844317141561 1.0
C      1  0.5065520897796  0.8220052075943  0.4980435654120 1.0
C      1  0.8222598804315  0.4967327877758  0.5001428983324 1.0
C      1  0.4900215227180  0.1937971017492  0.4878967971208 1.0
C      1  0.1829417652657  0.4987830305021  0.4949401700699 1.0
C      1  0.5664727437712  0.5677120989575  0.5459360236004 1.0
END
