TITL C-75168-9482-9 -4.7 3375.00 -817.73124322 0 0 101 (C1) n - 1
REM
REM Run started: at 2020.11.24 13:26:34 in /rds/project/t2_vol4/rds-t2-cs072/BORA/CARBON/AIRSS/Generating-Clusters/Str-Search/Higher-Symm
REM VASP from code version vasp.5.4.4.18Apr17-6-g9f103f2a35 (build Oct 11 2019 16:45:47) gamma-only
REM
REM
REM
REM
REM ./C.cell (e5ae0387ce4d49c7c0135a1433873289)
REM AIRSS Version 0.9.1 bugfix July 2018 build 013d7b7c2542+ Fri, 06 Jul 2018 19:26:36 +0100
REM compiler GCC version 4.8.5 20150623 (Red Hat 4.8.5-39)
REM options -cpp -mtune=generic -march=x86-64 -g -O0
REM seed -278858818 1352807808 -1737849726 -890384032 2081154602 -236090005 -1533254543 1076429101 598810070 -1869352939 -93232124 -991288026
REM
REM C.POTCAR (d86ddea03c3ceb6dc662c8ad6801f873)
REM 
CELL 1.54180   15.00000   15.00000   15.00000   90.00000   90.00000   90.00000
LATT -1
SFAC C  
C      1  0.4078386589957  0.4549308525168  0.8057066533908 1.0
C      1  0.4632413692762  0.3124191212782  0.7187287424141 1.0
C      1  0.4023366106266  0.1912436122629  0.5138485041854 1.0
C      1  0.4299676770524  0.2406654369436  0.3509799155229 1.0
C      1  0.4391827514266  0.4163836726109  0.1823080977147 1.0
C      1  0.4649162318470  0.6500658760298  0.2356398967352 1.0
C      1  0.4646821345334  0.7651498298452  0.3621967398792 1.0
C      1  0.4463863662682  0.7997559132422  0.6114052667465 1.0
C      1  0.4578165610770  0.6854616557394  0.7407418659797 1.0
C      1  0.3883806520826  0.3034089728266  0.2925316241959 1.0
C      1  0.3665870781414  0.4762596906593  0.2000393969529 1.0
C      1  0.3746329642131  0.6660644313340  0.2635494310326 1.0
C      1  0.3814985374743  0.7625185191393  0.4250129487027 1.0
C      1  0.3604816439446  0.7632343954596  0.6321126573317 1.0
C      1  0.3923651677679  0.6137111557467  0.7494609052550 1.0
C      1  0.3351712461556  0.3966597715849  0.7851368918193 1.0
C      1  0.4023178809496  0.2799307527267  0.6509872045707 1.0
C      1  0.3086249472773  0.1992953333794  0.5110624162459 1.0
C      1  0.4232691319306  0.3628842186325  0.7866605360912 1.0
C      1  0.4522093802533  0.2294552354832  0.5863155508181 1.0
C      1  0.4420750673934  0.1977231743634  0.4287722408557 1.0
C      1  0.4604755111517  0.3484886408810  0.2430507453572 1.0
C      1  0.4564971418069  0.5088458172535  0.1886200740607 1.0
C      1  0.4402237589638  0.7353001097087  0.2719738395282 1.0
C      1  0.4532878678198  0.8137927206584  0.4493076913932 1.0
C      1  0.4317759543333  0.7629170910408  0.6959116620420 1.0
C      1  0.4422762994670  0.5322926889450  0.7755917262469 1.0
C      1  0.6128196250405  0.6098559216238  0.4514015646545 1.0
C      1  0.6698614171183  0.6515039776278  0.5235262527618 1.0
C      1  0.6694697069204  0.6163634533923  0.6168991234052 1.0
C      1  0.6191371872179  0.5253113703115  0.6132582811789 1.0
C      1  0.6656307522720  0.4769280698493  0.5410467677636 1.0
C      1  0.6112242282584  0.4003173062576  0.5212893246131 1.0
C      1  0.6270759425753  0.3666135841618  0.4342330676191 1.0
C      1  0.5990819222976  0.4524050956513  0.3906623436619 1.0
C      1  0.6563055571352  0.5213709116455  0.4396492402711 1.0
C      1  0.5149569745421  0.5306703954246  0.6215151997704 1.0
C      1  0.4673836375854  0.4562221795387  0.5767892828436 1.0
C      1  0.5177803878102  0.3947117630907  0.5320641979812 1.0
C      1  0.4720124353888  0.3650557606952  0.4497520434511 1.0
C      1  0.4983334175164  0.4439012056609  0.3865967588766 1.0
C      1  0.4580008496642  0.5389310305287  0.4240264830775 1.0
C      1  0.5097508543571  0.6239057005334  0.4496996024402 1.0
C      1  0.4922217482690  0.6744937671237  0.5374164123962 1.0
C      1  0.5048288246107  0.6280011054858  0.6130439510325 1.0
C      1  0.7133167943502  0.6107122140847  0.7491559975057 1.0
C      1  0.7114098408132  0.5138141052614  0.7377122484128 1.0
C      1  0.6957203359241  0.3561694592126  0.6412611146939 1.0
C      1  0.7029657180957  0.2976964815667  0.5658271538825 1.0
C      1  0.6986803281112  0.3222285588678  0.3844671954470 1.0
C      1  0.7040658961359  0.3931565593351  0.3085075054574 1.0
C      1  0.6859412996699  0.5775988322093  0.2879093805838 1.0
C      1  0.6984512325415  0.6670528198244  0.3243278001880 1.0
C      1  0.6788317567080  0.7535474683455  0.4999145721012 1.0
C      1  0.2663744436756  0.5547227615108  0.6348568148592 1.0
C      1  0.2625883000177  0.4622930331507  0.6362490698982 1.0
C      1  0.2956922808111  0.3992568919733  0.5595975199643 1.0
C      1  0.2559307744946  0.3556597597728  0.4744283451344 1.0
C      1  0.2629119542629  0.3933050811345  0.3881605707253 1.0
C      1  0.2660732273556  0.4848984452696  0.3511330925428 1.0
C      1  0.2675313153163  0.5743988979788  0.3796406821123 1.0
C      1  0.2702831674384  0.6300858364845  0.4673724034303 1.0
C      1  0.2664145079589  0.6245181047549  0.5612040742965 1.0
C      1  0.7549973658683  0.5834495429724  0.6644653383684 1.0
C      1  0.7825732533804  0.4928927939263  0.6682708719499 1.0
C      1  0.7508648506822  0.4293012658262  0.5971533327017 1.0
C      1  0.7753425471282  0.3572133810892  0.5240897568456 1.0
C      1  0.7748962406009  0.3681784617747  0.4319300619053 1.0
C      1  0.7698541965275  0.4404082979362  0.3590398749967 1.0
C      1  0.7391787730365  0.5389528498530  0.3697140905879 1.0
C      1  0.7620690929155  0.6452119591189  0.3911346439319 1.0
C      1  0.7485989905615  0.6904147045585  0.4779487044661 1.0
C      1  0.3090768584274  0.4508057371092  0.2702467363755 1.0
C      1  0.3115494623921  0.6465205242523  0.3327386406177 1.0
C      1  0.3140013530628  0.7011840811023  0.4139658112048 1.0
C      1  0.3051010781770  0.6887901088568  0.6259169773600 1.0
C      1  0.3136367762232  0.6194762086577  0.6944195159453 1.0
C      1  0.2905542102662  0.3951214796815  0.7016185741534 1.0
C      1  0.3235230013797  0.3346034839977  0.6374748635915 1.0
C      1  0.2632676848487  0.2643086118068  0.4848981792690 1.0
C      1  0.3124074965866  0.3602882786748  0.3077523849652 1.0
C      1  0.6394914864041  0.6596697852506  0.7032766559093 1.0
C      1  0.6193756286735  0.4780276393664  0.7105669195620 1.0
C      1  0.6214631140622  0.3736915329886  0.6938728157511 1.0
C      1  0.6227343818416  0.2516961635061  0.5343784184186 1.0
C      1  0.6042874972912  0.2703260999839  0.4316105796654 1.0
C      1  0.6139783814126  0.4411989191668  0.2884035396571 1.0
C      1  0.6113750612738  0.5366028529353  0.2508133438256 1.0
C      1  0.6152468091226  0.6762946656614  0.3720410070134 1.0
C      1  0.6074875040326  0.7908416235169  0.5340283462962 1.0
C      1  0.5190949971566  0.5706836637147  0.2204254495046 1.0
C      1  0.5281275989360  0.6940023072087  0.3801666898183 1.0
C      1  0.5068503747046  0.7798152025956  0.5319746651869 1.0
C      1  0.5426223709974  0.6411541701570  0.7094760272187 1.0
C      1  0.5292842320747  0.5351243435391  0.7265109021152 1.0
C      1  0.5523742373306  0.3070414809377  0.6829068810098 1.0
C      1  0.5488301361907  0.2495880983358  0.5995093378828 1.0
C      1  0.5041410259396  0.2734385931899  0.4104900705003 1.0
C      1  0.5211706967335  0.3996555769371  0.2952500349858 1.0
C      1  0.3879360372784  0.5197046248267  0.4744636280600 1.0
C      1  0.3776616619893  0.4508308853552  0.5314009642805 1.0
END
