TITL C-75691-1650-2 -14.229 3375.00 -2391.47136708 0 0 292 (C2) n - 1
REM
REM Run started: at 2020.11.24 20:09:13 in /rds/project/t2_vol4/rds-t2-cs072/BORA/CARBON/AIRSS/Generating-Clusters/Str-Search/Higher-Symm
REM VASP from code version vasp.5.4.4.18Apr17-6-g9f103f2a35 (build Oct 11 2019 16:45:47) gamma-only
REM
REM
REM
REM
REM ./C.cell (e5ae0387ce4d49c7c0135a1433873289)
REM AIRSS Version 0.9.1 bugfix July 2018 build 013d7b7c2542+ Fri, 06 Jul 2018 19:26:36 +0100
REM compiler GCC version 4.8.5 20150623 (Red Hat 4.8.5-39)
REM options -cpp -mtune=generic -march=x86-64 -g -O0
REM seed 1440488392 -1505743600 1709961867 848207758 105368783 269784715 -1768373162 688516961 -232015896 287136133 -1885004017 -1554523016
REM
REM C.POTCAR (d86ddea03c3ceb6dc662c8ad6801f873)
REM 
CELL 1.54180   15.00000   15.00000   15.00000   90.00000   90.00000   90.00000
LATT -1
SFAC C  
C      1  0.7276074016891  0.3314527348951  0.1455572831927 1.0
C      1  0.8999772496805  0.2891603649546  0.6329565752178 1.0
C      1  0.5673917841319  0.3248735812775  0.9807960017205 1.0
C      1  0.0607587589043  0.3558697646258  0.6167098814062 1.0
C      1  0.1811708552944  0.3148891517328  0.1708309240454 1.0
C      1  0.2728438787712  0.6665108023461  0.1455698129088 1.0
C      1  0.1004859799911  0.7086359746992  0.6328494980644 1.0
C      1  0.4327853045385  0.6734673980137  0.9807210723084 1.0
C      1  0.9396190417435  0.6421319375883  0.6166899125711 1.0
C      1  0.8195151772738  0.6832266263718  0.1708548551150 1.0
C      1  0.7286130152134  0.1401368175089  0.5177678345635 1.0
C      1  0.5557872685887  0.1687826653037  0.7681563991990 1.0
C      1  0.2459608858081  0.1590348557587  0.6441879508136 1.0
C      1  0.2961263088011  0.1781826862333  0.3469680505427 1.0
C      1  0.6112472104151  0.1244756925974  0.2438532211998 1.0
C      1  0.2718310415712  0.8577898305091  0.5177061574567 1.0
C      1  0.4445706491160  0.8293539615209  0.7681273881029 1.0
C      1  0.7543671046615  0.8389751244027  0.6441120670514 1.0
C      1  0.7041824122742  0.8196256598528  0.3469380563750 1.0
C      1  0.3891387182551  0.8736351880517  0.2438189466765 1.0
C      1  0.6690981408917  0.4440759859436  0.5699832065089 1.0
C      1  0.4742508024536  0.4510543968538  0.6905723737008 1.0
C      1  0.3231507447247  0.4578529886441  0.5340234019932 1.0
C      1  0.4229080415846  0.4618311088414  0.3640899553978 1.0
C      1  0.6181859384346  0.4394019961419  0.3744212175917 1.0
C      1  0.3313371075421  0.5537797011932  0.5700180290394 1.0
C      1  0.5261467508241  0.5469678250856  0.6906439783423 1.0
C      1  0.6772777452684  0.5400098557468  0.5340044952599 1.0
C      1  0.5774309231367  0.5362467098452  0.3641052364417 1.0
C      1  0.3823023721049  0.5587270329352  0.3744919791257 1.0
C      1  0.5029161204910  0.6574132686720  0.2780397603761 1.0
C      1  0.7495702817062  0.6636432704452  0.4485120502258 1.0
C      1  0.6122791342848  0.6872490099549  0.6934351306247 1.0
C      1  0.3469129300556  0.6899549012955  0.6351945246736 1.0
C      1  0.3217630088796  0.7122775238161  0.3684589736501 1.0
C      1  0.4976844388379  0.3408001954387  0.2781617694885 1.0
C      1  0.2507913150277  0.3342041585616  0.4484935194959 1.0
C      1  0.3880588281925  0.3107717475140  0.6934446486247 1.0
C      1  0.6535744191829  0.3080494511437  0.6353244765992 1.0
C      1  0.6788172802127  0.2856663191994  0.3685880584559 1.0
C      1  0.7852321414470  0.4750863240595  0.7394144015485 1.0
C      1  0.3486812950365  0.4996588033817  0.8147568778330 1.0
C      1  0.1104633105401  0.5430606577804  0.4517367674456 1.0
C      1  0.4462331475447  0.4061323191734  0.0975254520792 1.0
C      1  0.7976851760211  0.4943043863699  0.2917324376898 1.0
C      1  0.2151786652568  0.5229124095147  0.7394335985528 1.0
C      1  0.6517558391045  0.4985334400671  0.8146975060870 1.0
C      1  0.8900571427098  0.4548835734558  0.4517261965217 1.0
C      1  0.5542240604740  0.5920329749267  0.0974492175811 1.0
C      1  0.2029844322802  0.5036815338980  0.2917521225478 1.0
C      1  0.9347942596503  0.2847474705942  0.4966145662468 1.0
C      1  0.6872840262542  0.3421609514672  0.9016953319483 1.0
C      1  0.1436865313324  0.3546625517872  0.7369140446445 1.0
C      1  0.1138913593366  0.3096965220627  0.3027737980794 1.0
C      1  0.5935289855496  0.3364317055220  0.1297354357384 1.0
C      1  0.0656407823543  0.7131983050486  0.4965665137737 1.0
C      1  0.3128998894352  0.6562562225501  0.9016194202260 1.0
C      1  0.8566293966948  0.6433741201824  0.7368677478731 1.0
C      1  0.8866115963268  0.6884460790724  0.3027923574458 1.0
C      1  0.4068472501770  0.6616002140286  0.1296268571102 1.0
C      1  0.7464776811334  0.2994125125856  0.5998120270759 1.0
C      1  0.4431429086213  0.3054958549853  0.7842790566255 1.0
C      1  0.2095442098614  0.3279938797677  0.5447607084579 1.0
C      1  0.3137489119742  0.3159823704765  0.2290750472223 1.0
C      1  0.7082171321046  0.2589137957651  0.2829576832723 1.0
C      1  0.2540421098255  0.6984741384251  0.5996843398279 1.0
C      1  0.5572023513351  0.6925419402203  0.7843062549089 1.0
C      1  0.7908291251998  0.6699746017199  0.5447592350267 1.0
C      1  0.6869148625179  0.6816109018094  0.2291852289923 1.0
C      1  0.2922284754518  0.7390629706108  0.2828649443772 1.0
C      1  0.2925415673748  0.8833131383035  0.6869212916243 1.0
C      1  0.2581820604893  0.9025575956924  0.3455643312480 1.0
C      1  0.5740811214893  0.8672744569587  0.2273913218380 1.0
C      1  0.8016367879583  0.8626617859433  0.4920429996340 1.0
C      1  0.6200647568695  0.8573407448303  0.7778903212527 1.0
C      1  0.7077539333865  0.1145377822579  0.6869967285825 1.0
C      1  0.7422774996323  0.0954902227822  0.3455601082219 1.0
C      1  0.4262771711405  0.1306633725617  0.2274891314903 1.0
C      1  0.1986763137526  0.1353500581245  0.4921185823317 1.0
C      1  0.3802368768937  0.1407943673529  0.7779446542898 1.0
C      1  0.7202119498698  0.6830177225467  0.6788361294406 1.0
C      1  0.4302531369293  0.6376931935898  0.7979473695922 1.0
C      1  0.1683430425382  0.7096553802817  0.4600486008009 1.0
C      1  0.4340172123885  0.6138202542774  0.2141433393578 1.0
C      1  0.7908165374542  0.6615859867156  0.3531436534498 1.0
C      1  0.2801185030649  0.3150504514235  0.6788471075741 1.0
C      1  0.5700827710145  0.3605387430346  0.7978734888492 1.0
C      1  0.8321333719529  0.2882280911197  0.4601195634227 1.0
C      1  0.5664755964964  0.3843816521532  0.2141940683142 1.0
C      1  0.2096564954966  0.3363188672176  0.3531158338168 1.0
C      1  0.4121862062870  0.2613350548461  0.6082748525221 1.0
C      1  0.3320625915135  0.2840956970251  0.4641771112983 1.0
C      1  0.4911680276256  0.2710757418997  0.3289773335651 1.0
C      1  0.6133740507987  0.2256995742204  0.4182004058734 1.0
C      1  0.5921107826998  0.2464432360936  0.6323316717530 1.0
C      1  0.5880919993756  0.7366334746410  0.6082608530783 1.0
C      1  0.6682802055927  0.7138013810854  0.4641924097600 1.0
C      1  0.5094807100368  0.7270141872908  0.3289813023089 1.0
C      1  0.3871198154306  0.7722672502721  0.4181146842132 1.0
C      1  0.4082739628986  0.7516769137466  0.6322512260030 1.0
C      1  0.1855366112189  0.6817645921615  0.6768017457979 1.0
C      1  0.2470998347426  0.6637696964406  0.2343697490994 1.0
C      1  0.7269323725781  0.6623877940574  0.1443857173559 1.0
C      1  0.8849912803583  0.6332243117296  0.5317709504703 1.0
C      1  0.6221465521048  0.6598239641236  0.8555212720162 1.0
C      1  0.8149143278084  0.3160736538227  0.6769538223521 1.0
C      1  0.7533651302189  0.3341464801020  0.2343980535198 1.0
C      1  0.2738308057193  0.3351660015644  0.1441134322776 1.0
C      1  0.1153956203090  0.3647541102996  0.5317693994244 1.0
C      1  0.3782027957307  0.3382951036175  0.8554595596881 1.0
C      1  0.7588870190662  0.3953554840585  0.5594126879034 1.0
C      1  0.4813158649040  0.4006669016380  0.7805607882271 1.0
C      1  0.2894190664996  0.3722717228494  0.5898651529753 1.0
C      1  0.3531494286767  0.3999250945544  0.2330911598877 1.0
C      1  0.6357681484526  0.4207807283443  0.2770684585460 1.0
C      1  0.2415903980797  0.6025100027502  0.5593571577181 1.0
C      1  0.5190116286447  0.5973949365936  0.7806777321199 1.0
C      1  0.7109364092519  0.6256949591912  0.5898788598291 1.0
C      1  0.6473597812020  0.5976646373534  0.2331656133743 1.0
C      1  0.3648757330595  0.5777253360639  0.2772157279478 1.0
C      1  0.1017270217146  0.5120703418013  0.2999371728511 1.0
C      1  0.5849275492062  0.5302326309472  0.0261585950526 1.0
C      1  0.9528288441443  0.4802602246639  0.3741556167199 1.0
C      1  0.7069429204309  0.4395532753707  0.8718260026151 1.0
C      1  0.2199369454618  0.5783403288737  0.8216714518089 1.0
C      1  0.8989194267759  0.4861042489564  0.2999526445145 1.0
C      1  0.4155635757083  0.4678670614943  0.0261550820961 1.0
C      1  0.0477608916562  0.5177528739901  0.3741536667390 1.0
C      1  0.2934522246069  0.5587447418201  0.8717941229430 1.0
C      1  0.7803959618413  0.4197457260968  0.8216849952307 1.0
C      1  0.3381581533218  0.7958812758973  0.2193218460856 1.0
C      1  0.7387572735203  0.7371096608212  0.2926451767084 1.0
C      1  0.7926078623633  0.7443360443006  0.6340176451980 1.0
C      1  0.4613504357020  0.7360948938688  0.8046856632506 1.0
C      1  0.2145664023396  0.7698686659182  0.5374470125387 1.0
C      1  0.6621995598546  0.2022357528227  0.2193983461361 1.0
C      1  0.2617190625175  0.2607002755507  0.2926319222857 1.0
C      1  0.2077328404217  0.2536810446720  0.6340963452239 1.0
C      1  0.5390382240703  0.2620933489594  0.8047340020133 1.0
C      1  0.7859519537784  0.2279861505095  0.5375513762160 1.0
C      1  0.5350212758195  0.8158030741210  0.1558429302402 1.0
C      1  0.8570279489879  0.7943689207026  0.4551632945485 1.0
C      1  0.6885350635494  0.7912235930769  0.7993482122651 1.0
C      1  0.2679868795759  0.8131297190667  0.7489232151764 1.0
C      1  0.1799169617748  0.8457752618410  0.3681618317187 1.0
C      1  0.4652914613627  0.1822334657523  0.1559602753968 1.0
C      1  0.1432750310100  0.2036484849463  0.4552152011092 1.0
C      1  0.3117400370961  0.2068671974029  0.7994354427038 1.0
C      1  0.7323047822412  0.1848054171463  0.7490053941945 1.0
C      1  0.8205871088863  0.1521917100705  0.3681606120558 1.0
C      1  0.4793857330527  0.8742155753620  0.2119683027845 1.0
C      1  0.7933425769746  0.8460266473200  0.4009645544301 1.0
C      1  0.7047472359726  0.8479278755492  0.7271263858513 1.0
C      1  0.3452175494310  0.8607977351248  0.7670184543322 1.0
C      1  0.2259991149434  0.8926488229907  0.4337907592815 1.0
C      1  0.5209939109856  0.1238812345077  0.2120295289832 1.0
C      1  0.2069160978857  0.1519264816878  0.4010283550844 1.0
C      1  0.2955062875532  0.1500879335150  0.7272639791422 1.0
C      1  0.6550256037037  0.1371832006855  0.7670742315318 1.0
C      1  0.7744689568094  0.1053604286004  0.4337943641968 1.0
C      1  0.5315077146179  0.8897201947404  0.7745071693689 1.0
C      1  0.2979124851477  0.9168028924077  0.6011887425704 1.0
C      1  0.3448374428617  0.9236245809691  0.3145989931499 1.0
C      1  0.6321185367668  0.8803021787906  0.2990367676801 1.0
C      1  0.7470219822044  0.8874843857120  0.5639846942066 1.0
C      1  0.4688020305246  0.1084593509926  0.7745191336769 1.0
C      1  0.7024025961620  0.0810712288213  0.6012683521904 1.0
C      1  0.6556042340377  0.0744406311796  0.3145930303963 1.0
C      1  0.3682342245064  0.1175290136579  0.2990851841382 1.0
C      1  0.2533482667834  0.1105635536391  0.5640401022570 1.0
C      1  0.4170976619157  0.4373230217144  0.8551461666557 1.0
C      1  0.1055361811844  0.4681131027138  0.5165999713679 1.0
C      1  0.3418665738497  0.4168625020844  0.1346368278396 1.0
C      1  0.7383633520839  0.4132610752563  0.2891849563699 1.0
C      1  0.8120873887986  0.4181156381805  0.6567966652444 1.0
C      1  0.5833269534914  0.5608001680125  0.8552040682302 1.0
C      1  0.8949079080049  0.5298551699221  0.5165786932245 1.0
C      1  0.6587110628198  0.5810057423416  0.1346614004186 1.0
C      1  0.2622777654000  0.5846763722581  0.2891767981689 1.0
C      1  0.1883853934647  0.5797641133494  0.6566999726285 1.0
C      1  0.6014008073405  0.0221222628056  0.3812156580516 1.0
C      1  0.6338603701468  0.0094405097004  0.5742647648669 1.0
C      1  0.4850420813897  0.0425745988750  0.7013836216727 1.0
C      1  0.3388170061736  0.0676012199772  0.5395676929788 1.0
C      1  0.4190751703537  0.0624979202136  0.3645780270759 1.0
C      1  0.3991213121661  0.9758468895225  0.3812263722849 1.0
C      1  0.3664376108362  0.9884656784992  0.5742453539956 1.0
C      1  0.5152829034440  0.9555428452134  0.7013686322772 1.0
C      1  0.6615289765121  0.9303379930482  0.5395111467932 1.0
C      1  0.5814052972573  0.9354850556096  0.3645469654516 1.0
C      1  0.7646420045702  0.5629220590820  0.3562477307262 1.0
C      1  0.7093682048191  0.5492866212319  0.7500074587151 1.0
C      1  0.3723927773055  0.5778476139576  0.7507940212843 1.0
C      1  0.2030953384647  0.6112284886465  0.4592004146201 1.0
C      1  0.5083773228871  0.5475991817975  0.1844596204410 1.0
C      1  0.2359184086935  0.4349852880285  0.3562445342852 1.0
C      1  0.2910446565373  0.4488443584492  0.7500635615414 1.0
C      1  0.6279827135400  0.4203364505155  0.7507527495558 1.0
C      1  0.7973316354070  0.3866546662866  0.4592420629231 1.0
C      1  0.4920702660455  0.4505858290796  0.1844648860329 1.0
C      1  0.7154951718518  0.3833094772014  0.3875387678727 1.0
C      1  0.6467709872793  0.4032959780576  0.6639784253471 1.0
C      1  0.3745801748799  0.4181449279657  0.6892101905622 1.0
C      1  0.2711548769770  0.4324675026845  0.4432523404763 1.0
C      1  0.4389777733145  0.4220509400618  0.2740030194340 1.0
C      1  0.2850221558691  0.6146303819979  0.3875211504450 1.0
C      1  0.3536888595282  0.5947671278628  0.6639811306783 1.0
C      1  0.6257879117490  0.5799172425954  0.6891692082885 1.0
C      1  0.7293299818504  0.5653648477253  0.4432516438673 1.0
C      1  0.5613902768833  0.5760426128707  0.2740056514495 1.0
C      1  0.0705996813631  0.5495403786208  0.5413803727304 1.0
C      1  0.3444758103004  0.5036463585169  0.0754373911696 1.0
C      1  0.8691761275192  0.5337474075258  0.2279317061941 1.0
C      1  0.8680771640493  0.4911831541206  0.6917524029965 1.0
C      1  0.4596224985331  0.4783245886278  0.9384988256814 1.0
C      1  0.9298358026970  0.4483992716610  0.5413777544777 1.0
C      1  0.6559278411177  0.4943761528583  0.0755018285472 1.0
C      1  0.1315683697327  0.4644277104679  0.2279088147412 1.0
C      1  0.1324233625177  0.5067156750425  0.6916757287102 1.0
C      1  0.5409123910973  0.5196604557875  0.9385130947959 1.0
C      1  0.1330675525202  0.7592680751557  0.3787622644420 1.0
C      1  0.5401562064956  0.7548423773407  0.0920543224365 1.0
C      1  0.9066816396732  0.7137428976217  0.4607953781480 1.0
C      1  0.7037219796433  0.6989630640334  0.8309728659220 1.0
C      1  0.2230320810537  0.7275594501804  0.7614732358693 1.0
C      1  0.8674219567731  0.2386865931572  0.3787663670106 1.0
C      1  0.4601349888267  0.2431790724283  0.0921843365868 1.0
C      1  0.0936554731619  0.2843019688959  0.4607866610544 1.0
C      1  0.2965896240477  0.2991658755124  0.8309816932703 1.0
C      1  0.7772381780578  0.2703863326203  0.7616248710174 1.0
C      1  0.3446847477754  0.6541154278988  0.9963632373344 1.0
C      1  0.0377963751967  0.6449983673438  0.5787972388859 1.0
C      1  0.3265473683483  0.6052425517744  0.0822464900998 1.0
C      1  0.8809455558669  0.6267320694392  0.2150374137979 1.0
C      1  0.9056918759259  0.5737508508236  0.6889260872539 1.0
C      1  0.6554787175137  0.3442051832340  0.9964086998924 1.0
C      1  0.9625941584911  0.3528651637885  0.5788606718176 1.0
C      1  0.6737831646012  0.3928143014703  0.0823731199422 1.0
C      1  0.1197936894510  0.3714686115799  0.2150082322650 1.0
C      1  0.0946445926339  0.4242413290006  0.6889310733905 1.0
C      1  0.4783520516951  0.7886397490812  0.3845507943124 1.0
C      1  0.6545942797066  0.7950999796063  0.4337341645073 1.0
C      1  0.5665649972308  0.8217560430780  0.5794863337557 1.0
C      1  0.4445337628754  0.8233561453799  0.6646608816543 1.0
C      1  0.3652686298469  0.8406036405490  0.4756687063905 1.0
C      1  0.5221289188209  0.2094184271002  0.3846113376554 1.0
C      1  0.3457890946763  0.2028057216750  0.4337064673304 1.0
C      1  0.4337593313050  0.1762324948324  0.5795012114202 1.0
C      1  0.5558922152906  0.1747062888648  0.6646375057984 1.0
C      1  0.6351939239504  0.1573508921501  0.4757409527330 1.0
C      1  0.0410121412737  0.7324990807654  0.3988648846817 1.0
C      1  0.4907175535951  0.6741748870512  0.0680633945801 1.0
C      1  0.9540128481087  0.7070678982492  0.3741475231622 1.0
C      1  0.7577171444592  0.6400178280986  0.7641817649258 1.0
C      1  0.2324561260632  0.6744101809878  0.8354702757397 1.0
C      1  0.9594292297923  0.2656179911856  0.3988370624367 1.0
C      1  0.5095768451388  0.3239099342468  0.0682488798036 1.0
C      1  0.0464209592500  0.2910473918012  0.3740957499064 1.0
C      1  0.2425964648420  0.3580830508135  0.7642333827639 1.0
C      1  0.7676697270128  0.3237367494300  0.8355298555678 1.0
C      1  0.5211101395827  0.8755847967349  0.4219172599580 1.0
C      1  0.5990686975086  0.8554045474795  0.4913771588389 1.0
C      1  0.5006103364833  0.8919818865011  0.6194251333562 1.0
C      1  0.4614259275278  0.9596813467887  0.5492356201034 1.0
C      1  0.4367410758420  0.9174686719860  0.4597687318227 1.0
C      1  0.4793687845093  0.1224504888156  0.4219286441237 1.0
C      1  0.4013496996255  0.1425631733039  0.4913753603131 1.0
C      1  0.4997349724829  0.1060602843063  0.6194565230219 1.0
C      1  0.5388948285417  0.0382921312230  0.5492596192156 1.0
C      1  0.5637099278067  0.0805227094083  0.4598118021853 1.0
C      1  0.4168235638996  0.6877662435495  0.8825458800346 1.0
C      1  0.1151322621477  0.7691680609443  0.5654891871781 1.0
C      1  0.3421176928348  0.7355510169624  0.1467142515119 1.0
C      1  0.8257887928802  0.7501746661449  0.2416523525549 1.0
C      1  0.8785186732378  0.7074654428868  0.6736556706841 1.0
C      1  0.5834174913873  0.3106149903877  0.8825583864503 1.0
C      1  0.8853735548576  0.2286485624245  0.5655499074548 1.0
C      1  0.6582842945092  0.2625070617230  0.1467523031819 1.0
C      1  0.1746797209057  0.2480049796198  0.2416498480909 1.0
C      1  0.1218471722445  0.2905526200138  0.6737075238275 1.0
C      1  0.4172994453260  0.4142957998423  0.5248344582167 1.0
C      1  0.4587190843493  0.4166773598913  0.4357115889509 1.0
C      1  0.5535862070053  0.4038907738582  0.4433800905327 1.0
C      1  0.5784767988450  0.4128863461672  0.5316108155071 1.0
C      1  0.4963652414826  0.4440612396230  0.5854434349314 1.0
C      1  0.5831176618372  0.5835746765449  0.5248685838674 1.0
C      1  0.5416724504477  0.5813608870187  0.4357655769984 1.0
C      1  0.4468293333407  0.5942130524212  0.4434993238563 1.0
C      1  0.4219424133406  0.5849080907154  0.5316898782471 1.0
C      1  0.5040737333054  0.5537780207302  0.5854742671659 1.0
C      1  0.3706797701413  0.3222272061489  0.5447266611989 1.0
C      1  0.6296657029091  0.6756995548211  0.5447671750381 1.0
END
