TITL C-75534-9476-23 -4.205 3375.00 -691.12072814 0 0 85 (C2) n - 1
REM
REM Run started: at 2020.11.28 19:40:01 in /rds/project/t2_vol4/rds-t2-cs072/BORA/CARBON/AIRSS/Generating-Clusters/Str-Search/Higher-Symm/C10-100
REM VASP from code version vasp.5.4.4.18Apr17-6-g9f103f2a35 (build Oct 11 2019 16:45:47) gamma-only
REM
REM
REM
REM
REM ./C.cell (f39ce9773e2efe3fa5bbdf770a4156b8)
REM AIRSS Version 0.9.1 bugfix July 2018 build 013d7b7c2542+ Fri, 06 Jul 2018 19:26:36 +0100
REM compiler GCC version 4.8.5 20150623 (Red Hat 4.8.5-39)
REM options -cpp -mtune=generic -march=x86-64 -g -O0
REM seed 422622781 -453987334 987508365 457118637 993268217 1556739656 1339711905 -1199922262 1689091018 365055143 -1746809725 -269809836
REM
REM C.POTCAR (d86ddea03c3ceb6dc662c8ad6801f873)
REM 
CELL 1.54180   15.00000   15.00000   15.00000   90.00000   90.00000   90.00000
LATT -1
SFAC C  
C      1  0.4938204795779  0.3580736179109  0.5620732362247 1.0
C      1  0.5040743134849  0.5598526584973  0.6422042282332 1.0
C      1  0.4936930397831  0.6426152872423  0.4370999485210 1.0
C      1  0.5039800129696  0.4409327820888  0.3570548833727 1.0
C      1  0.6278153786416  0.3228780343808  0.3133143898429 1.0
C      1  0.3744746456014  0.3143512317401  0.6797386975192 1.0
C      1  0.6280627472272  0.6776514122604  0.6857384553760 1.0
C      1  0.3741618451394  0.6860437584194  0.3194049528693 1.0
C      1  0.4361747916643  0.3947548825935  0.7188100546100 1.0
C      1  0.5661684686615  0.7128877223075  0.6048769494937 1.0
C      1  0.4359352722839  0.6057082634930  0.2803962840440 1.0
C      1  0.5661501022925  0.2878431628025  0.3942955401979 1.0
C      1  0.3190471592154  0.7827880316169  0.4302779032117 1.0
C      1  0.6823931606186  0.4331859417782  0.2160927073255 1.0
C      1  0.3194837543968  0.2173584958912  0.5689341219159 1.0
C      1  0.6827033304726  0.5672075786975  0.7827251488469 1.0
C      1  0.5760343516629  0.2285609908865  0.5481208771467 1.0
C      1  0.4266876400613  0.5491242185622  0.7747189708588 1.0
C      1  0.5758266185382  0.7723076792619  0.4511118734124 1.0
C      1  0.4266156124281  0.4514340862532  0.2243738589259 1.0
C      1  0.1700025582025  0.4757849350520  0.5338833811868 1.0
C      1  0.8334147532728  0.5335783432564  0.5243086494438 1.0
C      1  0.1699883930704  0.5245269942600  0.4654167835317 1.0
C      1  0.8336901952041  0.4668038093005  0.4732429423029 1.0
C      1  0.7807743429928  0.3934917146255  0.3258904000852 1.0
C      1  0.2221454878356  0.3287897374940  0.6075365570211 1.0
C      1  0.7806677956327  0.6062437601566  0.6723305100985 1.0
C      1  0.2218810313564  0.6714215795396  0.3916349717561 1.0
C      1  0.5500122783313  0.3838527815202  0.4139831709881 1.0
C      1  0.4505195042260  0.4147456984106  0.6235437351958 1.0
C      1  0.5499514814210  0.6169526913441  0.5851751682535 1.0
C      1  0.4502837597423  0.5858954672788  0.3757265274171 1.0
C      1  0.6043622420309  0.6046239213994  0.7523212165275 1.0
C      1  0.3977745637734  0.7532403234500  0.3933169822524 1.0
C      1  0.6040848635480  0.3960378749140  0.2468707004837 1.0
C      1  0.3981506952974  0.2472112815699  0.6058822241163 1.0
C      1  0.5217715425550  0.4575006309827  0.2604748055279 1.0
C      1  0.4796346295488  0.2616903866362  0.5432307858717 1.0
C      1  0.5218990420769  0.5432360732767  0.7387531038392 1.0
C      1  0.4794345732030  0.7390176708504  0.4559685281701 1.0
C      1  0.6456004340906  0.6747452612277  0.3335975530753 1.0
C      1  0.3581302354467  0.3336505984459  0.3228242979095 1.0
C      1  0.6460331657438  0.3261394022981  0.6655690118969 1.0
C      1  0.3581351140001  0.6668199396731  0.6761884404046 1.0
C      1  0.1924964077302  0.4234103694364  0.6040812325377 1.0
C      1  0.8106481512654  0.6028619284892  0.5777356096369 1.0
C      1  0.1923544118371  0.5767953427703  0.3950902376181 1.0
C      1  0.8109897902198  0.3971354140250  0.4203338265844 1.0
C      1  0.7011599627344  0.7226357309419  0.4952724392201 1.0
C      1  0.3011314032594  0.4949994155699  0.2728673735035 1.0
C      1  0.7013350715285  0.2780595586698  0.5037066525447 1.0
C      1  0.3013692880722  0.5053641943181  0.7260523808992 1.0
C      1  0.7599491631768  0.4395506872946  0.2491755940026 1.0
C      1  0.2425516172576  0.2518450236031  0.5615041017219 1.0
C      1  0.7600085733091  0.5602555912217  0.7491544119336 1.0
C      1  0.2421268389103  0.7483055349758  0.4378647142350 1.0
C      1  0.7174193925354  0.6763414587272  0.6526735696258 1.0
C      1  0.2852378780494  0.6517951466270  0.3218131455209 1.0
C      1  0.7173025431991  0.3237596272127  0.3460131882917 1.0
C      1  0.2855587681325  0.3485111255489  0.6772462874066 1.0
C      1  0.5359196963973  0.5691316657057  0.2571404338336 1.0
C      1  0.4660854870845  0.2590453370051  0.4312299915150 1.0
C      1  0.5360800942555  0.4315093615600  0.7419308970746 1.0
C      1  0.4659246975371  0.7417181047972  0.5678427273248 1.0
C      1  0.3473276888914  0.4048068932422  0.2688299234384 1.0
C      1  0.6562593637729  0.2731604795249  0.5936854068439 1.0
C      1  0.3473714035200  0.5956422071536  0.7301793301344 1.0
C      1  0.6560054823465  0.7278358942168  0.4053759271573 1.0
C      1  0.2504224623470  0.5575366818552  0.3160529761344 1.0
C      1  0.7524688615715  0.3189337252506  0.4401727747279 1.0
C      1  0.2506980964414  0.4427161819420  0.6829977824381 1.0
C      1  0.7523841487066  0.6814064419997  0.5585098532236 1.0
C      1  0.3973850222084  0.7169447531917  0.6188857396694 1.0
C      1  0.6051479002678  0.6188751160900  0.2833138283442 1.0
C      1  0.3975587386472  0.2835878975076  0.3800528092077 1.0
C      1  0.6055094890951  0.3820521926390  0.7157891569432 1.0
C      1  0.4510368844013  0.5011581111036  0.5914489231995 1.0
C      1  0.5325622908537  0.5886343531641  0.4995147199722 1.0
C      1  0.4508197723287  0.4994761466332  0.4078974721437 1.0
C      1  0.5326780349556  0.4121002693587  0.4996813346266 1.0
C      1  0.3838115256092  0.4680910623087  0.7614067568460 1.0
C      1  0.6180485986533  0.7563159268368  0.5320367772586 1.0
C      1  0.3836122637711  0.5323975729320  0.2376947989858 1.0
C      1  0.6181347936482  0.2444437644657  0.4671290174256 1.0
C      1  0.4899480341482  0.5003392964379  0.4996540469450 1.0
END
