TITL C-75534-9476-14 -2.022 3375.00 -341.76703113 0 0 43 (Cs) n - 1
REM
REM Run started: at 2020.11.28 17:39:46 in /rds/project/t2_vol4/rds-t2-cs072/BORA/CARBON/AIRSS/Generating-Clusters/Str-Search/Higher-Symm/C10-100
REM VASP from code version vasp.5.4.4.18Apr17-6-g9f103f2a35 (build Oct 11 2019 16:45:47) gamma-only
REM
REM
REM
REM
REM ./C.cell (f39ce9773e2efe3fa5bbdf770a4156b8)
REM AIRSS Version 0.9.1 bugfix July 2018 build 013d7b7c2542+ Fri, 06 Jul 2018 19:26:36 +0100
REM compiler GCC version 4.8.5 20150623 (Red Hat 4.8.5-39)
REM options -cpp -mtune=generic -march=x86-64 -g -O0
REM seed 2049483045 728183156 -1849935840 299704022 1221632783 -368580159 -1330997795 303592472 -1720273714 -863493402 1681232125 1422641382
REM
REM C.POTCAR (d86ddea03c3ceb6dc662c8ad6801f873)
REM 
CELL 1.54180   15.00000   15.00000   15.00000   90.00000   90.00000   90.00000
LATT -1
SFAC C  
C      1  0.4494448558214  0.5816398370566  0.6231653696803 1.0
C      1  0.4495631317548  0.4150675407673  0.6218622044539 1.0
C      1  0.4587441214527  0.3507811436141  0.4639419443308 1.0
C      1  0.4553114128921  0.5002082024182  0.3694403110032 1.0
C      1  0.4586378328713  0.6482493844847  0.4661208372509 1.0
C      1  0.5467295755465  0.5724535661682  0.5994520084436 1.0
C      1  0.5467686879678  0.4247563507284  0.5983483161536 1.0
C      1  0.5498253112451  0.3495912561616  0.4573318537215 1.0
C      1  0.5560968493126  0.5003304529101  0.3597597372490 1.0
C      1  0.5497000002600  0.6497586849430  0.4594062017473 1.0
C      1  0.4051330627408  0.5783465413194  0.4141232966811 1.0
C      1  0.4163167138150  0.6482151873042  0.5597713572864 1.0
C      1  0.3959250312689  0.4982172004518  0.6367695091359 1.0
C      1  0.4166812131627  0.3491149465399  0.5577323257398 1.0
C      1  0.4051216846394  0.4215438469201  0.4133463619983 1.0
C      1  0.6062258577488  0.5805297116435  0.4033454735588 1.0
C      1  0.5880688151842  0.6515020795572  0.5503519278677 1.0
C      1  0.6103472334435  0.4983122976222  0.6302145596357 1.0
C      1  0.5879519974195  0.3461965460633  0.5483463542532 1.0
C      1  0.6064082374305  0.4196447300602  0.4026190341860 1.0
C      1  0.3235682193364  0.6512458171644  0.5546123901008 1.0
C      1  0.3001079614930  0.4982047162979  0.6086679559734 1.0
C      1  0.3238984932002  0.3457809475244  0.5527432651361 1.0
C      1  0.3013375313479  0.4198563626296  0.4059905692930 1.0
C      1  0.3014231678020  0.5797627545965  0.4065445331306 1.0
C      1  0.6792657342484  0.6521816129179  0.5512068325058 1.0
C      1  0.7027465728209  0.4982435587461  0.6067077046195 1.0
C      1  0.6791996043532  0.3451765431566  0.5492966054362 1.0
C      1  0.7131485075600  0.4186411389424  0.4016052773938 1.0
C      1  0.7127556775843  0.5810094981668  0.4023690413322 1.0
C      1  0.2671944374336  0.4155456700221  0.5739662827773 1.0
C      1  0.2657356012748  0.3764676101654  0.4836093676771 1.0
C      1  0.2627208323915  0.4998497599730  0.3844033437789 1.0
C      1  0.2655975360382  0.6214537132669  0.4848891415842 1.0
C      1  0.2669712211173  0.5810194087121  0.5746321414687 1.0
C      1  0.7384124157980  0.4135877786947  0.5740562116583 1.0
C      1  0.7406336125830  0.3780912330221  0.4841831661951 1.0
C      1  0.7518885285116  0.4999489033389  0.3839865094718 1.0
C      1  0.7405868931002  0.6199342844026  0.4856368855390 1.0
C      1  0.7382569290105  0.5831191020346  0.5748489729781 1.0
C      1  0.5901145001760  0.4997079529220  0.4569144512234 1.0
C      1  0.4346497657486  0.4995884343343  0.4696693914244 1.0
C      1  0.5208643310930  0.4992543922347  0.5238216749252 1.0
END
