TITL C-75534-9476-26 -1.2 3375.00 -194.82347769 0 0 25 (Cs) n - 1
REM
REM Run started: at 2020.11.28 19:55:46 in /rds/project/t2_vol4/rds-t2-cs072/BORA/CARBON/AIRSS/Generating-Clusters/Str-Search/Higher-Symm/C10-100
REM VASP from code version vasp.5.4.4.18Apr17-6-g9f103f2a35 (build Oct 11 2019 16:45:47) gamma-only
REM
REM
REM
REM
REM ./C.cell (f39ce9773e2efe3fa5bbdf770a4156b8)
REM AIRSS Version 0.9.1 bugfix July 2018 build 013d7b7c2542+ Fri, 06 Jul 2018 19:26:36 +0100
REM compiler GCC version 4.8.5 20150623 (Red Hat 4.8.5-39)
REM options -cpp -mtune=generic -march=x86-64 -g -O0
REM seed -468635495 407602941 1330520642 -2121710941 -1206868749 -318208174 160244502 2096890692 -169483888 -1939111625 -510758294 -1317678716
REM
REM C.POTCAR (d86ddea03c3ceb6dc662c8ad6801f873)
REM 
CELL 1.54180   15.00000   15.00000   15.00000   90.00000   90.00000   90.00000
LATT -1
SFAC C  
C      1  0.4368049682492  0.5842327570634  0.5493641715056 1.0
C      1  0.5245601757890  0.5893224444456  0.5801502305525 1.0
C      1  0.5781258472113  0.5797011102141  0.5001118367936 1.0
C      1  0.5242886023181  0.5890781404113  0.4199139172461 1.0
C      1  0.4365647762781  0.5846145537846  0.4505192491095 1.0
C      1  0.4365515431592  0.4393138264884  0.4503640890188 1.0
C      1  0.5243303130129  0.4353816827754  0.4198998732999 1.0
C      1  0.5781852969525  0.4445177255066  0.5001562996971 1.0
C      1  0.5244911647063  0.4351431788297  0.5801503328386 1.0
C      1  0.4367325606911  0.4397123382626  0.5493859744189 1.0
C      1  0.6454576965125  0.5122762933803  0.3430863972604 1.0
C      1  0.3945399910179  0.5122358622511  0.3101771901033 1.0
C      1  0.2907376579764  0.5121640582687  0.5412439913159 1.0
C      1  0.4733220628027  0.5122890023587  0.7147854216034 1.0
C      1  0.6953272430982  0.5122721559984  0.5910799570346 1.0
C      1  0.6455885330783  0.5124917556377  0.6569876262868 1.0
C      1  0.3945664311632  0.5124887266601  0.6897741543596 1.0
C      1  0.2907753154441  0.5124901586545  0.4587505087450 1.0
C      1  0.4732515499781  0.5125563038261  0.2850655969915 1.0
C      1  0.6951545976496  0.5125194922347  0.4090211703607 1.0
C      1  0.5474182477743  0.5123346920856  0.3491851128910 1.0
C      1  0.5475691520129  0.5123610886146  0.6507794457818 1.0
C      1  0.3735360430389  0.5121526143499  0.4059646343593 1.0
C      1  0.3735092293036  0.5121040757920  0.5939978755171 1.0
C      1  0.6586106007815  0.5122099621060  0.5000849429088 1.0
END
