TITL C-77347-3993-33 -2.77 3375.00 -439.74081691 0 0 56 (C1) n - 1
REM
REM Run started: at 2020.12.05 01:41:04 in /rds/project/t2_vol4/rds-t2-cs072/BORA/CARBON/AIRSS/Generating-Clusters/Str-Search/Higher-Symm/C10-100
REM VASP from code version vasp.5.4.4.18Apr17-6-g9f103f2a35 (build Oct 11 2019 16:45:47) gamma-only
REM
REM
REM
REM
REM ./C.cell (f39ce9773e2efe3fa5bbdf770a4156b8)
REM AIRSS Version 0.9.1 bugfix July 2018 build 013d7b7c2542+ Fri, 06 Jul 2018 19:26:36 +0100
REM compiler GCC version 4.8.5 20150623 (Red Hat 4.8.5-39)
REM options -cpp -mtune=generic -march=x86-64 -g -O0
REM seed -597610008 -805221849 847003354 -1363523362 -1072532237 1174324306 -1306020594 26404456 -972460620 -1993077971 -1816448781 1492194672
REM
REM C.POTCAR (d86ddea03c3ceb6dc662c8ad6801f873)
REM 
CELL 1.54180   15.00000   15.00000   15.00000   90.00000   90.00000   90.00000
LATT -1
SFAC C  
C      1  0.7469144882721  0.3694920295674  0.4391421170351 1.0
C      1  0.3180202765734  0.3163002099243  0.3467076005859 1.0
C      1  0.3899303587706  0.3465228027749  0.7021074359252 1.0
C      1  0.7545677964310  0.6423444499131  0.6057193632315 1.0
C      1  0.3579179711492  0.6598639749802  0.6555118824322 1.0
C      1  0.3876258338287  0.6229758719663  0.2876212317694 1.0
C      1  0.4659294679696  0.3341573757149  0.6396748211076 1.0
C      1  0.6520088095140  0.3744987913558  0.4061970230507 1.0
C      1  0.3559892945463  0.3217197691460  0.4396271911273 1.0
C      1  0.4716883162677  0.6290518623936  0.3418164369127 1.0
C      1  0.6554388513342  0.6455981367611  0.6227770895210 1.0
C      1  0.3897238409138  0.6543036290576  0.5619144714998 1.0
C      1  0.4635641799884  0.4230889503162  0.5890668348612 1.0
C      1  0.6238917358688  0.4645981269524  0.4496721562739 1.0
C      1  0.4198061256243  0.3992656365707  0.4286093247893 1.0
C      1  0.4725328626983  0.5345749265667  0.3811896435153 1.0
C      1  0.6240011056913  0.5837657896224  0.5480127389490 1.0
C      1  0.4581390189030  0.5816082747675  0.5817649000666 1.0
C      1  0.6573225209807  0.3809635801042  0.2132106925103 1.0
C      1  0.1936971761040  0.3696672542161  0.5267337401845 1.0
C      1  0.5962153471909  0.4243614400842  0.7135740001727 1.0
C      1  0.6661376081140  0.5721099355968  0.7972747793131 1.0
C      1  0.2767942517379  0.5334366673531  0.5085214946662 1.0
C      1  0.6071217026230  0.5533999816580  0.2600465487799 1.0
C      1  0.7931973901204  0.4202721263525  0.4859813178238 1.0
C      1  0.3014635660574  0.3834505899276  0.2986266054832 1.0
C      1  0.3602030901896  0.4182215551321  0.7331761899033 1.0
C      1  0.7978948263422  0.5759429537090  0.5779689600620 1.0
C      1  0.3401262480698  0.5959046544020  0.7075906270837 1.0
C      1  0.3404173154295  0.5577887582658  0.2656542444872 1.0
C      1  0.2805517993450  0.3596498170705  0.4938828899597 1.0
C      1  0.5511568270225  0.3601098933651  0.6849559032833 1.0
C      1  0.6504167588631  0.3924258195633  0.3063449675882 1.0
C      1  0.3194172162638  0.6051192537248  0.5121818888765 1.0
C      1  0.5531832215604  0.6116207905079  0.2846570026789 1.0
C      1  0.6454564187605  0.5935051206649  0.7086619802666 1.0
C      1  0.5933409600297  0.3019409717777  0.4415017326887 1.0
C      1  0.4235067904457  0.2564774637439  0.4856540011056 1.0
C      1  0.4690476102824  0.2648283234312  0.5638893863218 1.0
C      1  0.5942526736535  0.7239869780272  0.6063415855273 1.0
C      1  0.4561430375456  0.7164577635204  0.5028989218584 1.0
C      1  0.4760312561746  0.6958414725275  0.4178022680893 1.0
C      1  0.3425457979093  0.4678415388609  0.2946183359198 1.0
C      1  0.3722938925129  0.5075589286518  0.7041957608702 1.0
C      1  0.7717973507495  0.5041696877439  0.5234255257230 1.0
C      1  0.2508498329854  0.4464809978551  0.5118744172823 1.0
C      1  0.6372506273897  0.4666871659645  0.2539398339409 1.0
C      1  0.6289146103395  0.5061090695407  0.7370989128557 1.0
C      1  0.6780754015345  0.5179777408353  0.5014980043401 1.0
C      1  0.4363849401613  0.5043548433581  0.6304493536552 1.0
C      1  0.4143462347558  0.4656007378006  0.3595265629668 1.0
C      1  0.5262538374388  0.2678991426631  0.4839692958111 1.0
C      1  0.5300458341412  0.7451787119672  0.5585112622584 1.0
C      1  0.4758965251067  0.4288352552995  0.4951813662938 1.0
C      1  0.5372807791518  0.5709421484954  0.5278414710189 1.0
C      1  0.5296446885726  0.5025325578872  0.4574451056958 1.0
END
