TITL C-77347-3993-38 -1.611 3375.00 -251.54369111 0 0 32 (Ci) n - 1
REM
REM Run started: at 2020.12.05 03:09:54 in /rds/project/t2_vol4/rds-t2-cs072/BORA/CARBON/AIRSS/Generating-Clusters/Str-Search/Higher-Symm/C10-100
REM VASP from code version vasp.5.4.4.18Apr17-6-g9f103f2a35 (build Oct 11 2019 16:45:47) gamma-only
REM
REM
REM
REM
REM ./C.cell (f39ce9773e2efe3fa5bbdf770a4156b8)
REM AIRSS Version 0.9.1 bugfix July 2018 build 013d7b7c2542+ Fri, 06 Jul 2018 19:26:36 +0100
REM compiler GCC version 4.8.5 20150623 (Red Hat 4.8.5-39)
REM options -cpp -mtune=generic -march=x86-64 -g -O0
REM seed -1175050228 -320718952 1721855006 423532785 1373638773 -406685474 611196409 483140662 -996005738 -781909930 -1365612085 -1550067495
REM
REM C.POTCAR (d86ddea03c3ceb6dc662c8ad6801f873)
REM 
CELL 1.54180   15.00000   15.00000   15.00000   90.00000   90.00000   90.00000
LATT -1
SFAC C  
C      1  0.5607711769022  0.7693016544106  0.4719882914441 1.0
C      1  0.4392288248085  0.2306983463351  0.5280117112172 1.0
C      1  0.4548587271306  0.6624932983885  0.4121006490093 1.0
C      1  0.5451412734110  0.3375067021840  0.5878993510143 1.0
C      1  0.4105374415136  0.6604808847794  0.5025173242280 1.0
C      1  0.5894625584722  0.3395191149164  0.4974826755180 1.0
C      1  0.4362397237950  0.2837728337025  0.4504583990394 1.0
C      1  0.5637602760574  0.7162271664225  0.5495416008491 1.0
C      1  0.5131713369201  0.7318676586211  0.4110442592650 1.0
C      1  0.4868286609362  0.2681323393350  0.5889557385079 1.0
C      1  0.4728079626625  0.6848210212686  0.5774187771288 1.0
C      1  0.5271920374744  0.3151789791539  0.4225812222991 1.0
C      1  0.4842415544978  0.4809645348821  0.6734963753306 1.0
C      1  0.5157584452838  0.5190354665125  0.3265036247917 1.0
C      1  0.6411185399121  0.6609523872989  0.5592188171581 1.0
C      1  0.3588814603572  0.3390476128213  0.4407811831239 1.0
C      1  0.5368077068890  0.3635689922337  0.3466404032210 1.0
C      1  0.4631922930441  0.6364310074419  0.6533595971993 1.0
C      1  0.2659290990459  0.3594793669117  0.4374789925913 1.0
C      1  0.7340709010786  0.6405206335060  0.5625210072535 1.0
C      1  0.6530269143621  0.4057959160344  0.4918415744385 1.0
C      1  0.3469730856632  0.5942040833676  0.5081584251592 1.0
C      1  0.3696996431933  0.5083328242944  0.4870313976513 1.0
C      1  0.6303003565984  0.4916671756725  0.5129686023900 1.0
C      1  0.4679424888896  0.5123348760307  0.4715601489656 1.0
C      1  0.5320575107627  0.4876651240309  0.5284398510550 1.0
C      1  0.5184571841821  0.4286545738745  0.6107025369238 1.0
C      1  0.4815428157713  0.5713454266063  0.3892974630560 1.0
C      1  0.6703805962911  0.5751328296128  0.5370721368281 1.0
C      1  0.3296194037558  0.4248671703892  0.4629278633320 1.0
C      1  0.5394567320990  0.4381292482537  0.3054617809595 1.0
C      1  0.4605432682391  0.5618707507071  0.6945382190515 1.0
END
