TITL C-77347-3993-14 -2.467 3375.00 -398.01400821 0 0 50 (C1) n - 1
REM
REM Run started: at 2020.12.04 20:42:29 in /rds/project/t2_vol4/rds-t2-cs072/BORA/CARBON/AIRSS/Generating-Clusters/Str-Search/Higher-Symm/C10-100
REM VASP from code version vasp.5.4.4.18Apr17-6-g9f103f2a35 (build Oct 11 2019 16:45:47) gamma-only
REM
REM
REM
REM
REM ./C.cell (f39ce9773e2efe3fa5bbdf770a4156b8)
REM AIRSS Version 0.9.1 bugfix July 2018 build 013d7b7c2542+ Fri, 06 Jul 2018 19:26:36 +0100
REM compiler GCC version 4.8.5 20150623 (Red Hat 4.8.5-39)
REM options -cpp -mtune=generic -march=x86-64 -g -O0
REM seed 126417995 1022270362 -645114115 -52577936 501917142 601440008 666127366 326991892 -2131624858 308508105 1848436137 846895853
REM
REM C.POTCAR (d86ddea03c3ceb6dc662c8ad6801f873)
REM 
CELL 1.54180   15.00000   15.00000   15.00000   90.00000   90.00000   90.00000
LATT -1
SFAC C  
C      1  0.5214696179038  0.5440316437944  0.4409781038411 1.0
C      1  0.5951369199084  0.3844485467363  0.6522425822701 1.0
C      1  0.3800584530906  0.3386148827897  0.4155149391226 1.0
C      1  0.4442870326943  0.5007616741391  0.4755019080030 1.0
C      1  0.4653578034521  0.6688632122308  0.5824558398011 1.0
C      1  0.3916378912046  0.5773948097169  0.3589341708028 1.0
C      1  0.6670733367003  0.5809237789860  0.5304572454517 1.0
C      1  0.6256088240292  0.6665421343775  0.5693837754127 1.0
C      1  0.3198564144666  0.4165136722565  0.4371638586574 1.0
C      1  0.7358439839850  0.4385229769461  0.4607080566073 1.0
C      1  0.6005248572814  0.5584451833236  0.4774447067921 1.0
C      1  0.6956274331647  0.3953212943611  0.3855034460605 1.0
C      1  0.3838946690987  0.6107440944138  0.5872041931659 1.0
C      1  0.5883915381501  0.2832717297540  0.3699085433645 1.0
C      1  0.3725951470730  0.4975781137186  0.4107639043437 1.0
C      1  0.4671965757073  0.6912514469227  0.4014372982704 1.0
C      1  0.5482094923475  0.6489463771006  0.6301840333429 1.0
C      1  0.4191769555791  0.5167281325147  0.5683342948316 1.0
C      1  0.2355846528048  0.4989883383623  0.5627692356964 1.0
C      1  0.5387360129053  0.2691060888536  0.4540808022634 1.0
C      1  0.4494319741814  0.3005903086416  0.4752456603305 1.0
C      1  0.5009112193890  0.3913620851660  0.6202345353739 1.0
C      1  0.6527244878528  0.3478772186401  0.5813017039436 1.0
C      1  0.4804018664161  0.3532090743625  0.2809482421109 1.0
C      1  0.2646552267567  0.4428687296868  0.5052223030483 1.0
C      1  0.7187114248575  0.4103435272391  0.5503441138891 1.0
C      1  0.5719579649979  0.3487269040082  0.3013194746639 1.0
C      1  0.4126218148036  0.3407405083654  0.3274066250388 1.0
C      1  0.6163373067756  0.4438299677727  0.7178792185050 1.0
C      1  0.5580091067465  0.5714873927716  0.2897234458157 1.0
C      1  0.3735038996893  0.5620386350371  0.7408536891173 1.0
C      1  0.5852173769314  0.7121503562132  0.4938067155444 1.0
C      1  0.4648719888527  0.3455592193651  0.5536329135995 1.0
C      1  0.2996553737117  0.6681962016853  0.4520042797741 1.0
C      1  0.2515991309809  0.5804024586697  0.6032670287655 1.0
C      1  0.5653895878834  0.5143434886008  0.7470709676036 1.0
C      1  0.7272198248623  0.5019737940868  0.5298019536043 1.0
C      1  0.5419221508143  0.5907537278407  0.7024083559712 1.0
C      1  0.6376452332451  0.4195541888114  0.3092452455747 1.0
C      1  0.4527931974817  0.4723512800515  0.6396449563124 1.0
C      1  0.6239402271487  0.2960032183503  0.5063710707481 1.0
C      1  0.3251755438772  0.5889411756189  0.6717159050501 1.0
C      1  0.4939545821734  0.5971873897562  0.3612437262738 1.0
C      1  0.3677664602778  0.6652377510835  0.3884500787997 1.0
C      1  0.5455772268874  0.7592988655880  0.4235432221295 1.0
C      1  0.6642899847181  0.3113771883131  0.4181055819887 1.0
C      1  0.2998952380422  0.6366218766323  0.5338998769802 1.0
C      1  0.4861870547706  0.7043072982152  0.4991041408568 1.0
C      1  0.4623587780013  0.5293996071498  0.7204480570494 1.0
C      1  0.6090073353269  0.5062685309790  0.2847858734357 1.0
END
