TITL C-77347-3993-27 -3.909 3375.00 -651.49085460 0 0 80 (Cs) n - 1
REM
REM Run started: at 2020.12.04 23:36:03 in /rds/project/t2_vol4/rds-t2-cs072/BORA/CARBON/AIRSS/Generating-Clusters/Str-Search/Higher-Symm/C10-100
REM VASP from code version vasp.5.4.4.18Apr17-6-g9f103f2a35 (build Oct 11 2019 16:45:47) gamma-only
REM
REM
REM
REM
REM ./C.cell (f39ce9773e2efe3fa5bbdf770a4156b8)
REM AIRSS Version 0.9.1 bugfix July 2018 build 013d7b7c2542+ Fri, 06 Jul 2018 19:26:36 +0100
REM compiler GCC version 4.8.5 20150623 (Red Hat 4.8.5-39)
REM options -cpp -mtune=generic -march=x86-64 -g -O0
REM seed 726452939 376018755 453084459 -1953342932 1285419277 626401352 2141153100 -1633931617 -1349787740 802923692 1188180335 -1424942744
REM
REM C.POTCAR (d86ddea03c3ceb6dc662c8ad6801f873)
REM 
CELL 1.54180   15.00000   15.00000   15.00000   90.00000   90.00000   90.00000
LATT -1
SFAC C  
C      1  0.5401294340647  0.2174838369362  0.5731708609340 1.0
C      1  0.5927547893033  0.2222896826062  0.4927869579812 1.0
C      1  0.5327031003634  0.2306122339209  0.4186612023116 1.0
C      1  0.4408961163659  0.2241995605635  0.4521925742379 1.0
C      1  0.4469945483129  0.2179797238487  0.5483992586191 1.0
C      1  0.5400012083771  0.7825794722432  0.5731887155982 1.0
C      1  0.5926920404029  0.7776875833853  0.4928414082944 1.0
C      1  0.5327281658631  0.7693007121091  0.4186645717670 1.0
C      1  0.4408796599441  0.7757237737395  0.4521151936617 1.0
C      1  0.4468959684396  0.7820033916354  0.5483051879291 1.0
C      1  0.7233051338012  0.4579565955591  0.7199055922387 1.0
C      1  0.6804324601788  0.4440855613961  0.3458395855655 1.0
C      1  0.4064663242289  0.3871436773531  0.2838434819194 1.0
C      1  0.1840276750854  0.4574975624439  0.4479153634724 1.0
C      1  0.3575436405637  0.4577263194579  0.7783298889187 1.0
C      1  0.7232614772911  0.5421641320941  0.7199021499319 1.0
C      1  0.6803734711341  0.5561559821491  0.3459850888393 1.0
C      1  0.4065320221268  0.6127862489127  0.2836751945253 1.0
C      1  0.1840055033560  0.5423965890695  0.4478249353197 1.0
C      1  0.3576008842260  0.5423709156408  0.7783342933481 1.0
C      1  0.6576138803930  0.6957354834655  0.6477279412700 1.0
C      1  0.7018090964527  0.6864976395332  0.4105158605433 1.0
C      1  0.4805425484263  0.6992359253852  0.2847771478816 1.0
C      1  0.2946102977701  0.6950759180403  0.4669594790047 1.0
C      1  0.4115402641911  0.6947689624019  0.6872848603251 1.0
C      1  0.6577495396363  0.3043455312381  0.6477042111432 1.0
C      1  0.7017732075032  0.3135620949937  0.4103980082856 1.0
C      1  0.4804584744962  0.3006848350796  0.2847907051831 1.0
C      1  0.2946316293290  0.3047954900363  0.4671438089004 1.0
C      1  0.4116896716970  0.3053291826994  0.6873366132733 1.0
C      1  0.7396352646687  0.4055094741770  0.4176432667150 1.0
C      1  0.4829926601292  0.3863399844853  0.2293479115722 1.0
C      1  0.2566750134229  0.3976696482117  0.4472997079718 1.0
C      1  0.3768585439316  0.3983580107253  0.7082956285405 1.0
C      1  0.6636234822239  0.3995188810271  0.6784824650612 1.0
C      1  0.7397238641501  0.5945599116340  0.4178206122187 1.0
C      1  0.4831440637420  0.6135607685358  0.2292910334213 1.0
C      1  0.2566710760678  0.6022005989380  0.4471227013396 1.0
C      1  0.3768183203621  0.6017312177065  0.7082752052144 1.0
C      1  0.6635184913315  0.6005872720977  0.6785613787294 1.0
C      1  0.5405970284039  0.4175378349134  0.5627163234885 1.0
C      1  0.5740931193192  0.4187673871150  0.4771674626797 1.0
C      1  0.4981580224815  0.4382658920080  0.4151387829228 1.0
C      1  0.4192853528222  0.4196774149552  0.4688570502909 1.0
C      1  0.4438770480451  0.4185109022305  0.5574316784973 1.0
C      1  0.5405729717222  0.5825112595434  0.5627297059952 1.0
C      1  0.5740582093737  0.5812930141863  0.4771765789096 1.0
C      1  0.4981651607671  0.5616615386948  0.4151148632663 1.0
C      1  0.4192903891446  0.5801659694533  0.4688435342082 1.0
C      1  0.4438193852761  0.5815560436835  0.5574121557280 1.0
C      1  0.3689242630466  0.2705492346070  0.4095375713570 1.0
C      1  0.3795461623392  0.2604163353736  0.6016459472108 1.0
C      1  0.5673829178994  0.2616277037968  0.6527488785048 1.0
C      1  0.6784818297960  0.2635951211588  0.4900454733802 1.0
C      1  0.5560451899286  0.2835873346603  0.3420214041220 1.0
C      1  0.3689301751364  0.7293610861691  0.4094369290108 1.0
C      1  0.3794183079561  0.7395427063619  0.6014912431272 1.0
C      1  0.5672531163008  0.7384478428506  0.6527705348935 1.0
C      1  0.6784542529157  0.7364513373971  0.4901296022132 1.0
C      1  0.5561195994079  0.7163464206444  0.3420189125267 1.0
C      1  0.6636432792553  0.4517552394852  0.4557707477514 1.0
C      1  0.4759626968110  0.4507151393134  0.3149107390626 1.0
C      1  0.3323631701467  0.4534660267233  0.4427899642047 1.0
C      1  0.3905731097944  0.4529623385720  0.6321862379477 1.0
C      1  0.5956561501310  0.4527330264520  0.6371453552848 1.0
C      1  0.6636173200840  0.5483070422982  0.4557702737873 1.0
C      1  0.4759754382573  0.5492180161810  0.3148892703764 1.0
C      1  0.3323628697776  0.5464260610671  0.4427505114422 1.0
C      1  0.3904666906089  0.5471021912035  0.6321227114524 1.0
C      1  0.5956814310842  0.5473112152531  0.6371113889893 1.0
C      1  0.4993192223837  0.2919234020777  0.7079632769171 1.0
C      1  0.7112602709303  0.2904127511097  0.5754894989402 1.0
C      1  0.6407821532792  0.3310791686769  0.3410842833138 1.0
C      1  0.3907664407055  0.2980210496710  0.3196758885545 1.0
C      1  0.3023897530729  0.2851144623820  0.5565751178586 1.0
C      1  0.4991459078962  0.7082104479706  0.7079819064990 1.0
C      1  0.7112200034081  0.7096476012999  0.5755748017393 1.0
C      1  0.6408628514100  0.6688261331994  0.3411596315907 1.0
C      1  0.3908423194044  0.7019060812524  0.3195816397023 1.0
C      1  0.3023340061238  0.7147798405330  0.5563722702453 1.0
END
