TITL C-78450-3539-11 -2.834 3375.00 -482.28407126 0 0 60 (C1) n - 1
REM
REM Run started: at 2020.12.15 07:13:20 in /rds/project/t2_vol4/rds-t2-cs072/BORA/CARBON/AIRSS/Generating-Clusters/Str-Search/Higher-Symm/Only-C60
REM VASP from code version vasp.5.4.4.18Apr17-6-g9f103f2a35 (build Oct 11 2019 16:45:47) gamma-only
REM
REM
REM
REM
REM ./C.cell (5f7b7a0d59291d2373303da1f58b8d66)
REM AIRSS Version 0.9.1 bugfix July 2018 build 013d7b7c2542+ Fri, 06 Jul 2018 19:26:36 +0100
REM compiler GCC version 4.8.5 20150623 (Red Hat 4.8.5-39)
REM options -cpp -mtune=generic -march=x86-64 -g -O0
REM seed 2113285229 -850147689 -163595328 -1332425868 -1048819975 -1012568462 -808514266 -1698137356 -1086896501 -1447790128 326610508 -1207356198
REM
REM C.POTCAR (d86ddea03c3ceb6dc662c8ad6801f873)
REM 
CELL 1.54180   15.00000   15.00000   15.00000   90.00000   90.00000   90.00000
LATT -1
SFAC C  
C      1  0.3477319174496  0.4272110951184  0.3225230256712 1.0
C      1  0.5465286219831  0.4317436314998  0.2870396395250 1.0
C      1  0.6931178485648  0.4011811986845  0.4263365787717 1.0
C      1  0.6948793925789  0.3971852239739  0.6041203768816 1.0
C      1  0.5624508122013  0.4205446590144  0.7101560959130 1.0
C      1  0.3649826703430  0.4330380125761  0.6769346235190 1.0
C      1  0.2639750884418  0.4180618273134  0.5036567891582 1.0
C      1  0.2315257024401  0.5420991733569  0.5964353114028 1.0
C      1  0.2434963406219  0.5415577815911  0.3518557046523 1.0
C      1  0.4680544340688  0.5636461782230  0.2547568541961 1.0
C      1  0.6957256388260  0.5294356567282  0.3300659275460 1.0
C      1  0.7497558266408  0.5558353993890  0.5693112122894 1.0
C      1  0.6757467911386  0.5364218953681  0.6883060465208 1.0
C      1  0.4347111272049  0.5603181955055  0.7352868605618 1.0
C      1  0.3406320192011  0.6205111052957  0.4602560499304 1.0
C      1  0.4063165784257  0.6344017261230  0.3894163086041 1.0
C      1  0.5853594991336  0.6350254030549  0.3900961320479 1.0
C      1  0.6367604032606  0.6125950175913  0.4773475841975 1.0
C      1  0.6202025746636  0.6505973737095  0.5746855735830 1.0
C      1  0.5305250577718  0.6189335320513  0.6177585057625 1.0
C      1  0.3658651400800  0.6277833236543  0.5559961731030 1.0
C      1  0.6866961100092  0.3581475016535  0.5126603796770 1.0
C      1  0.6173474307154  0.3659247222248  0.6550716986763 1.0
C      1  0.4672401476510  0.4017968043102  0.6709870325700 1.0
C      1  0.3345568398690  0.3936492716013  0.5798878698279 1.0
C      1  0.3275550096949  0.3967402743659  0.4229119260389 1.0
C      1  0.4498247969640  0.4035441402901  0.3260793895717 1.0
C      1  0.6021923855364  0.3906182764720  0.3738721075832 1.0
C      1  0.5683911765960  0.3024761977554  0.6012185400875 1.0
C      1  0.4748439867972  0.3196456864899  0.6064916602528 1.0
C      1  0.3976412286920  0.3171135864428  0.5462466019463 1.0
C      1  0.3904192408952  0.3187374638375  0.4489508080216 1.0
C      1  0.4580880192695  0.3167247403708  0.3783694453117 1.0
C      1  0.5502157737058  0.3002114665047  0.3910643696789 1.0
C      1  0.6201654835642  0.2874075237815  0.5206582033501 1.0
C      1  0.5193093885073  0.5792347423334  0.7158797183486 1.0
C      1  0.3097973175912  0.5808067707134  0.6242221178295 1.0
C      1  0.2588530016477  0.5699081977565  0.4367900175604 1.0
C      1  0.3964114588885  0.5844701378004  0.3043246642276 1.0
C      1  0.6185584087727  0.5794631836918  0.3172881864047 1.0
C      1  0.7259532123474  0.5595541095220  0.4797300360655 1.0
C      1  0.6908861016639  0.6112624443379  0.6240875578127 1.0
C      1  0.5559813954754  0.4621091646577  0.4295826391305 1.0
C      1  0.5830315209371  0.5268794007618  0.4939021847254 1.0
C      1  0.5373969006959  0.5301023035022  0.5702612122571 1.0
C      1  0.4751198216912  0.4648677616799  0.5929962969036 1.0
C      1  0.4002676573212  0.4612836334998  0.5446347528204 1.0
C      1  0.3930774352932  0.4691172865196  0.4544778196886 1.0
C      1  0.4692502356435  0.4623484350821  0.4059598287357 1.0
C      1  0.7298473952918  0.4795164341494  0.6296702204578 1.0
C      1  0.5924306868519  0.5119375825113  0.7252681645166 1.0
C      1  0.3567944856077  0.5285507981583  0.6977205308745 1.0
C      1  0.2299299646217  0.5064590548708  0.5108076950800 1.0
C      1  0.3194997122454  0.5157657178071  0.3049762815445 1.0
C      1  0.5505391655294  0.5264799984983  0.2656271156132 1.0
C      1  0.7255530405741  0.4912277112335  0.4098965944864 1.0
C      1  0.4978897457798  0.7068430691479  0.5003219643156 1.0
C      1  0.4533249998307  0.6630112588367  0.5700208379553 1.0
C      1  0.4957801204674  0.6688881414176  0.4139574771575 1.0
C      1  0.5795091117238  0.2381337955878  0.4531049790575 1.0
END
