TITL C-78450-3539-31 -2.662 3375.00 -480.36139371 0 0 60 (C4h) n - 1
REM
REM Run started: at 2020.12.15 12:30:47 in /rds/project/t2_vol4/rds-t2-cs072/BORA/CARBON/AIRSS/Generating-Clusters/Str-Search/Higher-Symm/Only-C60
REM VASP from code version vasp.5.4.4.18Apr17-6-g9f103f2a35 (build Oct 11 2019 16:45:47) gamma-only
REM
REM
REM
REM
REM ./C.cell (5f7b7a0d59291d2373303da1f58b8d66)
REM AIRSS Version 0.9.1 bugfix July 2018 build 013d7b7c2542+ Fri, 06 Jul 2018 19:26:36 +0100
REM compiler GCC version 4.8.5 20150623 (Red Hat 4.8.5-39)
REM options -cpp -mtune=generic -march=x86-64 -g -O0
REM seed 2069409339 -580711177 1143205449 -1584413732 -751329681 1635562241 2084514083 1144374623 76321815 -1176635315 1152376272 564211080
REM
REM C.POTCAR (d86ddea03c3ceb6dc662c8ad6801f873)
REM 
CELL 1.54180   15.00000   15.00000   15.00000   90.00000   90.00000   90.00000
LATT -1
SFAC C  
C      1  0.7319793395368  0.5589444863420  0.5376547655625 1.0
C      1  0.7319793391131  0.5376547860196  0.4410555097471 1.0
C      1  0.7319793360543  0.4410555081105  0.4623452498838 1.0
C      1  0.7319793218669  0.4623452235010  0.5589445071002 1.0
C      1  0.2671009487158  0.5589386964890  0.5376635626853 1.0
C      1  0.2671009750082  0.5376635845008  0.4410612880438 1.0
C      1  0.2671009603831  0.4410612963906  0.4623364327969 1.0
C      1  0.2671009483637  0.4623364067100  0.5589387079234 1.0
C      1  0.3719905824427  0.4804895497503  0.6844158186046 1.0
C      1  0.3719906352703  0.6844157718914  0.5195103554827 1.0
C      1  0.3719905950610  0.5195104508096  0.3155841153990 1.0
C      1  0.3719906605758  0.3155841953705  0.4804896014117 1.0
C      1  0.6271034204613  0.4804814017139  0.6844134375235 1.0
C      1  0.6271033856026  0.6844133342703  0.5195185415931 1.0
C      1  0.6271034414419  0.5195186003260  0.3155866233396 1.0
C      1  0.6271033599925  0.3155866456442  0.4804814882941 1.0
C      1  0.4486802525815  0.5639533761174  0.4652553373765 1.0
C      1  0.4486802421946  0.4652553567170  0.4360466342734 1.0
C      1  0.4486802472092  0.4360466082872  0.5347446610476 1.0
C      1  0.4486802422940  0.5347446235916  0.5639533477737 1.0
C      1  0.5504281458800  0.5639571978689  0.4652511664320 1.0
C      1  0.5504281582271  0.4652511838936  0.4360428311640 1.0
C      1  0.5504281504410  0.4360427973361  0.5347488531790 1.0
C      1  0.5504281512924  0.5347488140281  0.5639571779233 1.0
C      1  0.4547083679736  0.6931872189459  0.3694339088029 1.0
C      1  0.4547080953918  0.3694339870251  0.3068130485442 1.0
C      1  0.4547083481689  0.3068127909471  0.6305661362418 1.0
C      1  0.4547081608234  0.6305660807405  0.6931871229170 1.0
C      1  0.5444073498714  0.6931720325860  0.3694200990483 1.0
C      1  0.5444076806207  0.3694202614987  0.3068281134041 1.0
C      1  0.5444073511032  0.3068279622076  0.6305798250443 1.0
C      1  0.5444074823616  0.6305798562013  0.6931718421523 1.0
C      1  0.5462410120032  0.7188806074767  0.5536777871300 1.0
C      1  0.5462411020674  0.5536778114690  0.2811194028943 1.0
C      1  0.5462410702213  0.2811193817204  0.4463221951196 1.0
C      1  0.5462410691481  0.4463221688917  0.7188806052380 1.0
C      1  0.4528662237063  0.7188742715408  0.5536815184852 1.0
C      1  0.4528661743960  0.5536815475960  0.2811257266478 1.0
C      1  0.4528661787567  0.2811257468998  0.4463184973789 1.0
C      1  0.4528661379992  0.4463184749631  0.7188742286362 1.0
C      1  0.6739325733280  0.4223954185576  0.6202700102836 1.0
C      1  0.6739326227661  0.6202700064528  0.5776045901997 1.0
C      1  0.6739325734042  0.5776045887372  0.3797300560474 1.0
C      1  0.6739326359927  0.3797299823110  0.4223954425861 1.0
C      1  0.3251472461720  0.4223961229251  0.6202669061068 1.0
C      1  0.3251471983397  0.6202669640956  0.5776038310158 1.0
C      1  0.3251472496368  0.5776038605748  0.3797330456775 1.0
C      1  0.3251471839535  0.3797330335045  0.4223961175777 1.0
C      1  0.6093717384691  0.3583015506249  0.5732624777487 1.0
C      1  0.6093717117117  0.5732623378447  0.6416983396294 1.0
C      1  0.6093717382444  0.6416984488567  0.4267375403056 1.0
C      1  0.6093717290257  0.4267376498048  0.3583016503139 1.0
C      1  0.3897268457272  0.3583126734576  0.5732494437871 1.0
C      1  0.3897268652533  0.5732493260250  0.6416871813123 1.0
C      1  0.3897268530324  0.6416873141860  0.4267505261007 1.0
C      1  0.3897268677610  0.4267506597609  0.3583127508578 1.0
C      1  0.4995527112332  0.3614915421188  0.7067822529911 1.0
C      1  0.4995527279599  0.2932177358500  0.3614915481427 1.0
C      1  0.4995527333487  0.7067822373867  0.6385084717451 1.0
C      1  0.4995527500178  0.6385084505360  0.2932177453252 1.0
END
