TITL C-78450-3539-6 -2.922 3375.00 -477.46743029 0 0 60 (C2) n - 1
REM
REM Run started: at 2020.12.15 06:00:52 in /rds/project/t2_vol4/rds-t2-cs072/BORA/CARBON/AIRSS/Generating-Clusters/Str-Search/Higher-Symm/Only-C60
REM VASP from code version vasp.5.4.4.18Apr17-6-g9f103f2a35 (build Oct 11 2019 16:45:47) gamma-only
REM
REM
REM
REM
REM ./C.cell (5f7b7a0d59291d2373303da1f58b8d66)
REM AIRSS Version 0.9.1 bugfix July 2018 build 013d7b7c2542+ Fri, 06 Jul 2018 19:26:36 +0100
REM compiler GCC version 4.8.5 20150623 (Red Hat 4.8.5-39)
REM options -cpp -mtune=generic -march=x86-64 -g -O0
REM seed -333899387 -669504342 -1128675854 1439314429 1491172929 -2072283065 739106413 -1207128813 784093625 -2053758202 453808435 -1896834628
REM
REM C.POTCAR (d86ddea03c3ceb6dc662c8ad6801f873)
REM 
CELL 1.54180   15.00000   15.00000   15.00000   90.00000   90.00000   90.00000
LATT -1
SFAC C  
C      1  0.6666755616309  0.6826006815836  0.4283931876963 1.0
C      1  0.3333201363347  0.3174003140042  0.4283998869839 1.0
C      1  0.6821396116341  0.6216002011726  0.3592630943490 1.0
C      1  0.3178525372422  0.3784040102876  0.3592673463947 1.0
C      1  0.5232259700574  0.7574718710364  0.4891541550852 1.0
C      1  0.4767761360887  0.2425304858807  0.4891490679917 1.0
C      1  0.5271949282640  0.4617327593468  0.2550507586465 1.0
C      1  0.4727926787359  0.5382715832282  0.2550532829078 1.0
C      1  0.4193674046645  0.5343448407147  0.7412424412938 1.0
C      1  0.5806463897882  0.4656502300789  0.7412360260153 1.0
C      1  0.4830487423907  0.6018729639135  0.7197390219629 1.0
C      1  0.5169640008254  0.3981242882973  0.7197358331883 1.0
C      1  0.3518066167279  0.6745941844061  0.5054992854738 1.0
C      1  0.6481941302631  0.3254041244189  0.5054871191953 1.0
C      1  0.3782806873820  0.6003188701044  0.3602687460069 1.0
C      1  0.6217116617654  0.3996825182379  0.3602578494016 1.0
C      1  0.3164749695702  0.3462894644970  0.5187329670492 1.0
C      1  0.6835248556644  0.6537115748929  0.5187242455478 1.0
C      1  0.7010794260679  0.5137875976710  0.6293048829512 1.0
C      1  0.2989256031506  0.4862122855182  0.6293199150313 1.0
C      1  0.4587266145396  0.4732798649990  0.5274301401898 1.0
C      1  0.5412729353797  0.5267186115819  0.5274284899152 1.0
C      1  0.6150136319913  0.4721999577710  0.2996663212156 1.0
C      1  0.3849758624211  0.5278032750747  0.2996736140753 1.0
C      1  0.7150361714289  0.5605200221741  0.5362198703557 1.0
C      1  0.2849645170161  0.4394799260375  0.5362333535340 1.0
C      1  0.4674889012236  0.2714195975996  0.5801442657682 1.0
C      1  0.5325175050152  0.7285785743533  0.5801489955708 1.0
C      1  0.7818019531386  0.5124187411537  0.4806751200820 1.0
C      1  0.2181958835337  0.4875816556690  0.4806947851842 1.0
C      1  0.5444565405430  0.6011961442069  0.5800397795115 1.0
C      1  0.4555481008704  0.3988019171575  0.5800405538054 1.0
C      1  0.7697615637501  0.4372636021423  0.4464942078073 1.0
C      1  0.2302334973275  0.5627392288846  0.4465151769851 1.0
C      1  0.4980534751566  0.7238688020152  0.4022229002000 1.0
C      1  0.5019426657812  0.2761335128608  0.4022166163762 1.0
C      1  0.4330782714753  0.4405673322417  0.7421540065169 1.0
C      1  0.5669357049074  0.5594278845883  0.7421483534571 1.0
C      1  0.5060717489755  0.6253904760048  0.2721122406849 1.0
C      1  0.4939183717043  0.3746111953716  0.2721039242464 1.0
C      1  0.6163660826952  0.3552315303308  0.5868684945761 1.0
C      1  0.3836388084673  0.6447671973753  0.5868786447636 1.0
C      1  0.3487369386287  0.4435260221939  0.3171679778540 1.0
C      1  0.6512484220873  0.5564742631709  0.3171603048400 1.0
C      1  0.5887303413236  0.7391498711742  0.4225729861005 1.0
C      1  0.4112672178462  0.2608521507871  0.4225729149141 1.0
C      1  0.6097704319627  0.6708875741784  0.5759893571041 1.0
C      1  0.3902336334213  0.3291107749125  0.5759932293479 1.0
C      1  0.4716890587033  0.6570319872449  0.6295735024948 1.0
C      1  0.5283190818839  0.3429658737863  0.6295693816941 1.0
C      1  0.6488819185720  0.5254374989366  0.7063772054757 1.0
C      1  0.3511323216007  0.4745606608950  0.7063859821348 1.0
C      1  0.6732596148270  0.4047125212275  0.4447643790775 1.0
C      1  0.3267359730325  0.5952868060170  0.4447782060509 1.0
C      1  0.6559283133697  0.4406956661549  0.5900334472698 1.0
C      1  0.3440751629945  0.5593032776263  0.5900449046945 1.0
C      1  0.4560335826946  0.6595931535639  0.3455790462216 1.0
C      1  0.5439596263930  0.3404065073213  0.3455692326904 1.0
C      1  0.6336539507364  0.4902401267091  0.5072344030212 1.0
C      1  0.3663435543329  0.5097613652154  0.5072449710200 1.0
END
