TITL C-78450-3539-26 -2.966 3375.00 -471.80811955 0 0 60 (D3) n - 1
REM
REM Run started: at 2020.12.15 11:20:49 in /rds/project/t2_vol4/rds-t2-cs072/BORA/CARBON/AIRSS/Generating-Clusters/Str-Search/Higher-Symm/Only-C60
REM VASP from code version vasp.5.4.4.18Apr17-6-g9f103f2a35 (build Oct 11 2019 16:45:47) gamma-only
REM
REM
REM
REM
REM ./C.cell (5f7b7a0d59291d2373303da1f58b8d66)
REM AIRSS Version 0.9.1 bugfix July 2018 build 013d7b7c2542+ Fri, 06 Jul 2018 19:26:36 +0100
REM compiler GCC version 4.8.5 20150623 (Red Hat 4.8.5-39)
REM options -cpp -mtune=generic -march=x86-64 -g -O0
REM seed -720141860 389467365 98780548 -765932500 -2095020412 -99152891 -448347389 -1989581892 -1735696524 -1309883959 -490083600 -1848797294
REM
REM C.POTCAR (d86ddea03c3ceb6dc662c8ad6801f873)
REM 
CELL 1.54180   15.00000   15.00000   15.00000   90.00000   90.00000   90.00000
LATT -1
SFAC C  
C      1  0.5531995436679  0.5330520888675  0.3687770977038 1.0
C      1  0.4453343602252  0.5292470687134  0.3686742133886 1.0
C      1  0.5028489248920  0.4381497400691  0.3686808756310 1.0
C      1  0.4468006296034  0.5330529757517  0.6312225706623 1.0
C      1  0.5546656268882  0.5292475332674  0.6313257686471 1.0
C      1  0.4971505218535  0.4381504309632  0.6313193093985 1.0
C      1  0.2504451274981  0.6385545372103  0.4580579783494 1.0
C      1  0.5049898446105  0.2149858487390  0.4587761104550 1.0
C      1  0.7446360638414  0.6470657995400  0.4594794740179 1.0
C      1  0.7495554073853  0.6385541010213  0.5419418582176 1.0
C      1  0.4950087248270  0.2149861701926  0.5412253145038 1.0
C      1  0.2553645550711  0.6470672113324  0.5405209798287 1.0
C      1  0.5349817344994  0.2624501433627  0.3808086611629 1.0
C      1  0.6889000930960  0.6484085373289  0.3812167891963 1.0
C      1  0.2773933157436  0.5891421932411  0.3802399295709 1.0
C      1  0.4650174229579  0.2624508570328  0.6191920849438 1.0
C      1  0.3111008874995  0.6484097235850  0.6187834009347 1.0
C      1  0.7226069223966  0.5891418643161  0.6197603907400 1.0
C      1  0.3439021080938  0.4466525814494  0.4669212271065 1.0
C      1  0.6246738553347  0.3912491624698  0.4673514402234 1.0
C      1  0.5318026902560  0.6618317074572  0.4671486639363 1.0
C      1  0.6560979402213  0.4466523906900  0.5330789361543 1.0
C      1  0.3753258958999  0.3912497364520  0.5326486180363 1.0
C      1  0.4681978996913  0.6618320979153  0.5328507298488 1.0
C      1  0.6113171292917  0.3263274431213  0.6698553332149 1.0
C      1  0.5944548058228  0.6842620482909  0.6700957716257 1.0
C      1  0.2927888050026  0.4895812586184  0.6695846272472 1.0
C      1  0.3886822525108  0.3263272133319  0.3301446654644 1.0
C      1  0.4055458551650  0.6842618299571  0.3299035685245 1.0
C      1  0.7072110784568  0.4895803448683  0.3304154259764 1.0
C      1  0.2799750729416  0.4314364646579  0.3920645593994 1.0
C      1  0.6702542413320  0.3433301913089  0.3928802021591 1.0
C      1  0.5506824305717  0.7248914238713  0.3924541779539 1.0
C      1  0.7200250827197  0.4314362986390  0.6079351573550 1.0
C      1  0.3297449005328  0.3433306668022  0.6071198025696 1.0
C      1  0.4493185339094  0.7248921826716  0.6075447223445 1.0
C      1  0.5652431770902  0.5696185431226  0.4613669345208 1.0
C      1  0.4072017183115  0.5215903904561  0.4611246394350 1.0
C      1  0.5279147961861  0.4084656627623  0.4613344829927 1.0
C      1  0.4347558347633  0.5696198624144  0.5386323565498 1.0
C      1  0.5927984034071  0.5215902291368  0.5388753325831 1.0
C      1  0.4720852110922  0.4084659277598  0.5386656337586 1.0
C      1  0.7603566519861  0.5072344832692  0.6339823066445 1.0
C      1  0.3632949921686  0.7218922459398  0.6330813586005 1.0
C      1  0.3751818428373  0.2704142593720  0.6331675543827 1.0
C      1  0.2396432765808  0.5072347970895  0.3660180362682 1.0
C      1  0.6367061854556  0.7218913694242  0.3669184052293 1.0
C      1  0.6248165866399  0.2704138704671  0.3668331761746 1.0
C      1  0.5288236960126  0.7346755629514  0.6584386379218 1.0
C      1  0.2818224931704  0.4075022950362  0.6579603104961 1.0
C      1  0.6878800753997  0.3578241760326  0.6584374344266 1.0
C      1  0.4711776217350  0.7346745134275  0.3415601515589 1.0
C      1  0.7181774678530  0.4075013710327  0.3420396715058 1.0
C      1  0.3121196070601  0.3578242000146  0.3415626020792 1.0
C      1  0.4795384568079  0.3363569873008  0.3422103208481 1.0
C      1  0.6533228293862  0.5633196931371  0.3421617167450 1.0
C      1  0.3690138087856  0.6004847235931  0.3416488694960 1.0
C      1  0.5204608906898  0.3363577646330  0.6577899734905 1.0
C      1  0.3466778526698  0.5633203704864  0.6578385786106 1.0
C      1  0.6309862396009  0.6004846340335  0.6583510791893 1.0
END
