TITL C-78450-3539-27 -3.02 3375.00 -491.87305015 0 0 60 (C1) n - 1
REM
REM Run started: at 2020.12.15 11:35:14 in /rds/project/t2_vol4/rds-t2-cs072/BORA/CARBON/AIRSS/Generating-Clusters/Str-Search/Higher-Symm/Only-C60
REM VASP from code version vasp.5.4.4.18Apr17-6-g9f103f2a35 (build Oct 11 2019 16:45:47) gamma-only
REM
REM
REM
REM
REM ./C.cell (5f7b7a0d59291d2373303da1f58b8d66)
REM AIRSS Version 0.9.1 bugfix July 2018 build 013d7b7c2542+ Fri, 06 Jul 2018 19:26:36 +0100
REM compiler GCC version 4.8.5 20150623 (Red Hat 4.8.5-39)
REM options -cpp -mtune=generic -march=x86-64 -g -O0
REM seed 261695478 311359046 43770672 808472371 -821069635 1722233292 -343174352 -1108808704 -55017632 587720162 1754146292 -1764472431
REM
REM C.POTCAR (d86ddea03c3ceb6dc662c8ad6801f873)
REM 
CELL 1.54180   15.00000   15.00000   15.00000   90.00000   90.00000   90.00000
LATT -1
SFAC C  
C      1  0.3601765639849  0.4921967950339  0.7035887512795 1.0
C      1  0.3590181137265  0.3065418806865  0.5594121905605 1.0
C      1  0.3629462119979  0.3835164381620  0.3373175331422 1.0
C      1  0.3680446721569  0.6186462120532  0.3428487653211 1.0
C      1  0.3675855129937  0.6856760858760  0.5670491429622 1.0
C      1  0.4576620793353  0.6676489885762  0.5357534452403 1.0
C      1  0.4527839118330  0.5132019926304  0.6781714211923 1.0
C      1  0.4497454032743  0.3374181785870  0.5746515243967 1.0
C      1  0.4516286933649  0.3775171963035  0.3753259151015 1.0
C      1  0.4571509020240  0.5825240012878  0.3525189696335 1.0
C      1  0.4837239527400  0.4191526398179  0.5336017018849 1.0
C      1  0.4851560672105  0.4421280232981  0.4400423959190 1.0
C      1  0.4867436682761  0.5386243606952  0.4341224842362 1.0
C      1  0.4859022416193  0.5745587890776  0.5231093539173 1.0
C      1  0.4839393880405  0.5004485205672  0.5849420803146 1.0
C      1  0.5096415915808  0.2220980337545  0.4241807517004 1.0
C      1  0.5293727909795  0.4844626134696  0.2359212376552 1.0
C      1  0.5151167539808  0.7625476663326  0.4013469355139 1.0
C      1  0.5357935300158  0.6503120920368  0.7035488676912 1.0
C      1  0.5151366881308  0.3458387042984  0.7317649939451 1.0
C      1  0.6180391512016  0.6515538210520  0.6860121898073 1.0
C      1  0.6004796228844  0.3647019219213  0.7113571630752 1.0
C      1  0.5949442118431  0.2409918383379  0.4375816493080 1.0
C      1  0.6141390025366  0.4834272267180  0.2652678353414 1.0
C      1  0.6008924566905  0.7517005364201  0.3891034159357 1.0
C      1  0.6825435364889  0.7315170172442  0.3766380938476 1.0
C      1  0.6948408297520  0.6229809342528  0.6479283866467 1.0
C      1  0.6696480850195  0.3998057675683  0.6807106968745 1.0
C      1  0.6722933384347  0.2675456687465  0.4584445867522 1.0
C      1  0.6869212491920  0.4803227364332  0.3065975257479 1.0
C      1  0.2684659293331  0.5602820327938  0.5571596585146 1.0
C      1  0.2653863774591  0.4650700711885  0.5756263343072 1.0
C      1  0.2650227428374  0.4176281908861  0.4911133423678 1.0
C      1  0.2681549296565  0.4836612859807  0.4195867327844 1.0
C      1  0.2688881555115  0.5718580492389  0.4604653382441 1.0
C      1  0.3086956548221  0.3319027576915  0.4830320502172 1.0
C      1  0.3157302616050  0.4655003671909  0.3381559377516 1.0
C      1  0.3159160427135  0.6439960854728  0.4179816541171 1.0
C      1  0.3175511469299  0.6211905255499  0.6135417703989 1.0
C      1  0.3100281026404  0.4301332373942  0.6537710525801 1.0
C      1  0.7680084132229  0.5798385381400  0.4081898900996 1.0
C      1  0.7771412000551  0.6308756902774  0.4872515672071 1.0
C      1  0.7359751961979  0.5390726703641  0.6270372638253 1.0
C      1  0.7486769603153  0.4072097285116  0.5374600309956 1.0
C      1  0.7543315175375  0.4246652338923  0.4456086455930 1.0
C      1  0.4597683163842  0.6021499758155  0.7157863433047 1.0
C      1  0.4496112952539  0.3300022667041  0.6736043773853 1.0
C      1  0.4473585867840  0.2802840199233  0.3979047525816 1.0
C      1  0.4602523625348  0.5296808044603  0.2686606048332 1.0
C      1  0.4554015654939  0.7332240212564  0.4598586442892 1.0
C      1  0.3633121418408  0.5875634216840  0.6919839656851 1.0
C      1  0.3545738259435  0.3436765919398  0.6478022227919 1.0
C      1  0.3538026681737  0.3105571594017  0.4004868650577 1.0
C      1  0.3632894501705  0.5366129585560  0.2925646413945 1.0
C      1  0.3612790380825  0.7084787783804  0.4738784762595 1.0
C      1  0.7577147703242  0.6147983486987  0.5766385664508 1.0
C      1  0.7262840116147  0.4457664133138  0.6218053771386 1.0
C      1  0.7226719697363  0.3408667806394  0.4749795057530 1.0
C      1  0.7442887669028  0.4932584678370  0.3798080837902 1.0
C      1  0.7404083786138  0.6705887455782  0.4093962993373 1.0
END
