TITL C-79550-8220-38 -2.739 3375.00 -478.83685911 0 0 60 (Cs) n - 1
REM
REM Run started: at 2020.11.28 04:42:32 in /rds/project/t2_vol4/rds-t2-cs072/BORA/CARBON/AIRSS/Generating-Clusters/Str-Search/Higher-Symm/Only-C60/Try2-TRACK-ENABLED
REM VASP from code version vasp.5.4.4.18Apr17-6-g9f103f2a35 (build Oct 11 2019 16:45:47) gamma-only
REM
REM
REM
REM
REM ./C.cell (5f7b7a0d59291d2373303da1f58b8d66)
REM AIRSS Version 0.9.1 bugfix July 2018 build 013d7b7c2542+ Fri, 06 Jul 2018 19:26:36 +0100
REM compiler GCC version 4.8.5 20150623 (Red Hat 4.8.5-39)
REM options -cpp -mtune=generic -march=x86-64 -g -O0
REM seed 614505150 530509427 301423519 -26924142 1229406137 -1577520931 -1714335978 1325536069 -234791376 1836764155 354885547 -1370590823
REM
REM C.POTCAR (d86ddea03c3ceb6dc662c8ad6801f873)
REM 
CELL 1.54180   15.00000   15.00000   15.00000   90.00000   90.00000   90.00000
LATT -1
SFAC C  
C      1  0.4485682954694  0.4423516790557  0.5770005968440 1.0
C      1  0.4242839788191  0.5320306750699  0.5520866268183 1.0
C      1  0.5083960455398  0.5851243101165  0.5508434648352 1.0
C      1  0.5801339481745  0.5162691673042  0.5520592516506 1.0
C      1  0.5386072769500  0.4333066976032  0.5770975620177 1.0
C      1  0.4485682862229  0.4423516621557  0.4229994612903 1.0
C      1  0.4242839739381  0.5320306627364  0.4479133995027 1.0
C      1  0.5083960399777  0.5851243020221  0.4491565232158 1.0
C      1  0.5801339400427  0.5162691579086  0.4479407594706 1.0
C      1  0.5386072696305  0.4333066799925  0.4229024815824 1.0
C      1  0.3099850244156  0.4128610510569  0.3903784208702 1.0
C      1  0.3570084252740  0.6542905297130  0.3888424222820 1.0
C      1  0.6031419459193  0.6854181447052  0.3882077282408 1.0
C      1  0.7089549531418  0.4594247361027  0.3890663293455 1.0
C      1  0.5248377957125  0.2904749573502  0.3878095849439 1.0
C      1  0.3099850341083  0.4128610856942  0.6096216156000 1.0
C      1  0.3570084372385  0.6542905716949  0.6111574969086 1.0
C      1  0.6031419737663  0.6854181649509  0.6117921832212 1.0
C      1  0.7089549790646  0.4594247523319  0.6109335932202 1.0
C      1  0.5248377886085  0.2904749769667  0.6121905519081 1.0
C      1  0.5773526269150  0.4623804204889  0.7317059405786 1.0
C      1  0.4910854230314  0.4105739094409  0.7374351446192 1.0
C      1  0.4170560799900  0.4786205912081  0.7318560296486 1.0
C      1  0.4572482011419  0.5702122461431  0.7286454565550 1.0
C      1  0.5562674843095  0.5602520187200  0.7285642698658 1.0
C      1  0.5773525882044  0.4623803458125  0.2682940537029 1.0
C      1  0.4910853962798  0.4105738260353  0.2625648941954 1.0
C      1  0.4170560549268  0.4786205115048  0.2681440142284 1.0
C      1  0.4572481655463  0.5702121655156  0.2713544853387 1.0
C      1  0.5562674385272  0.5602519468505  0.2714356631227 1.0
C      1  0.6538804110015  0.4304183624204  0.6880722696181 1.0
C      1  0.4827945759642  0.3286954854362  0.6931414616598 1.0
C      1  0.3357026793511  0.4627583310561  0.6880984797613 1.0
C      1  0.4155763717205  0.6425281133001  0.6876372437028 1.0
C      1  0.6114085456947  0.6228383154003  0.6874266652724 1.0
C      1  0.6538803721530  0.4304182858239  0.3119277193058 1.0
C      1  0.4827945736420  0.3286954276750  0.3068586414986 1.0
C      1  0.3357026555004  0.4627582766096  0.3119015612746 1.0
C      1  0.4155763634433  0.6425280419895  0.3123627161526 1.0
C      1  0.6114084802540  0.6228382778555  0.3125732341360 1.0
C      1  0.3290223822098  0.5753349610544  0.4448309113314 1.0
C      1  0.5189042496789  0.6884498374270  0.4441632054821 1.0
C      1  0.6821972767451  0.5395713026927  0.4450108205059 1.0
C      1  0.5882427891365  0.3462270395858  0.4444538730224 1.0
C      1  0.3828020567055  0.3668480322061  0.4443938030836 1.0
C      1  0.3290223858798  0.5753349766441  0.5551690656139 1.0
C      1  0.5189042603788  0.6884498526462  0.5558367448091 1.0
C      1  0.6821972946425  0.5395713113592  0.5549890980208 1.0
C      1  0.5882427751963  0.3462270426163  0.5555462425565 1.0
C      1  0.3828020642478  0.3668480449090  0.5556062656673 1.0
C      1  0.6690022116896  0.3764527911707  0.6092945217432 1.0
C      1  0.4339952302063  0.2994618510696  0.6122353626798 1.0
C      1  0.2867563562462  0.5020477860617  0.6111693111648 1.0
C      1  0.4359448909559  0.7021208453353  0.6119759226543 1.0
C      1  0.6708427247546  0.6226562656042  0.6108277909252 1.0
C      1  0.6690022071071  0.3764527738017  0.3907055244948 1.0
C      1  0.4339952442482  0.2994618288468  0.3877647647985 1.0
C      1  0.2867563326408  0.5020477485186  0.3888307239956 1.0
C      1  0.4359448819042  0.7021208128816  0.3880239909475 1.0
C      1  0.6708426858147  0.6226562317512  0.3891720584978 1.0
END
