TITL C-79550-8220-40 -2.741 3375.00 -468.41947630 0 0 60 (D3h) n - 1
REM
REM Run started: at 2020.11.28 04:58:44 in /rds/project/t2_vol4/rds-t2-cs072/BORA/CARBON/AIRSS/Generating-Clusters/Str-Search/Higher-Symm/Only-C60/Try2-TRACK-ENABLED
REM VASP from code version vasp.5.4.4.18Apr17-6-g9f103f2a35 (build Oct 11 2019 16:45:47) gamma-only
REM
REM
REM
REM
REM ./C.cell (5f7b7a0d59291d2373303da1f58b8d66)
REM AIRSS Version 0.9.1 bugfix July 2018 build 013d7b7c2542+ Fri, 06 Jul 2018 19:26:36 +0100
REM compiler GCC version 4.8.5 20150623 (Red Hat 4.8.5-39)
REM options -cpp -mtune=generic -march=x86-64 -g -O0
REM seed 2021666376 421873551 -1649643259 -1236550026 922952116 -1297674548 1816035781 436603080 -1556971846 -750674405 -1455480960 965938662
REM
REM C.POTCAR (d86ddea03c3ceb6dc662c8ad6801f873)
REM 
CELL 1.54180   15.00000   15.00000   15.00000   90.00000   90.00000   90.00000
LATT -1
SFAC C  
C      1  0.6539544299334  0.6846180359578  0.3769178883262 1.0
C      1  0.2634172392466  0.5409945005931  0.3768647877781 1.0
C      1  0.5827512178537  0.2747660488835  0.3769872957423 1.0
C      1  0.6539544686084  0.6846180614026  0.6230820439551 1.0
C      1  0.2634172395979  0.5409945541593  0.6231355001541 1.0
C      1  0.5827511993471  0.2747660062162  0.6230126791054 1.0
C      1  0.6539544737657  0.3153819487766  0.3769178855854 1.0
C      1  0.2634172384361  0.4590054453058  0.3768644782283 1.0
C      1  0.5827511958546  0.7252339710341  0.3769872470070 1.0
C      1  0.6539544257443  0.3153819536966  0.6230820401441 1.0
C      1  0.2634172397898  0.4590054979875  0.6231351933672 1.0
C      1  0.5827512213006  0.7252339749811  0.6230126303277 1.0
C      1  0.5865842402688  0.5511553177313  0.5509619234867 1.0
C      1  0.4122842949704  0.5494275838055  0.5509707745726 1.0
C      1  0.5009295625000  0.3994364036738  0.5509482724460 1.0
C      1  0.5865842380980  0.5511553148808  0.4490381289378 1.0
C      1  0.4122842923434  0.5494275890837  0.4490292698362 1.0
C      1  0.5009295727437  0.3994364179213  0.4490517121584 1.0
C      1  0.5865842317016  0.4488446859620  0.5509619126238 1.0
C      1  0.4122842889047  0.4505724079446  0.5509707243156 1.0
C      1  0.5009295671681  0.6005635879906  0.5509483072401 1.0
C      1  0.5865842459945  0.4488446814434  0.4490381184161 1.0
C      1  0.4122842979534  0.4505724188112  0.4490292193045 1.0
C      1  0.5009295675952  0.6005635908989  0.4490517467445 1.0
C      1  0.4967372534454  0.6816906046609  0.3856103695427 1.0
C      1  0.3442180749340  0.4063360508451  0.3855521662928 1.0
C      1  0.6589829359532  0.4118248370761  0.3856496364979 1.0
C      1  0.4967372659843  0.6816906276546  0.6143896564629 1.0
C      1  0.3442180435278  0.4063360409711  0.6144477660249 1.0
C      1  0.6589829126975  0.4118248408028  0.6143503995783 1.0
C      1  0.4967372694792  0.3183094074328  0.3856103073186 1.0
C      1  0.3442180459417  0.5936639529074  0.3855522463433 1.0
C      1  0.6589829166652  0.5881751578406  0.3856496465116 1.0
C      1  0.4967372508462  0.3183093606576  0.6143895945047 1.0
C      1  0.3442180725710  0.5936639546257  0.6144478456012 1.0
C      1  0.6589829312418  0.5881751649450  0.6143504104878 1.0
C      1  0.4164710290462  0.5496075309065  0.3079669167792 1.0
C      1  0.4989362696148  0.4027711682397  0.3079974398896 1.0
C      1  0.5849506892527  0.5476361893974  0.3080557599371 1.0
C      1  0.4164710284930  0.5496075140523  0.6920332030285 1.0
C      1  0.4989362459823  0.4027711502259  0.6920024944534 1.0
C      1  0.5849506864024  0.5476361826048  0.6919442833407 1.0
C      1  0.4164710384594  0.4503924878632  0.3079668537254 1.0
C      1  0.4989362552025  0.5972288424663  0.3079975106662 1.0
C      1  0.5849507002891  0.4523638220560  0.3080557182518 1.0
C      1  0.4164710198454  0.4503924668656  0.6920331400920 1.0
C      1  0.4989362610505  0.5972288396857  0.6920025650559 1.0
C      1  0.5849506757535  0.4523638060709  0.6919442415141 1.0
C      1  0.4227324044459  0.7242104515955  0.5572931247075 1.0
C      1  0.3442041800427  0.3210415921681  0.5573450925581 1.0
C      1  0.7328462059958  0.4546566215985  0.5572875102376 1.0
C      1  0.4227324089314  0.7242104493275  0.4427069116699 1.0
C      1  0.3442041777429  0.3210416030434  0.4426548350010 1.0
C      1  0.7328461914088  0.4546566136922  0.4427125725332 1.0
C      1  0.4227324051834  0.2757895353866  0.5572930751791 1.0
C      1  0.3442041778994  0.6789584049142  0.5573451687309 1.0
C      1  0.7328461888962  0.5453433873854  0.5572874611453 1.0
C      1  0.4227324087176  0.2757895634633  0.4427068622930 1.0
C      1  0.3442041795258  0.6789583990694  0.4426549115607 1.0
C      1  0.7328462088112  0.5453433783609  0.4427125226797 1.0
END
