TITL C-79550-8220-28 -2.929 3375.00 -515.03399279 0 0 60 (D6h) n - 1
REM
REM Run started: at 2020.11.28 01:28:31 in /rds/project/t2_vol4/rds-t2-cs072/BORA/CARBON/AIRSS/Generating-Clusters/Str-Search/Higher-Symm/Only-C60/Try2-TRACK-ENABLED
REM VASP from code version vasp.5.4.4.18Apr17-6-g9f103f2a35 (build Oct 11 2019 16:45:47) gamma-only
REM
REM
REM
REM
REM ./C.cell (5f7b7a0d59291d2373303da1f58b8d66)
REM AIRSS Version 0.9.1 bugfix July 2018 build 013d7b7c2542+ Fri, 06 Jul 2018 19:26:36 +0100
REM compiler GCC version 4.8.5 20150623 (Red Hat 4.8.5-39)
REM options -cpp -mtune=generic -march=x86-64 -g -O0
REM seed 236769498 -1021960753 -958610991 -1645638547 1692809572 -1917754571 -57614520 861851268 -96417724 1466003063 653011636 -302464516
REM
REM C.POTCAR (d86ddea03c3ceb6dc662c8ad6801f873)
REM 
CELL 1.54180   15.00000   15.00000   15.00000   90.00000   90.00000   90.00000
LATT -1
SFAC C  
C      1  0.7129749546965  0.6092081984237  0.5696949044122 1.0
C      1  0.4540068314116  0.6089726046145  0.2812097630752 1.0
C      1  0.3330280072424  0.6092060765995  0.6493245576073 1.0
C      1  0.7129749566543  0.3907918250285  0.5696950143981 1.0
C      1  0.4540068290743  0.3910273737513  0.2812097969780 1.0
C      1  0.3330280902947  0.3907941221362  0.6493245206100 1.0
C      1  0.2870250653400  0.6092081945946  0.5696947838384 1.0
C      1  0.5459933239562  0.6089725807702  0.2812097108289 1.0
C      1  0.6669717894181  0.6092059689343  0.6493244969991 1.0
C      1  0.2870250416115  0.3907918468337  0.5696948569046 1.0
C      1  0.5459933080008  0.3910273588583  0.2812098236563 1.0
C      1  0.6669718646794  0.3907939643033  0.6493246187922 1.0
C      1  0.5904552719379  0.3318453710699  0.6564788646837 1.0
C      1  0.5905167009720  0.3318160611157  0.3435254633394 1.0
C      1  0.3189841582850  0.3316964406476  0.4999638069550 1.0
C      1  0.5904552700928  0.6681546245197  0.6564787877367 1.0
C      1  0.5905167247870  0.6681838464875  0.3435253494906 1.0
C      1  0.3189841748512  0.6683035626007  0.4999637485268 1.0
C      1  0.4095446134013  0.3318454680370  0.6564788181862 1.0
C      1  0.4094833686288  0.3318160806991  0.3435253933650 1.0
C      1  0.6810158518848  0.3316964321605  0.4999639435310 1.0
C      1  0.4095445977913  0.6681547127981  0.6564788287203 1.0
C      1  0.4094834018765  0.6681838451898  0.3435253809266 1.0
C      1  0.6810158849192  0.6683035647847  0.4999637978353 1.0
C      1  0.6674302378126  0.3902706898935  0.3504090833341 1.0
C      1  0.2865758769253  0.3902856634262  0.4300241103454 1.0
C      1  0.5460080872078  0.3905672431717  0.7193139592881 1.0
C      1  0.6674302008668  0.6097292012700  0.3504089475365 1.0
C      1  0.2865758561935  0.6097143143415  0.4300240675664 1.0
C      1  0.5460080906544  0.6094328668440  0.7193139964722 1.0
C      1  0.3325698602636  0.3902707535260  0.3504089361704 1.0
C      1  0.7134241569317  0.3902856531269  0.4300242580471 1.0
C      1  0.4539917324284  0.3905672615660  0.7193140114616 1.0
C      1  0.3325698894726  0.6097291867989  0.3504089388401 1.0
C      1  0.7134242011274  0.6097143046527  0.4300241381597 1.0
C      1  0.4539916972591  0.6094329536288  0.7193140922960 1.0
C      1  0.5964650508706  0.2877720010386  0.5000055009140 1.0
C      1  0.4517850007065  0.2878303207335  0.4166066813774 1.0
C      1  0.4518016160212  0.2878669419026  0.5833735095653 1.0
C      1  0.5964650705979  0.7122279548107  0.5000054403427 1.0
C      1  0.4517850336164  0.7121695751792  0.4166066641014 1.0
C      1  0.4518016284115  0.7121330852694  0.5833734605112 1.0
C      1  0.4035349590164  0.2877720176416  0.5000054215421 1.0
C      1  0.5482150257285  0.2878303211703  0.4166067440929 1.0
C      1  0.5481983297164  0.2878668645921  0.5833735612812 1.0
C      1  0.4035349665621  0.7122279505965  0.5000053917410 1.0
C      1  0.5482150365608  0.7121695424641  0.4166066681878 1.0
C      1  0.5481983402795  0.7121331137390  0.5833734765156 1.0
C      1  0.3776300762761  0.4547057191747  0.7119831685031 1.0
C      1  0.7450673455006  0.4546907950537  0.4997479235901 1.0
C      1  0.3772191292499  0.4547264675129  0.2883390340547 1.0
C      1  0.3776300777673  0.5452944749839  0.7119831517146 1.0
C      1  0.7450673792328  0.5453092315575  0.4997478494127 1.0
C      1  0.3772191453481  0.5452735087450  0.2883389890629 1.0
C      1  0.6223697513598  0.4547056478097  0.7119831213111 1.0
C      1  0.2549326471160  0.4546907761934  0.4997477741431 1.0
C      1  0.6227810333147  0.4547263972738  0.2883391006675 1.0
C      1  0.6223697082792  0.5452943636563  0.7119830798069 1.0
C      1  0.2549326460804  0.5453092529400  0.4997477277396 1.0
C      1  0.6227810334364  0.5452734587569  0.2883389889070 1.0
END
