TITL C-80883-1786-42 -0.71 3375.00 -102.16942211 0 0 14 (C2v) n - 1
REM
REM Run started: at 2020.12.04 12:35:16 in /rds/project/t2_vol4/rds-t2-cs072/BORA/CARBON/AIRSS/Generating-Clusters/Str-Search/Higher-Symm/C10-100
REM VASP from code version vasp.5.4.4.18Apr17-6-g9f103f2a35 (build Oct 11 2019 16:45:47) gamma-only
REM
REM
REM
REM
REM ./C.cell (f39ce9773e2efe3fa5bbdf770a4156b8)
REM AIRSS Version 0.9.1 bugfix July 2018 build 013d7b7c2542+ Fri, 06 Jul 2018 19:26:36 +0100
REM compiler GCC version 4.8.5 20150623 (Red Hat 4.8.5-39)
REM options -cpp -mtune=generic -march=x86-64 -g -O0
REM seed -1235661802 -1462051218 845375984 1689318887 -1550341611 669109727 -1956963602 -161648464 581137064 -691834050 -1446849756 1081939347
REM
REM C.POTCAR (d86ddea03c3ceb6dc662c8ad6801f873)
REM 
CELL 1.54180   15.00000   15.00000   15.00000   90.00000   90.00000   90.00000
LATT -1
SFAC C  
C      1  0.4574108417325  0.5446504944191  0.2946697949554 1.0
C      1  0.5425906399903  0.5446483192611  0.7053328458052 1.0
C      1  0.5428372043366  0.5445913358923  0.2944369929742 1.0
C      1  0.4571642772239  0.5445930575883  0.7055602838475 1.0
C      1  0.3885794241804  0.4883009628525  0.5506843329355 1.0
C      1  0.6114200446356  0.4883024729363  0.4493155635088 1.0
C      1  0.6114493126345  0.4882442184835  0.5506334698237 1.0
C      1  0.3885501753639  0.4882429651858  0.4493668201740 1.0
C      1  0.4522615799809  0.4984985211021  0.3872031314874 1.0
C      1  0.5477377254298  0.4984987379185  0.6127971458146 1.0
C      1  0.5476762883937  0.4985518967836  0.3871537190186 1.0
C      1  0.4523230546987  0.4985514427277  0.6128459908765 1.0
C      1  0.3142282054822  0.4660875311164  0.5000672165337 1.0
C      1  0.6857712259171  0.4660904437328  0.4999326922449 1.0
END
