TITL C-80184-1677-2 -7.406 3375.00 -1306.90978564 0 0 161 (C1) n - 1
REM
REM Run started: at 2020.11.21 09:20:47 in /rds/project/t2_vol4/rds-t2-cs072/BORA/CARBON/AIRSS/Generating-Clusters/Str-Search/Higher-Symm
REM VASP from code version vasp.5.4.4.18Apr17-6-g9f103f2a35 (build Oct 11 2019 16:45:47) gamma-only
REM
REM
REM
REM
REM ./C.cell (e5ae0387ce4d49c7c0135a1433873289)
REM AIRSS Version 0.9.1 bugfix July 2018 build 013d7b7c2542+ Fri, 06 Jul 2018 19:26:36 +0100
REM compiler GCC version 4.8.5 20150623 (Red Hat 4.8.5-39)
REM options -cpp -mtune=generic -march=x86-64 -g -O0
REM seed 1031903465 1904383666 -2112311734 1036050217 -1882221314 191402922 -2098778011 -241440405 1973116219 -738956779 87964976 -392037560
REM
REM C.POTCAR (d86ddea03c3ceb6dc662c8ad6801f873)
REM 
CELL 1.54180   15.00000   15.00000   15.00000   90.00000   90.00000   90.00000
LATT -1
SFAC C  
C      1  0.5511069232560  0.4028897740519  0.6438379579312 1.0
C      1  0.5816386343550  0.4036548623061  0.3541691380444 1.0
C      1  0.3112268570828  0.4434926333371  0.4697286699407 1.0
C      1  0.5717347371952  0.5833992159057  0.6469740970892 1.0
C      1  0.6006234614952  0.5834881874340  0.3553094004612 1.0
C      1  0.3246090636631  0.6182638659677  0.4679768701755 1.0
C      1  0.9296142201190  0.4672468596182  0.4100747241382 1.0
C      1  0.1692364840509  0.4692007748230  0.1772688911900 1.0
C      1  0.3574593713696  0.5080392349138  0.9011168368595 1.0
C      1  0.0093495591909  0.4857772331245  0.4098705693836 1.0
C      1  0.0944118022238  0.5085669944935  0.1573201909896 1.0
C      1  0.3309690351906  0.5108840542960  0.9832825094130 1.0
C      1  0.5284651851521  0.3312352740968  0.3965725625950 1.0
C      1  0.3812302890736  0.3777312878887  0.4792062693905 1.0
C      1  0.5086006930229  0.3228959240077  0.5831236111557 1.0
C      1  0.5660726475934  0.6635173605549  0.4037948403326 1.0
C      1  0.4105174804617  0.6518653721879  0.4815114032582 1.0
C      1  0.5477135259568  0.6723971673150  0.5887120258534 1.0
C      1  0.3359914085921  0.1987672467807  0.5746144819748 1.0
C      1  0.6273000362576  0.1750875854609  0.5700896199659 1.0
C      1  0.4759119203777  0.1859273945248  0.3658455828572 1.0
C      1  0.4056677759308  0.8348775233937  0.5930431053627 1.0
C      1  0.6940557405937  0.7928441939157  0.5790438949163 1.0
C      1  0.5351517298990  0.8177163914643  0.3783349163806 1.0
C      1  0.7798930833543  0.7687843243535  0.5480663547292 1.0
C      1  0.4677420872458  0.8132091246804  0.3145072303149 1.0
C      1  0.3975944851317  0.8114794659230  0.6812109299919 1.0
C      1  0.7174762559025  0.1802323325371  0.5417175267023 1.0
C      1  0.4156022925232  0.2006122390531  0.2986603655876 1.0
C      1  0.3292891379947  0.2196499548819  0.6632706805617 1.0
C      1  0.6430410547852  0.4301625971187  0.6913746681966 1.0
C      1  0.5740782330036  0.4442881538547  0.2641442187616 1.0
C      1  0.2398720643646  0.4820867237081  0.5302162181265 1.0
C      1  0.6550856100837  0.5358708729251  0.6927718725918 1.0
C      1  0.5829163581388  0.5474456029690  0.2623112372352 1.0
C      1  0.2552734115980  0.5859039500540  0.5362004363301 1.0
C      1  0.4865613099975  0.8297720980037  0.4647228612524 1.0
C      1  0.4965600223941  0.8262312669555  0.5601893091640 1.0
C      1  0.6572505055999  0.7587847287695  0.4992638386939 1.0
C      1  0.4205852507889  0.1844929093875  0.4496308142129 1.0
C      1  0.4272151455881  0.1856159354071  0.5449256088772 1.0
C      1  0.5987925018625  0.2176472875515  0.4912211771195 1.0
C      1  0.3264230840341  0.4682389314502  0.6671028534267 1.0
C      1  0.7242211338683  0.4229999471509  0.5468486537845 1.0
C      1  0.4053481818570  0.4541230278427  0.2506138695935 1.0
C      1  0.3408267826261  0.5683966683171  0.6720255091498 1.0
C      1  0.7349279789058  0.5290316696515  0.5482563199338 1.0
C      1  0.4171464183979  0.5640584696404  0.2516734814430 1.0
C      1  0.1877864148193  0.7292838991465  0.5045335179926 1.0
C      1  0.6686075321366  0.6609024562464  0.7938775655654 1.0
C      1  0.6871097308756  0.6669147039693  0.2295241224877 1.0
C      1  0.1585065604360  0.3527659022087  0.4774437795442 1.0
C      1  0.6268883184357  0.3024291493309  0.7888331831506 1.0
C      1  0.6596960725818  0.3110078666100  0.2283175344045 1.0
C      1  0.6977668589701  0.7090502141344  0.7162490494623 1.0
C      1  0.6148492307228  0.7184477236269  0.2577599794399 1.0
C      1  0.2593928038217  0.7682119386532  0.5542254095549 1.0
C      1  0.6458752463402  0.2513689978613  0.7100266623706 1.0
C      1  0.5793332245682  0.2692469133831  0.2492541591363 1.0
C      1  0.2139296891344  0.2992269244153  0.5377254932060 1.0
C      1  0.5911459610402  0.6243338568771  0.8448544678098 1.0
C      1  0.7610837733876  0.6116337964364  0.2670969688863 1.0
C      1  0.1523603403433  0.6910566338887  0.4171574330521 1.0
C      1  0.5594846573762  0.3548143219649  0.8404891001516 1.0
C      1  0.7404460922889  0.3547055711331  0.2681458427431 1.0
C      1  0.1482171129314  0.3599762155275  0.3890355414982 1.0
C      1  0.3778023334592  0.7980103963361  0.3510353300535 1.0
C      1  0.4710962896840  0.7560498403144  0.7108579507388 1.0
C      1  0.7797755172409  0.7297739674419  0.4511907770769 1.0
C      1  0.3267266256269  0.2319773083539  0.3288525050345 1.0
C      1  0.4130055122564  0.2540083087245  0.7000002413923 1.0
C      1  0.7282322610017  0.2219416247846  0.4464574784820 1.0
C      1  0.5622354598846  0.2385078399574  0.3446060065558 1.0
C      1  0.2753295412251  0.2320630674692  0.5062570606983 1.0
C      1  0.5870219392423  0.2027988725466  0.6515739370184 1.0
C      1  0.6114216384609  0.7520902639146  0.3536699532128 1.0
C      1  0.3361359724141  0.8214795880353  0.5264082900129 1.0
C      1  0.6500430531642  0.7708653539673  0.6602680913741 1.0
C      1  0.3254428754508  0.5802046282877  0.3750531560454 1.0
C      1  0.4838037123903  0.5532792189635  0.6886503012676 1.0
C      1  0.6462046278617  0.5344200711717  0.4145978500868 1.0
C      1  0.3261689156139  0.4823473170696  0.3884190591413 1.0
C      1  0.4718053230331  0.4512057114566  0.6853170139282 1.0
C      1  0.6366726576252  0.4395140507292  0.4141787492480 1.0
C      1  0.8198926535964  0.5114426333059  0.6944797268540 1.0
C      1  0.5102673075305  0.5398297610462  0.1091444409094 1.0
C      1  0.1768744924990  0.5858728971048  0.6846903591829 1.0
C      1  0.8094464038179  0.4190152908745  0.6939939363223 1.0
C      1  0.5035775599941  0.4452335875826  0.1191478102204 1.0
C      1  0.1612667733736  0.4902735594061  0.6790902786707 1.0
C      1  0.8436297262059  0.5949809374591  0.7222956307797 1.0
C      1  0.5229886254355  0.6139619652268  0.0639324711249 1.0
C      1  0.1412514437403  0.6604603633393  0.7179133422759 1.0
C      1  0.8130389760690  0.3319480521362  0.7207431139983 1.0
C      1  0.5099707836821  0.3564578351768  0.1013807861637 1.0
C      1  0.0982804369554  0.4330313444436  0.7035320318029 1.0
C      1  0.3334182688667  0.7445821905310  0.7073329954614 1.0
C      1  0.8119818804802  0.6880318679371  0.5812935222454 1.0
C      1  0.4561554347029  0.7466437587692  0.2463767008466 1.0
C      1  0.2820734434141  0.2975484932556  0.6919013522873 1.0
C      1  0.7652800219524  0.2512682224392  0.5775418139350 1.0
C      1  0.4191048923701  0.2632694420429  0.2264057833215 1.0
C      1  0.2736000627909  0.7182648961172  0.6419954540786 1.0
C      1  0.7761464923419  0.6537269062670  0.6674311158513 1.0
C      1  0.5258786256090  0.6921769923994  0.2207925882808 1.0
C      1  0.2319067492683  0.3401022745507  0.6267103055346 1.0
C      1  0.7355164397803  0.2901472649919  0.6639033331366 1.0
C      1  0.5000625539001  0.3088436207662  0.1983979170389 1.0
C      1  0.3893182763032  0.4268435829404  0.7496075675087 1.0
C      1  0.7968530770300  0.3896199824009  0.4859544728354 1.0
C      1  0.3186976548413  0.3938235670129  0.2264997035508 1.0
C      1  0.4082213963062  0.5892094539570  0.7548050802466 1.0
C      1  0.8115753890350  0.5492909766280  0.4876394966288 1.0
C      1  0.3420768866631  0.6315689993790  0.2859490882257 1.0
C      1  0.3654003701684  0.7267786579431  0.2829676401662 1.0
C      1  0.4094359303067  0.6915635841628  0.7500720468414 1.0
C      1  0.8245494803492  0.6461794984369  0.4929642472835 1.0
C      1  0.3338059496245  0.2983300702117  0.2491451316122 1.0
C      1  0.3675335339057  0.3275841789276  0.7427057349940 1.0
C      1  0.7887787314032  0.2920019060372  0.4900092870419 1.0
C      1  0.6655223415178  0.5765310641746  0.2074073591305 1.0
C      1  0.1719640386432  0.6367788721599  0.5180426356225 1.0
C      1  0.6725471256676  0.5664846110118  0.7858675300997 1.0
C      1  0.6520681155932  0.4035181242244  0.2080448681216 1.0
C      1  0.1535847770890  0.4535475920777  0.4826698467440 1.0
C      1  0.6525058860791  0.3936198255498  0.7835888735710 1.0
C      1  0.1103516196467  0.6109891622990  0.4521072378668 1.0
C      1  0.6213011568566  0.5317797573606  0.8587895033018 1.0
C      1  0.7497403541118  0.5312035254634  0.2175059242510 1.0
C      1  0.0931223551911  0.5144826191184  0.4414953642571 1.0
C      1  0.6101971226058  0.4372866881063  0.8574889273278 1.0
C      1  0.7418989099315  0.4360727931011  0.2186469771436 1.0
C      1  0.6423633484406  0.2147934794729  0.4054658274030 1.0
C      1  0.3235060814079  0.2136660599345  0.4220374746040 1.0
C      1  0.4885634512031  0.2321590152812  0.6291317983312 1.0
C      1  0.6970799135030  0.7578790035884  0.4114931600236 1.0
C      1  0.3850124841628  0.8219951505727  0.4440696361449 1.0
C      1  0.5476861119541  0.7636437603842  0.6386753670661 1.0
C      1  0.4227303130834  0.5915789068051  0.3461858724075 1.0
C      1  0.4218117335972  0.5893209488463  0.6226626616859 1.0
C      1  0.6498703180097  0.5744568577249  0.5052446050773 1.0
C      1  0.3975113720767  0.4333192611586  0.3447979773336 1.0
C      1  0.4026976251518  0.4328785001905  0.6194115870446 1.0
C      1  0.6306760709832  0.3976539002278  0.5031922504579 1.0
C      1  0.4912162613846  0.4163209018089  0.2133569674353 1.0
C      1  0.2358796107491  0.4418997394423  0.6283441279203 1.0
C      1  0.7235246275862  0.3916531136104  0.6433684371307 1.0
C      1  0.5058049267057  0.5921055108135  0.2069012212362 1.0
C      1  0.2612507239740  0.6169214672745  0.6371767385158 1.0
C      1  0.7417939475233  0.5576172493341  0.6451348267916 1.0
C      1  0.4696917646454  0.6438815013675  0.4072241106598 1.0
C      1  0.4528347101173  0.6499665785087  0.5659372314426 1.0
C      1  0.6066489651140  0.6721293601613  0.5027683462045 1.0
C      1  0.4346395959897  0.3690541217279  0.3992955692955 1.0
C      1  0.4217171627142  0.3668270739768  0.5612316462897 1.0
C      1  0.5659202680749  0.3123529806635  0.4967531655299 1.0
C      1  0.8449895182506  0.4662452531689  0.4516376235824 1.0
C      1  0.2423256616181  0.4309546098071  0.2017025610750 1.0
C      1  0.3854976666384  0.5085163134897  0.8167829419891 1.0
C      1  0.5706128021428  0.4497103161481  0.5600034513933 1.0
C      1  0.5796350879567  0.5357499056692  0.5612829939702 1.0
END
