TITL C-80883-1786-24 -0.977 3375.00 -151.35789660 0 0 20 (C2v) n - 1
REM
REM Run started: at 2020.12.04 07:01:25 in /rds/project/t2_vol4/rds-t2-cs072/BORA/CARBON/AIRSS/Generating-Clusters/Str-Search/Higher-Symm/C10-100
REM VASP from code version vasp.5.4.4.18Apr17-6-g9f103f2a35 (build Oct 11 2019 16:45:47) gamma-only
REM
REM
REM
REM
REM ./C.cell (f39ce9773e2efe3fa5bbdf770a4156b8)
REM AIRSS Version 0.9.1 bugfix July 2018 build 013d7b7c2542+ Fri, 06 Jul 2018 19:26:36 +0100
REM compiler GCC version 4.8.5 20150623 (Red Hat 4.8.5-39)
REM options -cpp -mtune=generic -march=x86-64 -g -O0
REM seed 79075684 -1348828745 1549603609 1948718887 -2048705067 -1462765853 1010142290 470639257 193525084 -765033859 -545815558 -1531172073
REM
REM C.POTCAR (d86ddea03c3ceb6dc662c8ad6801f873)
REM 
CELL 1.54180   15.00000   15.00000   15.00000   90.00000   90.00000   90.00000
LATT -1
SFAC C  
C      1  0.4317426403181  0.4999048281266  0.3601404339061 1.0
C      1  0.4994530068915  0.5711179231441  0.3558440635847 1.0
C      1  0.5670584596546  0.4998761929023  0.3596634056867 1.0
C      1  0.4994231236864  0.4286828190822  0.3558793028425 1.0
C      1  0.4476195046206  0.5000747898920  0.6921402399599 1.0
C      1  0.5003930861072  0.4236141435140  0.7207355683647 1.0
C      1  0.5535181125097  0.4999168651612  0.6921136750382 1.0
C      1  0.5007766260500  0.5763603318293  0.7207664469059 1.0
C      1  0.4998451964630  0.6465732243694  0.4104883363353 1.0
C      1  0.6308270056320  0.4998856012751  0.4288993299054 1.0
C      1  0.4998171935269  0.3531867646450  0.4105323152524 1.0
C      1  0.3687269651015  0.5000667134576  0.4300063462317 1.0
C      1  0.4999000707461  0.3726451666521  0.4940815001931 1.0
C      1  0.6355865932210  0.4999961488289  0.5119484577853 1.0
C      1  0.4999726355694  0.6274761887562  0.4940889873968 1.0
C      1  0.3640482320282  0.5001251553817  0.5130449212088 1.0
C      1  0.4286473508853  0.5001762420716  0.5854914242683 1.0
C      1  0.5002329041179  0.4287052675244  0.5624703774832 1.0
C      1  0.5720700452076  0.5000547257288  0.5851860803475 1.0
C      1  0.5003412476630  0.5715609076577  0.5626083873035 1.0
END
