TITL C-80296-4268-21 -2.647 3375.00 -478.56686950 0 0 60 (C1) n - 1
REM
REM Run started: at 2020.11.28 00:54:03 in /rds/project/t2_vol4/rds-t2-cs072/BORA/CARBON/AIRSS/Generating-Clusters/Str-Search/Higher-Symm/Only-C60/Try2-TRACK-ENABLED
REM VASP from code version vasp.5.4.4.18Apr17-6-g9f103f2a35 (build Oct 11 2019 16:45:47) gamma-only
REM
REM
REM
REM
REM ./C.cell (5f7b7a0d59291d2373303da1f58b8d66)
REM AIRSS Version 0.9.1 bugfix July 2018 build 013d7b7c2542+ Fri, 06 Jul 2018 19:26:36 +0100
REM compiler GCC version 4.8.5 20150623 (Red Hat 4.8.5-39)
REM options -cpp -mtune=generic -march=x86-64 -g -O0
REM seed -938692929 -1739477706 1423653161 785776631 -1403588489 -1794115376 -1943588470 -920157032 -650269743 -192966487 954005197 -1436951682
REM
REM C.POTCAR (d86ddea03c3ceb6dc662c8ad6801f873)
REM 
CELL 1.54180   15.00000   15.00000   15.00000   90.00000   90.00000   90.00000
LATT -1
SFAC C  
C      1  0.5860074196968  0.6289647736158  0.5228427125104 1.0
C      1  0.6385423221673  0.3809156764230  0.5931808701806 1.0
C      1  0.4468463189080  0.3434145242897  0.6123866104446 1.0
C      1  0.3483326908237  0.4877740427199  0.5771056827419 1.0
C      1  0.4143399881315  0.6524088708906  0.5313317898922 1.0
C      1  0.4878462690924  0.7576503510264  0.4877958257597 1.0
C      1  0.7190238846036  0.5132133069521  0.5563264744087 1.0
C      1  0.5934006190041  0.2687322600224  0.5219488445251 1.0
C      1  0.3178503963715  0.3304339859151  0.5192720487022 1.0
C      1  0.2721882040067  0.5973071294484  0.5273096100386 1.0
C      1  0.3997240100788  0.3595774061329  0.3780159749095 1.0
C      1  0.3082221312341  0.5394760725915  0.3744533327412 1.0
C      1  0.4649082501407  0.6532689021203  0.3654063605283 1.0
C      1  0.6879667640143  0.5245072988018  0.3910503139160 1.0
C      1  0.6275746203212  0.3397531779942  0.3824226418539 1.0
C      1  0.6759709937570  0.3133090619503  0.5292463007555 1.0
C      1  0.4000025422842  0.2961952994811  0.5361542297994 1.0
C      1  0.2605729417591  0.5059764121678  0.5232892634323 1.0
C      1  0.3875799064419  0.7387227320278  0.4871738784799 1.0
C      1  0.6933582345592  0.6049597640001  0.5295146363241 1.0
C      1  0.5569087160277  0.2902512037991  0.4325004309928 1.0
C      1  0.3332648595926  0.3919162382805  0.4440603293005 1.0
C      1  0.2971528898644  0.6272568827095  0.4319091334478 1.0
C      1  0.5277107890468  0.7143156389107  0.4081747172908 1.0
C      1  0.7067655348064  0.4578141393177  0.4648721353496 1.0
C      1  0.5397422853243  0.4747045228618  0.7565322410624 1.0
C      1  0.4610764455629  0.4994209031327  0.6910274512605 1.0
C      1  0.4160071256885  0.5958580295631  0.6748697415679 1.0
C      1  0.4968797277893  0.6382704076223  0.6535730167734 1.0
C      1  0.6089200085216  0.4998525985024  0.6931397559600 1.0
C      1  0.3941279839962  0.6499320231095  0.4334590690647 1.0
C      1  0.6037121084330  0.6630454176802  0.4338924249523 1.0
C      1  0.6308655537154  0.4669074655594  0.5362261180822 1.0
C      1  0.5155250326356  0.3756593777014  0.4860969410830 1.0
C      1  0.3966915643036  0.4609940964085  0.4970735373754 1.0
C      1  0.3208001314685  0.7280570025748  0.4151092261727 1.0
C      1  0.6837289276375  0.6099656478809  0.4330221305913 1.0
C      1  0.6969561123262  0.3592711075459  0.4460278817896 1.0
C      1  0.4579597622451  0.3072956709541  0.4395466541364 1.0
C      1  0.2764797029698  0.4713146672964  0.4317425646589 1.0
C      1  0.3883892687025  0.5170349063339  0.3217585760468 1.0
C      1  0.4649222954242  0.5773590491141  0.3118196713201 1.0
C      1  0.6307427060591  0.4956366977468  0.3230361880694 1.0
C      1  0.5996153008017  0.4055614418884  0.3192765524530 1.0
C      1  0.4264445813187  0.4241885777574  0.3152831809919 1.0
C      1  0.5439558594180  0.3379750060399  0.5821156238928 1.0
C      1  0.4103155862583  0.4274020814185  0.6411773964799 1.0
C      1  0.3564777848748  0.5940343826668  0.5916727351996 1.0
C      1  0.5079988476053  0.6824447199198  0.5627023522568 1.0
C      1  0.6783534202485  0.4608713501902  0.6392020382127 1.0
C      1  0.5520071445152  0.5270933696888  0.5386073993192 1.0
C      1  0.5393333138156  0.5466397945020  0.6404062750663 1.0
C      1  0.5442949855314  0.5285942735072  0.2696032337382 1.0
C      1  0.5587292848369  0.5446240054155  0.1757172577891 1.0
C      1  0.5160090771433  0.4310006293105  0.2828784167852 1.0
C      1  0.5592510395446  0.5282602596804  0.0942595436116 1.0
C      1  0.5420420081576  0.4668959415846  0.8451762222614 1.0
C      1  0.5475096213707  0.4835621073761  0.9285942971364 1.0
C      1  0.4876173167161  0.4692281108530  0.4860392308715 1.0
C      1  0.5549354883056  0.5073409050243  0.0097258056416 1.0
END
