TITL C-80883-1786-14 -0.736 3375.00 -118.72839595 0 0 18 (Td) n - 1
REM
REM Run started: at 2020.12.04 03:47:24 in /rds/project/t2_vol4/rds-t2-cs072/BORA/CARBON/AIRSS/Generating-Clusters/Str-Search/Higher-Symm/C10-100
REM VASP from code version vasp.5.4.4.18Apr17-6-g9f103f2a35 (build Oct 11 2019 16:45:47) gamma-only
REM
REM
REM
REM
REM ./C.cell (f39ce9773e2efe3fa5bbdf770a4156b8)
REM AIRSS Version 0.9.1 bugfix July 2018 build 013d7b7c2542+ Fri, 06 Jul 2018 19:26:36 +0100
REM compiler GCC version 4.8.5 20150623 (Red Hat 4.8.5-39)
REM options -cpp -mtune=generic -march=x86-64 -g -O0
REM seed -1981732110 -1636274107 2084937117 -781948784 318281511 388110102 1164341973 -550381053 -1304426421 -8871219 -1799257662 -1218375347
REM
REM C.POTCAR (d86ddea03c3ceb6dc662c8ad6801f873)
REM 
CELL 1.54180   15.00000   15.00000   15.00000   90.00000   90.00000   90.00000
LATT -1
SFAC C  
C      1  0.5136298617375  0.3981949644916  0.4006641078186 1.0
C      1  0.3984216666316  0.5933528134274  0.4801465210704 1.0
C      1  0.5934358173487  0.4779234667577  0.4006052781837 1.0
C      1  0.4781800797660  0.3982692107108  0.5953440047889 1.0
C      1  0.5935763543694  0.3981854473290  0.4801498432409 1.0
C      1  0.3985306313172  0.5133583831390  0.4006511856865 1.0
C      1  0.5935655814490  0.5134658634350  0.5953600201058 1.0
C      1  0.3984697873419  0.4779187510590  0.5953337864379 1.0
C      1  0.5136807575593  0.5933086133195  0.5953995737445 1.0
C      1  0.4781241616344  0.5933004086239  0.4006138358073 1.0
C      1  0.3984337928143  0.3981998198371  0.5156487238876 1.0
C      1  0.5936308929412  0.5934461161330  0.5156367700818 1.0
C      1  0.4960934369668  0.6142156731069  0.4980948597114 1.0
C      1  0.4960845395347  0.4958478727974  0.3793548175038 1.0
C      1  0.4960085311102  0.3771136129272  0.4980042912497 1.0
C      1  0.3773419770460  0.4957885218000  0.4979897220059 1.0
C      1  0.4961476166188  0.4959154668917  0.6164486365892 1.0
C      1  0.6144451138130  0.4958760942137  0.4980795220863 1.0
END
