TITL C-80184-1677-1 -0.338 3375.00 -42.74423983 0 0 6 (D6h) n - 1
REM
REM Run started: at 2020.11.21 07:14:36 in /rds/project/t2_vol4/rds-t2-cs072/BORA/CARBON/AIRSS/Generating-Clusters/Str-Search/Higher-Symm
REM VASP from code version vasp.5.4.4.18Apr17-6-g9f103f2a35 (build Oct 11 2019 16:45:47) gamma-only
REM
REM
REM
REM
REM ./C.cell (e5ae0387ce4d49c7c0135a1433873289)
REM AIRSS Version 0.9.1 bugfix July 2018 build 013d7b7c2542+ Fri, 06 Jul 2018 19:26:36 +0100
REM compiler GCC version 4.8.5 20150623 (Red Hat 4.8.5-39)
REM options -cpp -mtune=generic -march=x86-64 -g -O0
REM seed -1729477535 -335468643 868543818 1080295377 1654881974 -1318942818 1446227059 804223950 1098887199 -1971824452 1700665087 275816275
REM
REM C.POTCAR (d86ddea03c3ceb6dc662c8ad6801f873)
REM 
CELL 1.54180   15.00000   15.00000   15.00000   90.00000   90.00000   90.00000
LATT -1
SFAC C  
C      1  0.4999997137459  0.5438276949133  0.4240682779576 1.0
C      1  0.4999996120522  0.4124473374781  0.4999999475841 1.0
C      1  0.5000001344825  0.4561719563847  0.5759323440041 1.0
C      1  0.4999999187089  0.5438277792880  0.5759317863055 1.0
C      1  0.5000001976524  0.5875533794799  0.5000000380833 1.0
C      1  0.5000004233581  0.4561718524561  0.4240676060654 1.0
END
