TITL C-80296-4268-4 -2.955 3375.00 -500.63556082 0 0 60 (C1) n - 1
REM
REM Run started: at 2020.11.27 19:57:59 in /rds/project/t2_vol4/rds-t2-cs072/BORA/CARBON/AIRSS/Generating-Clusters/Str-Search/Higher-Symm/Only-C60/Try2-TRACK-ENABLED
REM VASP from code version vasp.5.4.4.18Apr17-6-g9f103f2a35 (build Oct 11 2019 16:45:47) gamma-only
REM
REM
REM
REM
REM ./C.cell (5f7b7a0d59291d2373303da1f58b8d66)
REM AIRSS Version 0.9.1 bugfix July 2018 build 013d7b7c2542+ Fri, 06 Jul 2018 19:26:36 +0100
REM compiler GCC version 4.8.5 20150623 (Red Hat 4.8.5-39)
REM options -cpp -mtune=generic -march=x86-64 -g -O0
REM seed 1195848471 -236942019 886951508 1777337595 50184517 552094795 2050459901 -422067036 1683340478 852359380 -556378038 -1382963989
REM
REM C.POTCAR (d86ddea03c3ceb6dc662c8ad6801f873)
REM 
CELL 1.54180   15.00000   15.00000   15.00000   90.00000   90.00000   90.00000
LATT -1
SFAC C  
C      1  0.4144396360076  0.6522618194733  0.6557490600763 1.0
C      1  0.5159451861457  0.6703976803506  0.6548296829773 1.0
C      1  0.6032716911950  0.6385101306466  0.6558971360184 1.0
C      1  0.6668975233122  0.5583164913684  0.6589376704860 1.0
C      1  0.6760501059203  0.4668393619533  0.6638564188513 1.0
C      1  0.6269079857580  0.3784945517170  0.6690082993417 1.0
C      1  0.5369466663681  0.3573567978114  0.6607806681061 1.0
C      1  0.4718784185075  0.4297057359766  0.6501645723035 1.0
C      1  0.3743911774315  0.4159969509621  0.6484815767053 1.0
C      1  0.3225083185175  0.4917146708637  0.6559019417171 1.0
C      1  0.3450847538813  0.5906405806893  0.6573537277357 1.0
C      1  0.6572149775763  0.2938363231148  0.5300550025305 1.0
C      1  0.5699396644658  0.2576052546370  0.5358362082180 1.0
C      1  0.4276883494688  0.2388443372034  0.4823013125355 1.0
C      1  0.2895176043705  0.3684957009382  0.5143753052429 1.0
C      1  0.2485690660715  0.4561160157069  0.5136645571621 1.0
C      1  0.2839971144005  0.6504133248520  0.5104549588134 1.0
C      1  0.3535730365559  0.7164201709178  0.5093667160237 1.0
C      1  0.5464433520910  0.7530666803517  0.5073899662093 1.0
C      1  0.6353389228036  0.7180102806272  0.5068778391590 1.0
C      1  0.7505061316634  0.5595206668043  0.5105569779121 1.0
C      1  0.7563928857967  0.4639103165902  0.5146727739689 1.0
C      1  0.2563370182343  0.5052322584761  0.4327170433690 1.0
C      1  0.2748874130493  0.5984806368627  0.4317078826543 1.0
C      1  0.4035175101316  0.7242723468593  0.4289019569045 1.0
C      1  0.4963068838201  0.7420961363808  0.4278748459210 1.0
C      1  0.6623969111986  0.6731109623971  0.4279287751996 1.0
C      1  0.7167657410422  0.5957258112817  0.4298376658361 1.0
C      1  0.7230883786947  0.4171964150437  0.4398365790850 1.0
C      1  0.6763353985149  0.3344637481577  0.4463872606436 1.0
C      1  0.5188814595059  0.2489934328975  0.4557114027178 1.0
C      1  0.3763357921680  0.2726112075767  0.4125758732184 1.0
C      1  0.3121556173828  0.3390870179666  0.4271956056492 1.0
C      1  0.6094021393516  0.3616241483518  0.3807327945969 1.0
C      1  0.5247894336966  0.3158255961720  0.3821883998360 1.0
C      1  0.4295070157192  0.3314548313850  0.3560049283279 1.0
C      1  0.3529394559930  0.3996850731662  0.3588443969975 1.0
C      1  0.3230656724347  0.4875572812355  0.3622244850058 1.0
C      1  0.3449648434934  0.5878914342265  0.3628819074359 1.0
C      1  0.4121083890915  0.6524772094889  0.3616214225433 1.0
C      1  0.5141075048482  0.6714725403451  0.3605106919787 1.0
C      1  0.5995625124136  0.6345798895044  0.3621313163311 1.0
C      1  0.6575017400940  0.5474598046460  0.3669355350999 1.0
C      1  0.6600903733873  0.4532022026285  0.3726944432639 1.0
C      1  0.4048710267399  0.7247052288659  0.5887308284720 1.0
C      1  0.4974834505943  0.7414880204609  0.5876452588015 1.0
C      1  0.6642947262008  0.6779390187811  0.5876075333399 1.0
C      1  0.7215766518502  0.6033167659037  0.5895470264620 1.0
C      1  0.7363232314322  0.4234105976834  0.5982408535095 1.0
C      1  0.6903267804870  0.3401860374347  0.6057531295553 1.0
C      1  0.5088868151446  0.2815470751846  0.6072932117795 1.0
C      1  0.4179262045279  0.2754188441485  0.5716194394554 1.0
C      1  0.3501763355825  0.3421215667087  0.5870045263956 1.0
C      1  0.2513099259292  0.5088676956451  0.5919115817253 1.0
C      1  0.2720117065586  0.6021866569939  0.5911101338037 1.0
C      1  0.4984077650334  0.4909282501397  0.2340506185656 1.0
C      1  0.4916533509685  0.4810416371513  0.5777793066538 1.0
C      1  0.4967889552609  0.4955681380436  0.3197033697997 1.0
C      1  0.4960289566168  0.4986700164348  0.4080377165647 1.0
C      1  0.4960829444993  0.5005832218146  0.4943883804067 1.0
END
