TITL C-80184-1677-6 -13.407 3375.00 -2588.12562959 0 0 309 (C1) n - 1
REM
REM Run started: at 2020.11.21 18:15:08 in /rds/project/t2_vol4/rds-t2-cs072/BORA/CARBON/AIRSS/Generating-Clusters/Str-Search/Higher-Symm
REM VASP from code version vasp.5.4.4.18Apr17-6-g9f103f2a35 (build Oct 11 2019 16:45:47) gamma-only
REM
REM
REM
REM
REM ./C.cell (e5ae0387ce4d49c7c0135a1433873289)
REM AIRSS Version 0.9.1 bugfix July 2018 build 013d7b7c2542+ Fri, 06 Jul 2018 19:26:36 +0100
REM compiler GCC version 4.8.5 20150623 (Red Hat 4.8.5-39)
REM options -cpp -mtune=generic -march=x86-64 -g -O0
REM seed 1503425756 -1064795117 -1106634799 1996121746 829449927 1716773782 1814304069 1413342434 -1234914588 1660003032 -1217576243 -1725255560
REM
REM C.POTCAR (d86ddea03c3ceb6dc662c8ad6801f873)
REM 
CELL 1.54180   15.00000   15.00000   15.00000   90.00000   90.00000   90.00000
LATT -1
SFAC C  
C      1  0.6852538005624  0.1915525907211  0.3171203463042 1.0
C      1  0.6063733019166  0.1843941949507  0.7319641038996 1.0
C      1  0.2483892040351  0.2325771894237  0.4501087080009 1.0
C      1  0.6720851587074  0.8092228566116  0.3137946316242 1.0
C      1  0.5919489217350  0.8113712230367  0.7332005927473 1.0
C      1  0.2350712011349  0.7949828350107  0.4501280576788 1.0
C      1  0.6881983381071  0.1915867132722  0.6836629869633 1.0
C      1  0.6031790772350  0.1865061950172  0.2691785023827 1.0
C      1  0.2482775494368  0.2335044914366  0.5519017936863 1.0
C      1  0.6745663370900  0.8060389066201  0.6854413214870 1.0
C      1  0.5897589667452  0.8138080768320  0.2656709044169 1.0
C      1  0.2347649363498  0.7939956351211  0.5508774665534 1.0
C      1  0.7384014384370  0.0384294764255  0.8191578268042 1.0
C      1  0.1139469079325  0.0259151970815  0.5487292563502 1.0
C      1  0.6743959480960  0.1082711994338  0.1490555844970 1.0
C      1  0.7312574517119  0.9487580292103  0.8211658438289 1.0
C      1  0.1868986907871  0.9556664104513  0.5466690257197 1.0
C      1  0.6615966823625  0.8853718275477  0.1428939897524 1.0
C      1  0.7350286391594  0.0387681475021  0.1800495165306 1.0
C      1  0.1124310300186  0.0261831999747  0.4529980417970 1.0
C      1  0.6783293636348  0.1076293822425  0.8516640265647 1.0
C      1  0.7291842677727  0.9493048116399  0.1766924400411 1.0
C      1  0.1866781717840  0.9564800648226  0.4536025439278 1.0
C      1  0.6628073340903  0.8851606819876  0.8547386958746 1.0
C      1  0.5893797784840  0.1813379383397  0.5512752172063 1.0
C      1  0.4191186760312  0.1934002025453  0.5549888392800 1.0
C      1  0.5044887511936  0.1899332405740  0.3942804620578 1.0
C      1  0.5766871970703  0.8144687349168  0.5507053302549 1.0
C      1  0.4060590515583  0.8131955117958  0.5544721666454 1.0
C      1  0.4920923139921  0.8121476587839  0.3948659425439 1.0
C      1  0.5886788800344  0.1813378580357  0.4505901506612 1.0
C      1  0.4191603263626  0.1926629663102  0.4476073075112 1.0
C      1  0.5051421779209  0.1892105247362  0.6077965945716 1.0
C      1  0.5762487826705  0.8153111598045  0.4503720089720 1.0
C      1  0.4062116810040  0.8138901541371  0.4471977352865 1.0
C      1  0.4922585415270  0.8109002335198  0.6064232605415 1.0
C      1  0.5814435029149  0.9172466200723  0.4471475069490 1.0
C      1  0.4941494043874  0.9130632497285  0.6116367870139 1.0
C      1  0.4032052436695  0.9159690467910  0.4462644862297 1.0
C      1  0.5885377971291  0.0798439004238  0.4466920070703 1.0
C      1  0.5015215215173  0.0861491145961  0.6116855527944 1.0
C      1  0.4093047135119  0.0911359847242  0.4462190766941 1.0
C      1  0.5816707648741  0.9165442226347  0.5552429120461 1.0
C      1  0.4946551420770  0.9143821171584  0.3904188309204 1.0
C      1  0.4027127023912  0.9156967457924  0.5554417121878 1.0
C      1  0.5889111598448  0.0797021988553  0.5549809710762 1.0
C      1  0.5013660045240  0.0867406441972  0.3899183078344 1.0
C      1  0.4090853473136  0.0916265208967  0.5562410408934 1.0
C      1  0.8312263750097  0.6178844782683  0.4432917576262 1.0
C      1  0.3723304501465  0.6636197666853  0.8780889999597 1.0
C      1  0.2036898712600  0.6770040835662  0.2278436153862 1.0
C      1  0.8549293828409  0.3727877376093  0.4444824297102 1.0
C      1  0.4095418699441  0.3273109246008  0.8898878296510 1.0
C      1  0.2411519536994  0.3387106187809  0.2104550807211 1.0
C      1  0.8349660935199  0.6173505310023  0.5526687760504 1.0
C      1  0.3740244519382  0.6653833348662  0.1134523526117 1.0
C      1  0.2060594877306  0.6752593741841  0.7631231669563 1.0
C      1  0.8586798835612  0.3722620204076  0.5529745978266 1.0
C      1  0.4062960845290  0.3291607816569  0.1126711078017 1.0
C      1  0.2427907912141  0.3354231938312  0.8026814304377 1.0
C      1  0.4866820972475  0.4150895289654  0.6004815862631 1.0
C      1  0.4034399674278  0.4210025528533  0.4565196214093 1.0
C      1  0.5630612044258  0.3991277898574  0.4534922752985 1.0
C      1  0.4607700319139  0.5949537082025  0.5945957142567 1.0
C      1  0.3818521940445  0.5999349569859  0.4525194343003 1.0
C      1  0.5453107544847  0.6076010338266  0.4516894076924 1.0
C      1  0.4830731775406  0.4157634441304  0.4043958882808 1.0
C      1  0.4047914384705  0.4214910463137  0.5526773425193 1.0
C      1  0.5642859564743  0.3985595524593  0.5479478630781 1.0
C      1  0.4633335274590  0.5971213749990  0.4050193525057 1.0
C      1  0.3775091565015  0.5972117935710  0.5464755647851 1.0
C      1  0.5442589511428  0.6069363199525  0.5484435401539 1.0
C      1  0.1704761558474  0.3423694821565  0.2760887610909 1.0
C      1  0.9255913617117  0.3844141978932  0.3678661037469 1.0
C      1  0.4818864915231  0.3142427835405  0.9554461820915 1.0
C      1  0.1222069555308  0.6862555653152  0.2822838634836 1.0
C      1  0.9047652426118  0.6003922016296  0.3696465620680 1.0
C      1  0.4485592776707  0.6716968397614  0.9485210921346 1.0
C      1  0.1704057872728  0.3404022212976  0.7408200418239 1.0
C      1  0.9335105906078  0.3863793876322  0.6288435092058 1.0
C      1  0.4796714883088  0.3153535877510  0.0472437021704 1.0
C      1  0.1271772992068  0.6823870591339  0.7045425547035 1.0
C      1  0.9145747886997  0.5976107429956  0.6226282011961 1.0
C      1  0.4483026919239  0.6737910400773  0.0434144990733 1.0
C      1  0.8737666147109  0.6731597918405  0.2988783481995 1.0
C      1  0.5302636941939  0.7160042580526  0.9055945461912 1.0
C      1  0.0997167423580  0.7719524144597  0.3154847405096 1.0
C      1  0.8864850609349  0.3179055525789  0.2976646271960 1.0
C      1  0.5564527711246  0.2648428316890  0.9128657161728 1.0
C      1  0.1262598478258  0.2612805938601  0.3026116972515 1.0
C      1  0.8818716760137  0.6713710833429  0.6962292157955 1.0
C      1  0.5298327556241  0.7179940572791  0.0874476054697 1.0
C      1  0.0970107208254  0.7689085036887  0.6783643558694 1.0
C      1  0.8923103786163  0.3189964461130  0.7000593126738 1.0
C      1  0.5537068840793  0.2663187039202  0.0900701297750 1.0
C      1  0.1273189622297  0.2607017011764  0.7038286402639 1.0
C      1  0.6295416874948  0.5725786333638  0.9029963613824 1.0
C      1  0.0830265886176  0.6182404928106  0.3444288683282 1.0
C      1  0.8101916658167  0.5495187609092  0.2021968423642 1.0
C      1  0.6394876551590  0.4112278680329  0.9057965936216 1.0
C      1  0.0919805571854  0.4273230194093  0.3980221372179 1.0
C      1  0.8158251872277  0.4447825482344  0.2021129333229 1.0
C      1  0.6283368635463  0.5735101659825  0.0923566730917 1.0
C      1  0.1026405491532  0.6182618005471  0.6339015963690 1.0
C      1  0.8131941846416  0.5488199374831  0.7943483951435 1.0
C      1  0.6377978665850  0.4119455642791  0.0911768853934 1.0
C      1  0.1097197844115  0.4272889693692  0.6117134241223 1.0
C      1  0.8188802012282  0.4445549983424  0.7955107799538 1.0
C      1  0.4466414533136  0.9477001375100  0.6964248380522 1.0
C      1  0.3571610261061  0.9522291373591  0.3569471685326 1.0
C      1  0.6828625743330  0.9426309356891  0.4483358122609 1.0
C      1  0.4531772541696  0.0509397523060  0.6966360442748 1.0
C      1  0.3612518898373  0.0566128379447  0.3570328656043 1.0
C      1  0.6883347946727  0.0488308629004  0.4482645140808 1.0
C      1  0.4486238330466  0.9489455428306  0.3049005586555 1.0
C      1  0.3555230176929  0.9525235099296  0.6439918941015 1.0
C      1  0.6833309191962  0.9421943206639  0.5530380753350 1.0
C      1  0.4531540438385  0.0519412526049  0.3050304770901 1.0
C      1  0.3611079657327  0.0569121403983  0.6452222094284 1.0
C      1  0.6887671795185  0.0486517828963  0.5529072151196 1.0
C      1  0.2519281485079  0.5855106850147  0.7654639155467 1.0
C      1  0.3424639301110  0.5846979161539  0.1708100791323 1.0
C      1  0.7691687747709  0.5369181477057  0.5550841038923 1.0
C      1  0.2887335672121  0.4189796622190  0.8272748884226 1.0
C      1  0.3795170272686  0.4072937377940  0.1600552641862 1.0
C      1  0.8311533033965  0.4653625321538  0.5807622369359 1.0
C      1  0.2475966855873  0.5954721799815  0.2038334656648 1.0
C      1  0.3425613486512  0.5800260685874  0.8221636109427 1.0
C      1  0.7664609730611  0.5374842603274  0.4442090625802 1.0
C      1  0.2844334318362  0.4185942080649  0.1777771790618 1.0
C      1  0.3843669225402  0.4042817264859  0.8413500716592 1.0
C      1  0.8271389159559  0.4658351021822  0.4172354864722 1.0
C      1  0.2638546443790  0.7530834003530  0.2114422356917 1.0
C      1  0.7808533305016  0.6987976834427  0.4135056311849 1.0
C      1  0.3470271918575  0.7453141639149  0.8380700235306 1.0
C      1  0.2871301179719  0.2537211155482  0.1978089832669 1.0
C      1  0.7979105682790  0.2933631619674  0.4193362967653 1.0
C      1  0.3711495496499  0.2444455061667  0.8579308831959 1.0
C      1  0.2606938195911  0.7512568108936  0.7857569063874 1.0
C      1  0.7833536754363  0.6973072996712  0.5844437260177 1.0
C      1  0.3489358450692  0.7466213482628  0.1578080460573 1.0
C      1  0.2885155124427  0.2506170573576  0.8103860359658 1.0
C      1  0.8005540370704  0.2935574143156  0.5797664864504 1.0
C      1  0.3683301424335  0.2477072101047  0.1471385424962 1.0
C      1  0.2461033760463  0.8327784787267  0.2626215578724 1.0
C      1  0.8163337106029  0.7896819375359  0.4396543954217 1.0
C      1  0.4160342040073  0.8181792438483  0.8338994275557 1.0
C      1  0.2632118792889  0.1817898934419  0.2572452392842 1.0
C      1  0.8326290608907  0.2000523948399  0.4389516172094 1.0
C      1  0.4359596361914  0.1722788217696  0.8429176397177 1.0
C      1  0.2413920646527  0.8331039778380  0.7366022167910 1.0
C      1  0.8173960803883  0.7889721976210  0.5580942730059 1.0
C      1  0.4175584326992  0.8194260780256  0.1637329787999 1.0
C      1  0.2643626889962  0.1808535544047  0.7477605860869 1.0
C      1  0.8340380802625  0.1999102086274  0.5599095365569 1.0
C      1  0.4330955573502  0.1740164988566  0.1599444755826 1.0
C      1  0.7305861749806  0.8451520201572  0.4492920543164 1.0
C      1  0.3990172592879  0.8842437154985  0.7640308975738 1.0
C      1  0.3217956087664  0.8898845596627  0.2824668883311 1.0
C      1  0.7441336688320  0.1447763634710  0.4497578389513 1.0
C      1  0.4139228607471  0.1138725357038  0.7679178267484 1.0
C      1  0.3317598008838  0.1189648341742  0.2804638339236 1.0
C      1  0.7312408861379  0.8442860338040  0.5500733129694 1.0
C      1  0.4022592568557  0.8849743145634  0.2359043212492 1.0
C      1  0.3175277770249  0.8901576485272  0.7180183232278 1.0
C      1  0.7449495179919  0.1448742410554  0.5505392459285 1.0
C      1  0.4121633445807  0.1148416103917  0.2344873146444 1.0
C      1  0.3327563816976  0.1187625071114  0.7229070090392 1.0
C      1  0.1869140441456  0.1872183186568  0.6964574193906 1.0
C      1  0.5235101303662  0.1868121774137  0.1330543211134 1.0
C      1  0.8411430170458  0.2395474219126  0.6595584716768 1.0
C      1  0.1628492979624  0.8375589301893  0.6840782505184 1.0
C      1  0.5057472148613  0.8014831187812  0.1314713446295 1.0
C      1  0.8300319126476  0.7525925270134  0.6581912744292 1.0
C      1  0.1851816265855  0.1859640354127  0.3069065594213 1.0
C      1  0.5269726823452  0.1854538542944  0.8692996547790 1.0
C      1  0.8377792131432  0.2384405519567  0.3393055015173 1.0
C      1  0.1677700138716  0.8384812557840  0.3142615295317 1.0
C      1  0.5052790697735  0.8005389799982  0.8645280081930 1.0
C      1  0.8264533383816  0.7544008324500  0.3387498190487 1.0
C      1  0.5793974707898  0.8469125070279  0.8158207536463 1.0
C      1  0.1736317584043  0.8695284735983  0.4091894505164 1.0
C      1  0.7588274889569  0.8086860672498  0.2820497217351 1.0
C      1  0.5965525780640  0.1451214235013  0.8130963554641 1.0
C      1  0.1882946769280  0.1700919179668  0.4024977157589 1.0
C      1  0.7706842423747  0.1841351079925  0.2839992721049 1.0
C      1  0.5789112473243  0.8466576850723  0.1816938399426 1.0
C      1  0.1716478439784  0.8686332574091  0.5894449401673 1.0
C      1  0.7617458302051  0.8062808610760  0.7162545240465 1.0
C      1  0.5931533174808  0.1461656984371  0.1886596677635 1.0
C      1  0.1897500829489  0.1701656623500  0.6006663245640 1.0
C      1  0.7742350728303  0.1849652858621  0.7157673912529 1.0
C      1  0.7845776041894  0.6705765593342  0.1388638669243 1.0
C      1  0.7059272023737  0.7210263969458  0.8839300358232 1.0
C      1  0.0046426612317  0.7134120845151  0.4475954099235 1.0
C      1  0.8010748669332  0.3233450723432  0.1370098608612 1.0
C      1  0.7285475692527  0.2669136587167  0.8881054298253 1.0
C      1  0.0387040777939  0.2856529681097  0.4547052200566 1.0
C      1  0.7866055921608  0.6702715647390  0.8556461512694 1.0
C      1  0.7048273953359  0.7219383092865  0.1108692464788 1.0
C      1  0.0088166547142  0.7095132127072  0.5414382310116 1.0
C      1  0.8038772766495  0.3233376778607  0.8605931173488 1.0
C      1  0.7257407015508  0.2669587214010  0.1104674468700 1.0
C      1  0.0455482643888  0.2876139450976  0.5471159486215 1.0
C      1  0.6856721186789  0.6891759164366  0.5837054598930 1.0
C      1  0.2716555117625  0.7085318814362  0.5953654722157 1.0
C      1  0.4831789470950  0.6880423517187  0.2866133276649 1.0
C      1  0.7034429257784  0.3007795622219  0.5556130932753 1.0
C      1  0.2969316816221  0.3136235258445  0.5936270771712 1.0
C      1  0.5000114649449  0.3183056530609  0.2870795330537 1.0
C      1  0.6840509713063  0.6909841541244  0.4146200305333 1.0
C      1  0.2717437597457  0.7082897742372  0.4099858841210 1.0
C      1  0.4853663006412  0.6845591312232  0.7134870948253 1.0
C      1  0.7017701061914  0.3008242836842  0.4442706082925 1.0
C      1  0.2981968560317  0.3117677765989  0.4076178802569 1.0
C      1  0.5051599427228  0.3157314068003  0.7166238214353 1.0
C      1  0.0454600037650  0.7777369869959  0.5943815968422 1.0
C      1  0.6176473350736  0.6768501208600  0.0885043362615 1.0
C      1  0.8448556988929  0.6432078101172  0.7739935689814 1.0
C      1  0.0642292624012  0.2764441915465  0.6354577138310 1.0
C      1  0.6386605085066  0.3086979016989  0.0883310978277 1.0
C      1  0.8564666419891  0.3503358212704  0.7773884397593 1.0
C      1  0.0457905700782  0.7814995791311  0.3982110082328 1.0
C      1  0.6186542693021  0.6757055824136  0.9056463501710 1.0
C      1  0.8402431660509  0.6452694936428  0.2203265875704 1.0
C      1  0.0588504401554  0.2744255681678  0.3667357124987 1.0
C      1  0.6414132420817  0.3081630760891  0.9109049975011 1.0
C      1  0.8522641436497  0.3496464709595  0.2201425517344 1.0
C      1  0.7237324941713  0.5471342370010  0.0495621256951 1.0
C      1  0.7902630807959  0.5852697664222  0.8860970018896 1.0
C      1  0.0105823711447  0.6161866676996  0.5770559682080 1.0
C      1  0.7295237334993  0.4455710663354  0.0498905870606 1.0
C      1  0.7994565719230  0.4098395963999  0.8882562521377 1.0
C      1  0.0307562441417  0.3656323681736  0.6080416468443 1.0
C      1  0.7248682247942  0.5472101033577  0.9463276683506 1.0
C      1  0.7882971104552  0.5850354361602  0.1099405136955 1.0
C      1  0.9975991660012  0.6239622200039  0.4055359564852 1.0
C      1  0.7307328171194  0.4454894450172  0.9469854354487 1.0
C      1  0.7972629024502  0.4099732857627  0.1093928032632 1.0
C      1  0.0196904943082  0.3621161565969  0.3911944141390 1.0
C      1  0.0846938749474  0.8443657765521  0.5439747494906 1.0
C      1  0.7193118372276  0.8122924063133  0.1192520848490 1.0
C      1  0.7655368993962  0.8565322340508  0.8040414610975 1.0
C      1  0.1347595159514  0.1199933145130  0.5502252092852 1.0
C      1  0.7364466750272  0.1764548945272  0.1219285724077 1.0
C      1  0.7789956811842  0.1298694209840  0.8010642062250 1.0
C      1  0.0855206765884  0.8454620821696  0.4515507980328 1.0
C      1  0.7203388176435  0.8115966121801  0.8777458930103 1.0
C      1  0.7637181656515  0.8571944280341  0.1936372260209 1.0
C      1  0.1333997475716  0.1205346411121  0.4534229180125 1.0
C      1  0.7403058210256  0.1761178617088  0.8777683589710 1.0
C      1  0.7751793557554  0.1300303022008  0.1984158946216 1.0
C      1  0.6477693260781  0.3781626411340  0.4094564370070 1.0
C      1  0.4807058649170  0.4001909514684  0.7021942710059 1.0
C      1  0.3158976152710  0.4052260205607  0.4102881913822 1.0
C      1  0.6320509095733  0.6162106478232  0.4043509578920 1.0
C      1  0.4556992553269  0.6028222547033  0.6947681259292 1.0
C      1  0.2935876699391  0.6157026490644  0.4109355575427 1.0
C      1  0.6498667098012  0.3778420933372  0.5900050997688 1.0
C      1  0.4736524733427  0.4026768794886  0.3016670007503 1.0
C      1  0.3179243769643  0.4070952444837  0.6022562560267 1.0
C      1  0.6327647879720  0.6148566054990  0.5948396074646 1.0
C      1  0.4534018941212  0.6065855123911  0.3053474585479 1.0
C      1  0.2857735684377  0.6117296410440  0.5930787360609 1.0
C      1  0.6591228275812  0.7849901653787  0.4096828861512 1.0
C      1  0.5171547286396  0.7627655983210  0.6893845021091 1.0
C      1  0.3248001252774  0.7779269256886  0.4158078428326 1.0
C      1  0.6744762896624  0.2100001232236  0.4136900270718 1.0
C      1  0.5319151331267  0.2360973386954  0.6910868533095 1.0
C      1  0.3424415368711  0.2379714889957  0.4166836848776 1.0
C      1  0.6604169710769  0.7832051100736  0.5894880300757 1.0
C      1  0.5157148431299  0.7656148707499  0.3106169941751 1.0
C      1  0.3247988190564  0.7768481862618  0.5861865936412 1.0
C      1  0.6758982907638  0.2102062096059  0.5872227571355 1.0
C      1  0.5292281524842  0.2387050670133  0.3111096370357 1.0
C      1  0.3426153096295  0.2405458273539  0.5847368232677 1.0
C      1  0.2623459152840  0.4552428776113  0.6557091304303 1.0
C      1  0.4279212198802  0.4586692867075  0.2323295142107 1.0
C      1  0.6822825929202  0.4388732381475  0.6486705659250 1.0
C      1  0.2553026594552  0.5529559270703  0.6680089954762 1.0
C      1  0.4095876840660  0.5491558385598  0.2403654500044 1.0
C      1  0.6916913327516  0.5398387984379  0.6304363815588 1.0
C      1  0.2491554442989  0.4573552571953  0.3771815908218 1.0
C      1  0.4344239473148  0.4546338996534  0.7708035043633 1.0
C      1  0.6788929296424  0.4391779793768  0.3494399993409 1.0
C      1  0.2348225879794  0.5510153798926  0.3872796736435 1.0
C      1  0.4153977748581  0.5441807687065  0.7616442284282 1.0
C      1  0.6889770143672  0.5404621496610  0.3681503781691 1.0
C      1  0.6416001080156  0.5386528453827  0.1874646847971 1.0
C      1  0.7192555889551  0.5429106763120  0.7385599872306 1.0
C      1  0.1791786199943  0.5690938315669  0.5987214380701 1.0
C      1  0.6461237618577  0.4475629333359  0.1845602893606 1.0
C      1  0.7218420658073  0.4414655687273  0.7417071572359 1.0
C      1  0.1383340339841  0.4923492929855  0.5509319929362 1.0
C      1  0.6437890890627  0.5369384838726  0.8088070021301 1.0
C      1  0.7166069897481  0.5437738146580  0.2587033538008 1.0
C      1  0.1404785793566  0.5678727935973  0.3913681173403 1.0
C      1  0.6487818417392  0.4459073232418  0.8122128154518 1.0
C      1  0.7182355148523  0.4424755188199  0.2559546533771 1.0
C      1  0.0949079311281  0.5069331388371  0.4628836461406 1.0
C      1  0.8961605162532  0.4903749561815  0.3656243056618 1.0
C      1  0.5859124752975  0.4902870465501  0.9521281836797 1.0
C      1  0.1664880435561  0.4119226585257  0.3448619980936 1.0
C      1  0.9020256018642  0.4903686041022  0.6296289563031 1.0
C      1  0.5851085565324  0.4907380023111  0.0435798384980 1.0
C      1  0.1736723027150  0.4117903260991  0.6789722144957 1.0
C      1  0.2697990959193  0.5117654873745  0.8323240927121 1.0
C      1  0.2667109743781  0.5119086293106  0.1735407510831 1.0
C      1  0.0167609537972  0.5636220281851  0.4861254194982 1.0
END
