TITL C-80883-1786-7 -0.592 3375.00 -81.14068173 0 0 11 (D3h) n - 1
REM
REM Run started: at 2020.12.04 02:19:26 in /rds/project/t2_vol4/rds-t2-cs072/BORA/CARBON/AIRSS/Generating-Clusters/Str-Search/Higher-Symm/C10-100
REM VASP from code version vasp.5.4.4.18Apr17-6-g9f103f2a35 (build Oct 11 2019 16:45:47) gamma-only
REM
REM
REM
REM
REM ./C.cell (f39ce9773e2efe3fa5bbdf770a4156b8)
REM AIRSS Version 0.9.1 bugfix July 2018 build 013d7b7c2542+ Fri, 06 Jul 2018 19:26:36 +0100
REM compiler GCC version 4.8.5 20150623 (Red Hat 4.8.5-39)
REM options -cpp -mtune=generic -march=x86-64 -g -O0
REM seed -1144392549 2008779619 347675669 447551802 -234090354 -77339237 905923349 544568796 1647789051 194080441 -977858946 -1271563657
REM
REM C.POTCAR (d86ddea03c3ceb6dc662c8ad6801f873)
REM 
CELL 1.54180   15.00000   15.00000   15.00000   90.00000   90.00000   90.00000
LATT -1
SFAC C  
C      1  0.5383920235695  0.4047160877466  0.4249941123470 1.0
C      1  0.5434840022771  0.4046635420510  0.5630965346748 1.0
C      1  0.4210091674473  0.4046069561796  0.4983233805971 1.0
C      1  0.5385136450404  0.5616720334871  0.4245648283338 1.0
C      1  0.5436738779872  0.5616982522236  0.5635253501214 1.0
C      1  0.4206656938726  0.5617087907545  0.4982898264733 1.0
C      1  0.3849744913958  0.4830934036854  0.4993709279871 1.0
C      1  0.5555758154477  0.4831171964100  0.3929863740957 1.0
C      1  0.5621681075674  0.4830990423670  0.5940911675188 1.0
C      1  0.5009128636846  0.3531662746463  0.4955139352819 1.0
C      1  0.5009271117103  0.6123094204488  0.4955467625691 1.0
END
