TITL C-81496-4947-4 -15.629 3375.00 -2853.81658992 0 0 341 (C1) n - 1
REM
REM Run started: at 2020.11.23 23:20:57 in /rds/project/t2_vol4/rds-t2-cs072/BORA/CARBON/AIRSS/Generating-Clusters/Str-Search/Higher-Symm
REM VASP from code version vasp.5.4.4.18Apr17-6-g9f103f2a35 (build Oct 11 2019 16:45:47) gamma-only
REM
REM
REM
REM
REM ./C.cell (e5ae0387ce4d49c7c0135a1433873289)
REM AIRSS Version 0.9.1 bugfix July 2018 build 013d7b7c2542+ Fri, 06 Jul 2018 19:26:36 +0100
REM compiler GCC version 4.8.5 20150623 (Red Hat 4.8.5-39)
REM options -cpp -mtune=generic -march=x86-64 -g -O0
REM seed 1843940971 629709296 -2024395700 1562701081 -1650326957 183552251 1000242356 779719924 1755682159 1783219618 1973595520 -2108098312
REM
REM C.POTCAR (d86ddea03c3ceb6dc662c8ad6801f873)
REM 
CELL 1.54180   15.00000   15.00000   15.00000   90.00000   90.00000   90.00000
LATT -1
SFAC C  
C      1  0.2537870488050  0.2126970011274  0.1142114427044 1.0
C      1  0.7585318746111  0.7937303640643  0.1278796354977 1.0
C      1  0.2548814549464  0.2051109732510  0.8923311386713 1.0
C      1  0.7563016896058  0.7879329906042  0.8715872146962 1.0
C      1  0.2572927942391  0.7922347614198  0.1132557273424 1.0
C      1  0.7537764320605  0.2099062743943  0.1304165245036 1.0
C      1  0.2580358043670  0.7894764412783  0.8838498903754 1.0
C      1  0.7578820077670  0.2048697415356  0.8705460720288 1.0
C      1  0.6130124260187  0.1836121463646  0.2256820431564 1.0
C      1  0.4109987899491  0.8237643509438  0.1955339942849 1.0
C      1  0.6168493227685  0.1777155045237  0.7768366805749 1.0
C      1  0.4112608486700  0.8184230509856  0.7997716790915 1.0
C      1  0.6093068593169  0.8188149718643  0.2144895871909 1.0
C      1  0.4039547871725  0.1754872316887  0.1882945355061 1.0
C      1  0.6085083520614  0.8139857999243  0.7831161047690 1.0
C      1  0.4055423456270  0.1672427458366  0.8174106644683 1.0
C      1  0.6823032621103  0.7603569520918  0.5946303039365 1.0
C      1  0.3075913543458  0.2198194124888  0.5897689929339 1.0
C      1  0.6834165981217  0.7635737732283  0.4059248580267 1.0
C      1  0.3096173741338  0.2184532411217  0.4279112282921 1.0
C      1  0.6806153799574  0.2401705939023  0.5947189008629 1.0
C      1  0.3147045313499  0.7702256926462  0.5538741881217 1.0
C      1  0.6797325767096  0.2432594475398  0.4062509042348 1.0
C      1  0.3139121344777  0.7719023393512  0.4436077237663 1.0
C      1  0.1259624497471  0.6910884183613  0.8495071926195 1.0
C      1  0.8836991328914  0.3045229299764  0.8401614940058 1.0
C      1  0.1251321914456  0.6951942064102  0.1482317446422 1.0
C      1  0.8801131748188  0.3099043174626  0.1607697814567 1.0
C      1  0.1261206974213  0.3061914389193  0.8511860503412 1.0
C      1  0.8832604953520  0.6887294783038  0.8408126442799 1.0
C      1  0.1224792794869  0.3081207548465  0.1555017432026 1.0
C      1  0.8855678731769  0.6940609791032  0.1592573745696 1.0
C      1  0.0738242956096  0.4076597207963  0.3013871992982 1.0
C      1  0.9306806560623  0.5895103779124  0.3007765745125 1.0
C      1  0.0721484310005  0.4092215980058  0.7028266376032 1.0
C      1  0.9308058099803  0.5874786032710  0.6996330410702 1.0
C      1  0.0760264847620  0.5863625114584  0.2973009719472 1.0
C      1  0.9311777831120  0.4108220037440  0.3019771781276 1.0
C      1  0.0713797803361  0.5880167367923  0.7016066097041 1.0
C      1  0.9307820430442  0.4093111134009  0.6999980528841 1.0
C      1  0.3961182732561  0.7976362880102  0.6130760055384 1.0
C      1  0.5872796066511  0.2012448849592  0.5991677770804 1.0
C      1  0.3951063655097  0.8018980412110  0.3844569103090 1.0
C      1  0.5863149168102  0.2049817601004  0.4038274751478 1.0
C      1  0.3947520486523  0.1938533767692  0.6040095889494 1.0
C      1  0.5888628452972  0.7983252943234  0.5989423240866 1.0
C      1  0.3959214745940  0.1960851131027  0.4051627692062 1.0
C      1  0.5901477529561  0.8025428170657  0.3995274030685 1.0
C      1  0.5507260296732  0.5512666693262  0.6229550869804 1.0
C      1  0.4377949307274  0.4388476220443  0.6297844431817 1.0
C      1  0.5538406403640  0.5593732590121  0.3730548685039 1.0
C      1  0.4367111129147  0.4623764459703  0.3606812300670 1.0
C      1  0.5511516108943  0.4464241781922  0.6256297182150 1.0
C      1  0.4376377879598  0.5519848437410  0.6244276478015 1.0
C      1  0.5502382833320  0.4540027741280  0.3759210635907 1.0
C      1  0.4427601140135  0.5649083126886  0.3637381751838 1.0
C      1  0.7957602851566  0.8525739058110  0.8151560576179 1.0
C      1  0.2155109273670  0.1467666637850  0.8309916916334 1.0
C      1  0.7971965584355  0.8572218284171  0.1860643549237 1.0
C      1  0.2156222989321  0.1514349071641  0.1735958711315 1.0
C      1  0.7983563742114  0.1416681151289  0.8126896443606 1.0
C      1  0.2182366343520  0.8494804055308  0.8261033152650 1.0
C      1  0.7950751295484  0.1460962863841  0.1869197897720 1.0
C      1  0.2180706660657  0.8516899671711  0.1724600149991 1.0
C      1  0.4430168231013  0.4497218091851  0.7981613284604 1.0
C      1  0.5444348849928  0.5575419859129  0.7956189098554 1.0
C      1  0.4454111262128  0.4537137264448  0.1992712917322 1.0
C      1  0.5471253165716  0.5615214202656  0.2019436151465 1.0
C      1  0.4416456576053  0.5531068581473  0.7943160220782 1.0
C      1  0.5478948329272  0.4544198557524  0.7988102154535 1.0
C      1  0.4440487592979  0.5587167827630  0.2011462544371 1.0
C      1  0.5495861106315  0.4582223875114  0.2011534975358 1.0
C      1  0.2263844585522  0.1767723686939  0.4608929579211 1.0
C      1  0.7637621753772  0.8019199993861  0.4550801045960 1.0
C      1  0.2254147966369  0.1779610192701  0.5511773944818 1.0
C      1  0.7631867521459  0.8004399329340  0.5467318656346 1.0
C      1  0.2227536070996  0.8116421400808  0.4552377889845 1.0
C      1  0.7604941806387  0.2019891612531  0.4539725997436 1.0
C      1  0.2231733198455  0.8106500890030  0.5446401025566 1.0
C      1  0.7609044548097  0.2004366083859  0.5456479533059 1.0
C      1  0.5092714974909  0.7282520076014  0.0939292801528 1.0
C      1  0.4096220458322  0.2937320929025  0.0551756570176 1.0
C      1  0.5088860015016  0.7262226898849  0.9029343602990 1.0
C      1  0.4091893345627  0.2914545833754  0.9477715758455 1.0
C      1  0.5138281973321  0.3073040913767  0.0489624716002 1.0
C      1  0.4142939324501  0.7191196450178  0.0563829501235 1.0
C      1  0.5129131225351  0.3070036813284  0.9540409917105 1.0
C      1  0.4143896870808  0.7179830365699  0.9402702220996 1.0
C      1  0.2087275711609  0.0459739334429  0.2967209653198 1.0
C      1  0.8011565643787  0.9536701119065  0.3132336540705 1.0
C      1  0.2068185475976  0.0446130585099  0.7058750602297 1.0
C      1  0.8019611161301  0.9499786367499  0.6878673865036 1.0
C      1  0.2108375413704  0.9529459823888  0.2962020862850 1.0
C      1  0.8028041665106  0.0463236422200  0.3127502735622 1.0
C      1  0.2101579688173  0.9516522253892  0.7038074541150 1.0
C      1  0.8046672826994  0.0425156240711  0.6867230946952 1.0
C      1  0.1524279196939  0.4580606885415  0.9172407042965 1.0
C      1  0.8693976471967  0.5368347292620  0.9136840241685 1.0
C      1  0.1367835994840  0.4602376028554  0.0861970956097 1.0
C      1  0.8681882151840  0.5426558209451  0.0868870336171 1.0
C      1  0.1511468543945  0.5393601693116  0.9170169481966 1.0
C      1  0.8698259416014  0.4550613183971  0.9142833853245 1.0
C      1  0.1408343254566  0.5415035097600  0.0855489729464 1.0
C      1  0.8654964887290  0.4609480852624  0.0869694053121 1.0
C      1  0.9071749591957  0.7388592161504  0.7651663751018 1.0
C      1  0.1019266223629  0.2593353482174  0.7740362763920 1.0
C      1  0.9082375811719  0.7425625329926  0.2362707287963 1.0
C      1  0.1002985931954  0.2586789560056  0.2316901753322 1.0
C      1  0.9080084913407  0.2562646418298  0.7634456778540 1.0
C      1  0.1025107265805  0.7381118805887  0.7722152208284 1.0
C      1  0.9059610520359  0.2599289036262  0.2359132743998 1.0
C      1  0.1037782203982  0.7392540292357  0.2275353745115 1.0
C      1  0.6546138416386  0.0914837268650  0.7426278995238 1.0
C      1  0.3641405671508  0.9059554422982  0.7666779045404 1.0
C      1  0.6518272685586  0.0964821634239  0.2579452982207 1.0
C      1  0.3640021847624  0.9114141566649  0.2298790178830 1.0
C      1  0.6485618581945  0.9037101220207  0.7484692129742 1.0
C      1  0.3582987459541  0.0946001784331  0.7654775826367 1.0
C      1  0.6486429083597  0.9085136179183  0.2503599158249 1.0
C      1  0.3583405171168  0.0999318223057  0.2373026168272 1.0
C      1  0.8906973274205  0.7093456712807  0.3955718855276 1.0
C      1  0.1153927630676  0.2841731550042  0.3927307144997 1.0
C      1  0.8898179227662  0.7074165484536  0.6054213314321 1.0
C      1  0.1105866470978  0.2834919080865  0.6122093285102 1.0
C      1  0.8888134610912  0.2913498359252  0.3954472935766 1.0
C      1  0.1135371791443  0.7112408046302  0.3878135782093 1.0
C      1  0.8883574815044  0.2900288647270  0.6049648258284 1.0
C      1  0.1114334954453  0.7116233658569  0.6110673607449 1.0
C      1  0.1941278757493  0.5507356688970  0.4504760707454 1.0
C      1  0.8075301332430  0.4465724255921  0.4503822044289 1.0
C      1  0.1924555380928  0.5517678143378  0.5509818238089 1.0
C      1  0.8068764503306  0.4461818986842  0.5504652620890 1.0
C      1  0.1976588662018  0.4430276464818  0.4530195359345 1.0
C      1  0.8085234238615  0.5542747719755  0.4496831250180 1.0
C      1  0.1931585378418  0.4441023691374  0.5537987488259 1.0
C      1  0.8081671231489  0.5537968704974  0.5496831007009 1.0
C      1  0.7912570229910  0.6985607267459  0.1254577759068 1.0
C      1  0.2172513909575  0.3045867174311  0.1231670765680 1.0
C      1  0.7886569871454  0.6923178857279  0.8737955424770 1.0
C      1  0.2202749391684  0.2974022304464  0.8815134369978 1.0
C      1  0.7857992134648  0.3054056334063  0.1269883217818 1.0
C      1  0.2202995384951  0.6998416214444  0.1187612918197 1.0
C      1  0.7893312000177  0.3004486920935  0.8743665256892 1.0
C      1  0.2216829085660  0.6974931193522  0.8781411753169 1.0
C      1  0.4048247634340  0.0459674101425  0.6897870317917 1.0
C      1  0.5969787460456  0.9514035432668  0.6758746581320 1.0
C      1  0.4051521073862  0.0503025846309  0.3115366446482 1.0
C      1  0.5966817066739  0.9555408613116  0.3235993051140 1.0
C      1  0.4076234206666  0.9533693841541  0.6903005029545 1.0
C      1  0.5984721635326  0.0455654877372  0.6739656058837 1.0
C      1  0.4077390155467  0.9576594263445  0.3077957071496 1.0
C      1  0.5975144722458  0.0497035185681  0.3268926225824 1.0
C      1  0.4528521312900  0.6905650624900  0.6964869805942 1.0
C      1  0.5608434310651  0.3133259064986  0.6933620497506 1.0
C      1  0.4555832592262  0.6995823426487  0.2987293946796 1.0
C      1  0.5583669745520  0.3183676999930  0.3116372255269 1.0
C      1  0.4618357132856  0.3037319497595  0.7108437967236 1.0
C      1  0.5557168511004  0.6885705882614  0.6897983153532 1.0
C      1  0.4576355285132  0.3120288965442  0.3006050500998 1.0
C      1  0.5576502354768  0.6942938489975  0.3077657054556 1.0
C      1  0.3026755609059  0.3154411100310  0.4603835999303 1.0
C      1  0.6819324405088  0.6624179963868  0.4442920616796 1.0
C      1  0.3021827529819  0.3227455137317  0.5666821128008 1.0
C      1  0.6814164671159  0.6604271889572  0.5549197472124 1.0
C      1  0.3094593405186  0.6625317668505  0.4454748604161 1.0
C      1  0.6776729696090  0.3433581956054  0.4461233897301 1.0
C      1  0.3095747057466  0.6614277193769  0.5504083029850 1.0
C      1  0.6777522030433  0.3414268403522  0.5556837086134 1.0
C      1  0.3007911357532  0.3227755086730  0.1740649184963 1.0
C      1  0.7057506892897  0.6770527199248  0.1763727953054 1.0
C      1  0.3023699054586  0.3098817482771  0.8258733573734 1.0
C      1  0.7032275455606  0.6716061158803  0.8220389808966 1.0
C      1  0.3008843901986  0.6845957466608  0.1753428567518 1.0
C      1  0.7007904538158  0.3273139414753  0.1779863513051 1.0
C      1  0.3023723094842  0.6815083212434  0.8224388947578 1.0
C      1  0.7035616290198  0.3228690017794  0.8239778604832 1.0
C      1  0.2555152601537  0.5983985304390  0.3938190536743 1.0
C      1  0.7405905352352  0.4039620932345  0.3970917877743 1.0
C      1  0.2535290227776  0.6010419653260  0.6052368892533 1.0
C      1  0.7401244926078  0.4030749568048  0.6043910641707 1.0
C      1  0.2736391226598  0.4047081925258  0.4030461257820 1.0
C      1  0.7429023095602  0.5993742963085  0.3961139192148 1.0
C      1  0.2498476723001  0.3928240631758  0.6126121464976 1.0
C      1  0.7424274558265  0.5979060096937  0.6030578821499 1.0
C      1  0.8444221267111  0.4550267937673  0.2787764914921 1.0
C      1  0.1624143357523  0.5401572051267  0.2742645118508 1.0
C      1  0.8439480903433  0.4533031382608  0.7230619522924 1.0
C      1  0.1584591700866  0.5446532289230  0.7258048376199 1.0
C      1  0.8440978812944  0.5458845448521  0.2777319010074 1.0
C      1  0.1617269169648  0.4493029782921  0.2787147731587 1.0
C      1  0.8435027064415  0.5439897347691  0.7225106145407 1.0
C      1  0.1587490261824  0.4541694248724  0.7289062641147 1.0
C      1  0.8554849232906  0.1325538752878  0.6658266572006 1.0
C      1  0.1548145497271  0.8647139749359  0.6823546343232 1.0
C      1  0.8541104395702  0.1355628160284  0.3328720320922 1.0
C      1  0.1558124678350  0.8656918704433  0.3174209985939 1.0
C      1  0.8544069811471  0.8622587016880  0.6689328749566 1.0
C      1  0.1504504188127  0.1304406026735  0.6858007244738 1.0
C      1  0.8542238516267  0.8654677930957  0.3329834656571 1.0
C      1  0.1543712987583  0.1318270653721  0.3202600423392 1.0
C      1  0.3147208668965  0.3628972970234  0.7526604729559 1.0
C      1  0.6854999714954  0.6129775122519  0.7502951187448 1.0
C      1  0.3158452768988  0.3746911234730  0.2503060119478 1.0
C      1  0.6878872641456  0.6185683941701  0.2480231672620 1.0
C      1  0.3127712804153  0.6316578335498  0.7462045709002 1.0
C      1  0.6873678306334  0.3849869879847  0.7539145212773 1.0
C      1  0.3133804389598  0.6347612265155  0.2510803454078 1.0
C      1  0.6860514917788  0.3884278300164  0.2487317910970 1.0
C      1  0.6154519393654  0.7660993725187  0.6926442640518 1.0
C      1  0.4594481308887  0.2295651599997  0.7684045149156 1.0
C      1  0.6171038973500  0.7713090137773  0.3055030415708 1.0
C      1  0.4547067449604  0.2368793940778  0.2426933832848 1.0
C      1  0.6217949056563  0.2342242765354  0.6900260334396 1.0
C      1  0.4038134242871  0.7721738721209  0.7129034301637 1.0
C      1  0.6194327069328  0.2389999237920  0.3127776421772 1.0
C      1  0.4064137680675  0.7803789167550  0.2836068030968 1.0
C      1  0.1418471002779  0.1739075953103  0.7705039334537 1.0
C      1  0.8687318055141  0.8245949699916  0.7567765900187 1.0
C      1  0.1426292682789  0.1752311191554  0.2352509572756 1.0
C      1  0.8693850948456  0.8283387198500  0.2452208603026 1.0
C      1  0.1437384374850  0.8229179670416  0.7672391587697 1.0
C      1  0.8706207312006  0.1703216778477  0.7538704376709 1.0
C      1  0.1445669319189  0.8243126282002  0.2325433480379 1.0
C      1  0.8681193939755  0.1741718479237  0.2449481470825 1.0
C      1  0.4442950564637  0.2800342102618  0.6125720936632 1.0
C      1  0.5428214408837  0.7070930539909  0.5892841272896 1.0
C      1  0.4428040712972  0.2862294071134  0.4019657901774 1.0
C      1  0.5434396346982  0.7121462159604  0.4088145920898 1.0
C      1  0.4473690702203  0.7075889091688  0.5958700813577 1.0
C      1  0.5391786360021  0.2906058326715  0.5933360513717 1.0
C      1  0.4478575832715  0.7136252804840  0.4002422756600 1.0
C      1  0.5389077015392  0.2955144099248  0.4113887582164 1.0
C      1  0.6719994441525  0.2327778641755  0.8379093772147 1.0
C      1  0.3546790335332  0.7607814004667  0.8671803236327 1.0
C      1  0.6677518686877  0.2378813786039  0.1630901988745 1.0
C      1  0.3540720462870  0.7634902909051  0.1295080666685 1.0
C      1  0.6707394915078  0.7600419691384  0.8385507475171 1.0
C      1  0.3538098687217  0.2327000314465  0.8790240316602 1.0
C      1  0.6725741886724  0.7653999033124  0.1598297034963 1.0
C      1  0.3524609182111  0.2406906792889  0.1259128227010 1.0
C      1  0.5665304047992  0.3937413297524  0.9529342550176 1.0
C      1  0.3926047573627  0.6194181844540  0.9525076044188 1.0
C      1  0.5670795007297  0.3945142664524  0.0477976445266 1.0
C      1  0.3924740305883  0.6205300591166  0.0442103296255 1.0
C      1  0.5600578896927  0.6440563547453  0.9491471370676 1.0
C      1  0.3816044440407  0.3906009778441  0.9534865726418 1.0
C      1  0.5609453688688  0.6449959966306  0.0480185295639 1.0
C      1  0.3824924773423  0.3922507271533  0.0460457646655 1.0
C      1  0.9520011505360  0.5516279590724  0.6060331765051 1.0
C      1  0.0507828607934  0.4436749829266  0.6072714028059 1.0
C      1  0.9538482650856  0.5527201261008  0.3938373295992 1.0
C      1  0.0529698696321  0.4437207997951  0.3951019688511 1.0
C      1  0.9518324465465  0.4452914674754  0.6063070676011 1.0
C      1  0.0505952776416  0.5527625149916  0.6067191302692 1.0
C      1  0.9534426846806  0.4460047038750  0.3954876286388 1.0
C      1  0.0527490392798  0.5525600546846  0.3924624658207 1.0
C      1  0.3998828480549  0.5505998844683  0.8868974302821 1.0
C      1  0.5783846621217  0.4648548185828  0.8941377975025 1.0
C      1  0.4021698188361  0.5530191319134  0.1096397492690 1.0
C      1  0.5806084312157  0.4662787236672  0.1055585815252 1.0
C      1  0.3989904013466  0.4572562941452  0.8887356489589 1.0
C      1  0.5738008005438  0.5641204586852  0.8935196207393 1.0
C      1  0.4012359690109  0.4599886835607  0.1090201765528 1.0
C      1  0.5762782975379  0.5659568248504  0.1042198678402 1.0
C      1  0.2426412738712  0.4047323896175  0.7030033903934 1.0
C      1  0.7564226556177  0.5868949255294  0.6940700390659 1.0
C      1  0.2472146448913  0.4053327687238  0.3067219154089 1.0
C      1  0.7572561778164  0.5897776171312  0.3049560079176 1.0
C      1  0.2420496076286  0.5924713153600  0.6959094384819 1.0
C      1  0.7568660085923  0.4107838580731  0.6957410342105 1.0
C      1  0.2465098978519  0.5885277394510  0.3024023192532 1.0
C      1  0.7568050111313  0.4129088672106  0.3059290618844 1.0
C      1  0.4497487996518  0.8902933913494  0.3723631164643 1.0
C      1  0.5415086302645  0.1150102961970  0.3834794998400 1.0
C      1  0.4499258840876  0.8870803085785  0.6248812299315 1.0
C      1  0.5416457784751  0.1116366178906  0.6190688017116 1.0
C      1  0.4477435172246  0.1143028321928  0.3771482234833 1.0
C      1  0.5434212388274  0.8911668489284  0.3816379198989 1.0
C      1  0.4476515328645  0.1110401713226  0.6260659406993 1.0
C      1  0.5431674562228  0.8873790180754  0.6172910560556 1.0
C      1  0.8586554614054  0.3703213176270  0.0999006869211 1.0
C      1  0.1495825324904  0.6317003275816  0.0926959494297 1.0
C      1  0.8627705465381  0.3643863348051  0.9015686354871 1.0
C      1  0.1532937006831  0.6292672780064  0.9060021828366 1.0
C      1  0.8635899911459  0.6335376526440  0.0987733381573 1.0
C      1  0.1442583128510  0.3704551813224  0.0974409971705 1.0
C      1  0.8616544376294  0.6274321614096  0.9005923217620 1.0
C      1  0.1540583896292  0.3679554573563  0.9077350722375 1.0
C      1  0.1526986629479  0.1917973149144  0.3965104952996 1.0
C      1  0.8476931815922  0.7983508510781  0.4021994344316 1.0
C      1  0.1480354426745  0.1915651220490  0.6102309196991 1.0
C      1  0.8470390256649  0.7960074312891  0.5995109840518 1.0
C      1  0.1518008038661  0.8023629090370  0.3907049975755 1.0
C      1  0.8449940030786  0.2030790439837  0.4015137884591 1.0
C      1  0.1517834050239  0.8016209864560  0.6088681516888 1.0
C      1  0.8455367304539  0.2009378367242  0.5980016347244 1.0
C      1  0.9210285099230  0.6849039054463  0.6899633176660 1.0
C      1  0.0845079336360  0.3114536521492  0.6971034477945 1.0
C      1  0.9216358343531  0.6871594092969  0.3107323094708 1.0
C      1  0.0846886321353  0.3099879838955  0.3089132783263 1.0
C      1  0.9205787280037  0.3119244232104  0.6892645355835 1.0
C      1  0.0838022596672  0.6855533823956  0.6958193922475 1.0
C      1  0.9210212933312  0.3137004224902  0.3111302952995 1.0
C      1  0.0881094591268  0.6841230545776  0.3027084303668 1.0
C      1  0.5792785071411  0.3748685587524  0.5535397043609 1.0
C      1  0.4067433417966  0.6275076379587  0.5505021071974 1.0
C      1  0.5790803847334  0.3786651713828  0.4501753677930 1.0
C      1  0.4075482758110  0.6315675697088  0.4418445383403 1.0
C      1  0.5838281905772  0.6247907176115  0.5501270325098 1.0
C      1  0.4011092821286  0.3565394692305  0.5679331447634 1.0
C      1  0.5842997644018  0.6286355176698  0.4466720081673 1.0
C      1  0.3960667004757  0.3490551118815  0.4652047055882 1.0
C      1  0.5910804227131  0.4078452898070  0.2826715215855 1.0
C      1  0.4099400734506  0.6129803077853  0.2774408838415 1.0
C      1  0.5923322294193  0.4036997604234  0.7200616952933 1.0
C      1  0.4069973063754  0.6035107755999  0.7155260392700 1.0
C      1  0.5918453717825  0.6049474853743  0.2814550737122 1.0
C      1  0.4114609907558  0.4001923263081  0.2760538374006 1.0
C      1  0.5892457513955  0.5991839025866  0.7156434843620 1.0
C      1  0.4102860582381  0.3911905657482  0.7239999132034 1.0
C      1  0.8927485067340  0.3831677798909  0.5516086752711 1.0
C      1  0.1069829405884  0.6175896132993  0.5514385112651 1.0
C      1  0.8934037442943  0.3838947210223  0.4494784428905 1.0
C      1  0.1086866734259  0.6172586927092  0.4478669371023 1.0
C      1  0.8944242144259  0.6150825298545  0.5512515768956 1.0
C      1  0.1075105417926  0.3788418409031  0.5524061420771 1.0
C      1  0.8953693120727  0.6157055674858  0.4490102518253 1.0
C      1  0.1125092380279  0.3791520754857  0.4490862402188 1.0
C      1  0.2727340594292  0.9113999870404  0.7732676995481 1.0
C      1  0.7442932365093  0.0812701344756  0.7565220865787 1.0
C      1  0.2723064932325  0.9143887394158  0.2248452227605 1.0
C      1  0.7414843918425  0.0854837624975  0.2432118969933 1.0
C      1  0.2680577290542  0.0852733306682  0.7753006400191 1.0
C      1  0.7396955413942  0.9121123286609  0.7592222985728 1.0
C      1  0.2687023536347  0.0887479702369  0.2272237148064 1.0
C      1  0.7400444875459  0.9159819642565  0.2414036498218 1.0
C      1  0.5177896390085  0.1777998233422  0.8055763161668 1.0
C      1  0.5153860924613  0.7962580356624  0.1603007692032 1.0
C      1  0.5147902166987  0.7928069441011  0.8354976647699 1.0
C      1  0.5127552258448  0.1870395339385  0.2020459533301 1.0
C      1  0.3698878049551  0.4342545798297  0.4258090598939 1.0
END
