TITL C-81104-6119-10 -10.568 3375.00 -2400.53618754 0 0 288 (C1) n - 1
REM
REM Run started: at 2020.11.27 00:51:51 in /rds/project/t2_vol4/rds-t2-cs072/BORA/CARBON/AIRSS/Generating-Clusters/Str-Search/Higher-Symm
REM VASP from code version vasp.5.4.4.18Apr17-6-g9f103f2a35 (build Oct 11 2019 16:45:47) gamma-only
REM
REM
REM
REM
REM ./C.cell (e5ae0387ce4d49c7c0135a1433873289)
REM AIRSS Version 0.9.1 bugfix July 2018 build 013d7b7c2542+ Fri, 06 Jul 2018 19:26:36 +0100
REM compiler GCC version 4.8.5 20150623 (Red Hat 4.8.5-39)
REM options -cpp -mtune=generic -march=x86-64 -g -O0
REM seed -216991799 1996121746 -2113262087 1351991852 1113534374 127455612 1530272497 1184647421 -447213221 -1227776177 1624721351 -529551334
REM
REM C.POTCAR (d86ddea03c3ceb6dc662c8ad6801f873)
REM 
CELL 1.54180   15.00000   15.00000   15.00000   90.00000   90.00000   90.00000
LATT -1
SFAC C  
C      1  0.5406870674793  0.3707687645567  0.0824597239715 1.0
C      1  0.5140221305822  0.7239216704617  0.0530185483099 1.0
C      1  0.4989664163809  0.8887628885832  0.1281975248666 1.0
C      1  0.5622227524352  0.9483255549251  0.4702193379069 1.0
C      1  0.5424038207524  0.9065491964729  0.6752369225084 1.0
C      1  0.5428393622979  0.7260208758252  0.8888318804426 1.0
C      1  0.5418026036324  0.5687963764441  0.9568799738197 1.0
C      1  0.5425444698500  0.1795316197665  0.8870968389447 1.0
C      1  0.5605257515787  0.0648984242691  0.6522137303471 1.0
C      1  0.5633122223168  0.0239847448340  0.4189114856730 1.0
C      1  0.5727125499319  0.1713355626644  0.1528371905496 1.0
C      1  0.7054150679421  0.8114577133338  0.4792239534825 1.0
C      1  0.7353229646781  0.7263598957465  0.6220070013439 1.0
C      1  0.7098201049463  0.5979148375867  0.7150093598986 1.0
C      1  0.7226161897029  0.4681583484976  0.7939913753556 1.0
C      1  0.7692201725924  0.3400702350301  0.7344323189312 1.0
C      1  0.7945660401195  0.2610024217211  0.6103371408572 1.0
C      1  0.7564816838699  0.2458372659837  0.4622739882885 1.0
C      1  0.7331736854276  0.3322069859062  0.3356325540963 1.0
C      1  0.7544264787625  0.4695508038982  0.2497253127471 1.0
C      1  0.8027150745275  0.6186357993637  0.2707126784150 1.0
C      1  0.7455807364563  0.7415763017423  0.3389623972953 1.0
C      1  0.6891484004564  0.1602793270018  0.8203623845650 1.0
C      1  0.7136388604283  0.0285042295100  0.6065339033414 1.0
C      1  0.7142582739172  0.0603862399757  0.3417943540644 1.0
C      1  0.7073650304204  0.2485304301555  0.1250222016211 1.0
C      1  0.6780015463629  0.4959270884679  0.0586297627215 1.0
C      1  0.6960249221558  0.7566600214211  0.0605704374972 1.0
C      1  0.6571530040527  0.9301694390120  0.1863563669958 1.0
C      1  0.7030289219087  0.9446032862135  0.5610762919153 1.0
C      1  0.6678791477963  0.8517501869440  0.7728106868753 1.0
C      1  0.6690034469688  0.7109310806484  0.9767838881027 1.0
C      1  0.6706311704599  0.4445233262058  0.9683588645139 1.0
C      1  0.4620481453804  0.0483824100925  0.2915727963397 1.0
C      1  0.4848050414605  0.2790904498709  0.0666415446927 1.0
C      1  0.4733978228594  0.5259223760215  0.0169857357154 1.0
C      1  0.4659868638615  0.8171730326294  0.0712565976120 1.0
C      1  0.4365640396993  0.9584869946089  0.2746912519355 1.0
C      1  0.4337567377500  0.9816058453826  0.5779673968661 1.0
C      1  0.4223897433383  0.9024809226989  0.7871131002011 1.0
C      1  0.5027275970697  0.6672925020965  0.9604919917733 1.0
C      1  0.4732430946309  0.4405958632593  0.0527759388112 1.0
C      1  0.4392650400148  0.1682492127920  0.8772686898117 1.0
C      1  0.5165841578164  0.9852262862747  0.6335626619030 1.0
C      1  0.3767965537690  0.6514936694246  0.0895498393340 1.0
C      1  0.3535967186696  0.8533946411144  0.1737194640727 1.0
C      1  0.3864493592343  0.9476903973056  0.4362215835183 1.0
C      1  0.3553189752587  0.9206757543163  0.7160341456010 1.0
C      1  0.3961399139529  0.7672345176738  0.8775757657476 1.0
C      1  0.3276338271724  0.5797924965181  0.8648337900638 1.0
C      1  0.3570171081905  0.2232886813201  0.9066727849643 1.0
C      1  0.4134940533280  0.1116895864377  0.7019382459528 1.0
C      1  0.3896719433946  0.0450653253329  0.4305005649873 1.0
C      1  0.4044358176119  0.1691544026861  0.1753649234296 1.0
C      1  0.3908016258242  0.4021053356805  0.0540710241319 1.0
C      1  0.2976774763848  0.4274836797080  0.0397665659805 1.0
C      1  0.2814954853591  0.6727319830646  0.1106739045637 1.0
C      1  0.2921712103430  0.8292260165934  0.2447713249291 1.0
C      1  0.3043931881443  0.9039742104157  0.4837491691708 1.0
C      1  0.2848360311006  0.8559098993672  0.7281556720578 1.0
C      1  0.2950288775061  0.7366201230419  0.8559304095994 1.0
C      1  0.2701829412791  0.5272227465618  0.9276168350151 1.0
C      1  0.2924933220420  0.2139413052594  0.8368319380806 1.0
C      1  0.3148391790512  0.1254904093648  0.6904952986692 1.0
C      1  0.3090855243359  0.0832477194091  0.3804869546409 1.0
C      1  0.3191560011988  0.2140172955802  0.1708542925297 1.0
C      1  0.7433209101216  0.3231708417439  0.1710143769495 1.0
C      1  0.8339446345102  0.5229111457286  0.1353025012313 1.0
C      1  0.8070913854219  0.7568876761757  0.1820109525223 1.0
C      1  0.7495256566534  0.8944308444460  0.3241236596368 1.0
C      1  0.8579029128133  0.8533915258407  0.5910974554094 1.0
C      1  0.7439805112573  0.7130101587396  0.8044195589962 1.0
C      1  0.7419311792149  0.6295468222866  0.8609138852910 1.0
C      1  0.8213684398495  0.3791859299448  0.8989671793485 1.0
C      1  0.7611760507936  0.1796997197759  0.7560221763092 1.0
C      1  0.8405453541032  0.1201077109525  0.5448144202532 1.0
C      1  0.8163074835136  0.1876144946708  0.3151396168281 1.0
C      1  0.1805363261331  0.1941831410997  0.6104529748772 1.0
C      1  0.1781106233249  0.1694431972696  0.4404760563308 1.0
C      1  0.2030108093856  0.2426306950308  0.2842505033204 1.0
C      1  0.2182125989865  0.3979878111148  0.1971403849742 1.0
C      1  0.1847590524071  0.5730980816979  0.2064694961929 1.0
C      1  0.1768381561656  0.7068550065465  0.3027781671328 1.0
C      1  0.1791549767048  0.7900693923959  0.4553789749493 1.0
C      1  0.1866497666370  0.7629134600214  0.6298894121929 1.0
C      1  0.1944564269838  0.6364519598416  0.7679441630502 1.0
C      1  0.1898674721575  0.4624823158413  0.8061009160150 1.0
C      1  0.1943331609998  0.3099235601302  0.7389917729269 1.0
C      1  0.4883985784720  0.2764194813744  0.7505502356248 1.0
C      1  0.4513924827211  0.1505689680786  0.5505646359058 1.0
C      1  0.4721501111862  0.1660241649307  0.4431669608015 1.0
C      1  0.4928218733904  0.2969599082155  0.2205034136641 1.0
C      1  0.5364236192936  0.4571085546181  0.2362421379289 1.0
C      1  0.4760767019663  0.6671799162317  0.2129428401864 1.0
C      1  0.4469288209467  0.8161380127459  0.3807903890173 1.0
C      1  0.4547864707817  0.8301426988509  0.4732895118354 1.0
C      1  0.4697481283456  0.7565299625898  0.7289415750189 1.0
C      1  0.4814433926241  0.6122460961552  0.8041740770912 1.0
C      1  0.5125577504252  0.4490321027105  0.8127555084436 1.0
C      1  0.4095293566256  0.4827564440592  0.6046411714948 1.0
C      1  0.4109058944306  0.3958100930232  0.5793001950989 1.0
C      1  0.4726181570341  0.3203748423766  0.5597622611377 1.0
C      1  0.5315157181044  0.3289227230557  0.4814621128451 1.0
C      1  0.5301071334498  0.4021271995725  0.4227709101034 1.0
C      1  0.4538774498629  0.4645695530656  0.4149936094398 1.0
C      1  0.4790966599102  0.5526608051881  0.3983185226506 1.0
C      1  0.4271070368644  0.6351167394709  0.4167839339050 1.0
C      1  0.4651057777187  0.6773729437197  0.5048997759780 1.0
C      1  0.4299933547058  0.6394749164855  0.5894161525309 1.0
C      1  0.4685966538200  0.5566909726500  0.6349302248643 1.0
C      1  0.3974837887604  0.9011277420384  0.3482621709388 1.0
C      1  0.3606217161608  0.9421334965194  0.6272381423890 1.0
C      1  0.3762037589507  0.8587521657718  0.8529231303223 1.0
C      1  0.3900180472350  0.6334579885662  0.9396394138162 1.0
C      1  0.3377328068706  0.2958194957458  0.9606592430761 1.0
C      1  0.4013273001488  0.1134893826721  0.8011627711850 1.0
C      1  0.3872808090821  0.0698994789161  0.5296429597956 1.0
C      1  0.4002991400200  0.1077867416103  0.2442567999217 1.0
C      1  0.3886812347155  0.3053926127727  0.0491759362124 1.0
C      1  0.3839574104520  0.5767064137695  0.0209260504793 1.0
C      1  0.3731257939885  0.8090966410718  0.0912716413306 1.0
C      1  0.2107830796696  0.4849428939609  0.3350425504509 1.0
C      1  0.1449088290847  0.5636868164272  0.3740809617058 1.0
C      1  0.1751867939816  0.6357181182314  0.4447550058051 1.0
C      1  0.1290140635881  0.6495493360275  0.5336001918974 1.0
C      1  0.1718894548234  0.6097115939335  0.6209112141351 1.0
C      1  0.1267143933371  0.5297000857538  0.6641196003171 1.0
C      1  0.1679208774037  0.4346738302543  0.6461595955357 1.0
C      1  0.1296884532031  0.3541558250791  0.5928262817157 1.0
C      1  0.1754905471172  0.3123397300629  0.5070310266963 1.0
C      1  0.1471047574202  0.3253021290683  0.4103367779609 1.0
C      1  0.2141727370110  0.3817315781487  0.3571483120618 1.0
C      1  0.8451933689897  0.5424533115957  0.6148772733841 1.0
C      1  0.8887463618556  0.4622104674897  0.5961525074648 1.0
C      1  0.8383667986944  0.4042481830770  0.5336813351929 1.0
C      1  0.9014588384649  0.3504446541636  0.4775969486877 1.0
C      1  0.8628956759148  0.3723173871375  0.3962221026038 1.0
C      1  0.9117677500579  0.3997132089484  0.3226351478476 1.0
C      1  0.8963711494895  0.4995720490949  0.3101798585806 1.0
C      1  0.8331855153787  0.5305778365848  0.3957743329638 1.0
C      1  0.8825608050457  0.5865768138074  0.4624110366441 1.0
C      1  0.8230806846818  0.6117301026720  0.5437737354373 1.0
C      1  0.8900217969904  0.6220591199029  0.6216768216161 1.0
C      1  0.3146904056067  0.5199997695623  0.3447713700009 1.0
C      1  0.3291016094704  0.6096083948608  0.3910405125297 1.0
C      1  0.2823340045632  0.6544820715407  0.4658289358932 1.0
C      1  0.3236812761523  0.6527042957459  0.5635379510342 1.0
C      1  0.2828756695679  0.5985573381516  0.6326172290927 1.0
C      1  0.3152653479855  0.5071815181892  0.6195989371124 1.0
C      1  0.2629303730708  0.4352755546301  0.6203861173380 1.0
C      1  0.3168287359212  0.3590887244718  0.5884447686713 1.0
C      1  0.2832754522995  0.3203187878399  0.4990268468593 1.0
C      1  0.3072898734631  0.3565695352199  0.4020571995755 1.0
C      1  0.3642574587551  0.4374217750075  0.3778268099944 1.0
C      1  0.1543671815143  0.6187145768074  0.2863981792558 1.0
C      1  0.1598349432239  0.7219838729137  0.3943929271264 1.0
C      1  0.1579340580437  0.7498790775530  0.5412200062579 1.0
C      1  0.1709304550005  0.6860992003941  0.6850940209510 1.0
C      1  0.1648576494707  0.5482559426162  0.7624805628224 1.0
C      1  0.1736859423140  0.4005170896446  0.7396261752664 1.0
C      1  0.1587475771769  0.2730013066308  0.6592103957457 1.0
C      1  0.1600629682404  0.2143734226515  0.5209597088960 1.0
C      1  0.1675668480970  0.2329184471189  0.3708293862021 1.0
C      1  0.2082121793925  0.3371006851804  0.2685820384277 1.0
C      1  0.1966874848232  0.4830057210059  0.2334662944825 1.0
C      1  0.6413662488108  0.0525981889252  0.3790292361919 1.0
C      1  0.6532883521559  0.1741391014210  0.1359170819317 1.0
C      1  0.6376216875991  0.3973760280898  0.0514231709119 1.0
C      1  0.6122400847314  0.7278777803415  0.0571314481253 1.0
C      1  0.5861859416425  0.9139650030230  0.1465897813572 1.0
C      1  0.6459815893400  0.8995848449274  0.5046513238261 1.0
C      1  0.6226328583603  0.8955092887942  0.7199810753980 1.0
C      1  0.6278680407770  0.7567782404557  0.8994731439796 1.0
C      1  0.6423821340591  0.5450447571931  0.9772679395829 1.0
C      1  0.6280904927067  0.1502819347453  0.8854768223972 1.0
C      1  0.6539481017000  0.0731290541464  0.6650590909090 1.0
C      1  0.4070546506570  0.2394178760230  0.5695575227278 1.0
C      1  0.3940861147467  0.2189360086277  0.4217880520646 1.0
C      1  0.4262485295396  0.3140166766088  0.2897450907812 1.0
C      1  0.4412986085177  0.4745581821684  0.2442168201486 1.0
C      1  0.4005053157339  0.6310589635677  0.2523133990549 1.0
C      1  0.3981775977069  0.7292948242132  0.3712525867819 1.0
C      1  0.4009504975034  0.7631767410096  0.5156309661198 1.0
C      1  0.4060687916323  0.7090109713778  0.6667438862949 1.0
C      1  0.4208485355444  0.5748316271546  0.7347851502484 1.0
C      1  0.4149781179322  0.4289006238322  0.8165777675395 1.0
C      1  0.3972925441198  0.2991256128778  0.7242901123592 1.0
C      1  0.2350762551485  0.4442535243172  0.8917248520854 1.0
C      1  0.2673063223206  0.2955264308710  0.7982147162064 1.0
C      1  0.2549539917295  0.1304850555320  0.6188963644773 1.0
C      1  0.2479605451753  0.1040890370679  0.4483613424715 1.0
C      1  0.2640828883012  0.1825424926207  0.2424119654574 1.0
C      1  0.2625759639920  0.3707970934997  0.1177129148572 1.0
C      1  0.2114634709624  0.6227661538571  0.1334847334807 1.0
C      1  0.2615414682093  0.7377542838161  0.2630010906262 1.0
C      1  0.2680301285237  0.8337529429815  0.4248586661774 1.0
C      1  0.2662762928823  0.8205181152775  0.6362843112084 1.0
C      1  0.2873805742373  0.6524227734230  0.8033732067190 1.0
C      1  0.6456234727905  0.5406463726620  0.6786895335533 1.0
C      1  0.6617850052236  0.4517507676544  0.7154808648566 1.0
C      1  0.7246548219221  0.3872006003532  0.6668634054892 1.0
C      1  0.7600353781538  0.3517064972204  0.5793729775595 1.0
C      1  0.7019269441405  0.3245104463807  0.4977028146472 1.0
C      1  0.7020938892712  0.3898346130689  0.4144587443144 1.0
C      1  0.6964938179120  0.5199642954370  0.2945876304220 1.0
C      1  0.7523175310349  0.5855760392281  0.3495123808506 1.0
C      1  0.6987867966257  0.6682051633339  0.3862924520904 1.0
C      1  0.6781219895930  0.7142565302544  0.4777617673423 1.0
C      1  0.7150642121978  0.6572554872240  0.5521669292907 1.0
C      1  0.4872384470823  0.2197547555121  0.1498511349890 1.0
C      1  0.5377845875772  0.3713769641177  0.1883631062530 1.0
C      1  0.4652712964829  0.6749064471907  0.1255004512545 1.0
C      1  0.4281128668007  0.9127052289943  0.1902805650664 1.0
C      1  0.4667594384745  0.9242787455943  0.4964684515492 1.0
C      1  0.4813237588203  0.8502254770128  0.7273405936984 1.0
C      1  0.4726843267674  0.7166438308950  0.8198774338245 1.0
C      1  0.5244603404545  0.5451045220862  0.8534676405234 1.0
C      1  0.4993472077864  0.2347952651484  0.8281020274679 1.0
C      1  0.4867138051694  0.1278126834266  0.6443273808715 1.0
C      1  0.4793558986248  0.0744803641537  0.3914008271108 1.0
C      1  0.6104605991196  0.3096790290240  0.5323083133377 1.0
C      1  0.6119311116141  0.4274368799731  0.3870779596414 1.0
C      1  0.6035180755014  0.4937607735932  0.3099102506339 1.0
C      1  0.5640893508388  0.5667390665425  0.3620508441330 1.0
C      1  0.6025466482559  0.6425960957349  0.3902031084114 1.0
C      1  0.5753934956644  0.6740716870334  0.4843211229788 1.0
C      1  0.6150463626306  0.6165319341278  0.5552330440670 1.0
C      1  0.5739474080212  0.5665474932312  0.6203926087581 1.0
C      1  0.5765525932151  0.4080662258739  0.7514273627757 1.0
C      1  0.5577853423743  0.3277834565741  0.7071636811934 1.0
C      1  0.5633797298209  0.3122226395150  0.6121866239671 1.0
C      1  0.3105582252614  0.1378583044831  0.7860170313210 1.0
C      1  0.2913279235560  0.0999234047402  0.5361550090598 1.0
C      1  0.3139516518282  0.1140515199144  0.2897428855329 1.0
C      1  0.3138381178211  0.2909336349861  0.1172151175944 1.0
C      1  0.3006218288843  0.5223877859639  0.0127270012551 1.0
C      1  0.3274437168722  0.7345211745766  0.0469638005607 1.0
C      1  0.3018561208023  0.8659095411038  0.3299208179981 1.0
C      1  0.2943572332194  0.8984382959118  0.5745859689372 1.0
C      1  0.2890702242227  0.8259707938970  0.8154532790530 1.0
C      1  0.3409405471950  0.7207692200408  0.9457872026377 1.0
C      1  0.2775741050497  0.3756119852578  0.9503510757708 1.0
C      1  0.0566850825673  0.3659851699545  0.4071483756624 1.0
C      1  0.0066381377319  0.4019628922597  0.3269218792902 1.0
C      1  0.9966391927832  0.4959878999469  0.3298361915146 1.0
C      1  0.0425707003549  0.5338658216932  0.4093205988837 1.0
C      1  0.9786300048626  0.5982238194347  0.4632293147437 1.0
C      1  0.0286441547130  0.6361655423358  0.5364558861537 1.0
C      1  0.9831680842102  0.6180952761175  0.6208668096272 1.0
C      1  0.0266554716904  0.5334394736909  0.6486733088234 1.0
C      1  0.9812458793942  0.4550297591671  0.6174972099974 1.0
C      1  0.0414165483150  0.3956105035621  0.5592820360739 1.0
C      1  0.9942396837365  0.3519277173491  0.4847135757500 1.0
C      1  0.7964643681938  0.7090996394973  0.2619023479833 1.0
C      1  0.7430618142990  0.8219775228623  0.3833942245326 1.0
C      1  0.7655111449587  0.8012205679501  0.5674759342944 1.0
C      1  0.7387657575984  0.6894484152188  0.7083611171231 1.0
C      1  0.7364983029627  0.5590641368894  0.7985336762534 1.0
C      1  0.7746681328297  0.3918145406069  0.8138033247650 1.0
C      1  0.7960351444174  0.2526745395620  0.7034555475472 1.0
C      1  0.8057732017927  0.2071544110880  0.5325622304248 1.0
C      1  0.7683125758745  0.2519606361733  0.3678696813717 1.0
C      1  0.7483497955736  0.3719357408714  0.2489599112781 1.0
C      1  0.8375043796877  0.5313850474261  0.2334077168643 1.0
C      1  0.6994139933065  0.6221867743299  0.9435265566713 1.0
C      1  0.7520022859219  0.4113269827973  0.9367100540092 1.0
C      1  0.6949955483167  0.1226205035846  0.7325157277173 1.0
C      1  0.7967999017353  0.0649032010904  0.5887987729656 1.0
C      1  0.7820855100605  0.1118490707600  0.3172971266358 1.0
C      1  0.7031789398210  0.3319605171910  0.0865240657300 1.0
C      1  0.7646052865557  0.5155838138164  0.0909149684187 1.0
C      1  0.7680545463149  0.7775740730039  0.1130710522001 1.0
C      1  0.7172989683699  0.9183850752484  0.2510035858183 1.0
C      1  0.7806147998402  0.8960053828412  0.5899848967407 1.0
C      1  0.6910442056400  0.7852106424754  0.8306834334342 1.0
C      1  0.3564862345170  0.2795702428760  0.6447116111458 1.0
C      1  0.3438172714129  0.2418446911364  0.4971398007604 1.0
C      1  0.3715742072542  0.2819581071490  0.3587135156567 1.0
C      1  0.4047207039469  0.4033468422127  0.2913444672676 1.0
C      1  0.3807120654542  0.5429915752569  0.2637642038485 1.0
C      1  0.3385606872290  0.6833073209234  0.3067983009489 1.0
C      1  0.3293877592517  0.7468838605916  0.4445412931998 1.0
C      1  0.3464716605504  0.7516617310808  0.6004785807042 1.0
C      1  0.3453374497540  0.6406032740795  0.7147930689205 1.0
C      1  0.3759787207745  0.5156539249832  0.8034881996966 1.0
C      1  0.3561529473359  0.3551093048410  0.7879677355326 1.0
C      1  0.0553969488873  0.4461776389309  0.4674608321495 1.0
C      1  0.7976830857485  0.4391395391618  0.4354813007489 1.0
END
