TITL C-81104-6119-2 -3.997 3375.00 -682.26329028 0 0 84 (C1) n - 1
REM
REM Run started: at 2020.11.26 15:02:30 in /rds/project/t2_vol4/rds-t2-cs072/BORA/CARBON/AIRSS/Generating-Clusters/Str-Search/Higher-Symm
REM VASP from code version vasp.5.4.4.18Apr17-6-g9f103f2a35 (build Oct 11 2019 16:45:47) gamma-only
REM
REM
REM
REM
REM ./C.cell (e5ae0387ce4d49c7c0135a1433873289)
REM AIRSS Version 0.9.1 bugfix July 2018 build 013d7b7c2542+ Fri, 06 Jul 2018 19:26:36 +0100
REM compiler GCC version 4.8.5 20150623 (Red Hat 4.8.5-39)
REM options -cpp -mtune=generic -march=x86-64 -g -O0
REM seed -962024307 -18011587 313640780 892027409 -2019038726 -772552423 -991911965 2049290623 841550023 463314180 1635139943 1214462832
REM
REM C.POTCAR (d86ddea03c3ceb6dc662c8ad6801f873)
REM 
CELL 1.54180   15.00000   15.00000   15.00000   90.00000   90.00000   90.00000
LATT -1
SFAC C  
C      1  0.2734625147774  0.6953782085586  0.5366352915285 1.0
C      1  0.5229117703142  0.7793780029493  0.5203304154916 1.0
C      1  0.7411394674920  0.6800955815342  0.5146581477195 1.0
C      1  0.7920673470585  0.4257793765869  0.5156825851877 1.0
C      1  0.6358541285628  0.2375971721486  0.5258145889907 1.0
C      1  0.3608252376558  0.2383208448480  0.5301521733344 1.0
C      1  0.2000132741821  0.4281720437636  0.5256700585056 1.0
C      1  0.4526818730779  0.2472659441010  0.3781955591870 1.0
C      1  0.2627100835946  0.3710851327905  0.3732151447770 1.0
C      1  0.2635146877859  0.5977010553322  0.3772590450979 1.0
C      1  0.4491596700644  0.7403273034361  0.3634718848539 1.0
C      1  0.6764017380668  0.7127884209218  0.3602323765664 1.0
C      1  0.7731178812133  0.5086742436497  0.3629720528099 1.0
C      1  0.6705307510358  0.3081119105791  0.3705085454878 1.0
C      1  0.3266013456119  0.3047004173475  0.3757751807859 1.0
C      1  0.2372507862819  0.5088689859019  0.3738856334062 1.0
C      1  0.3648919490185  0.6995204277489  0.3713721616342 1.0
C      1  0.5900917357873  0.7493861190297  0.3635150609610 1.0
C      1  0.7602497004592  0.6002802052828  0.3632701017315 1.0
C      1  0.7307211882509  0.3776016206902  0.3671770584029 1.0
C      1  0.5441929044660  0.2547697723418  0.3790467574648 1.0
C      1  0.5400875743034  0.6320647319864  0.2568689563495 1.0
C      1  0.6266812028453  0.5816503041815  0.2624746762530 1.0
C      1  0.6264496948697  0.4785352147255  0.2739801143435 1.0
C      1  0.5507784865736  0.4009557253371  0.2835705537776 1.0
C      1  0.4448694329034  0.3940174364243  0.2854370708446 1.0
C      1  0.3708544071662  0.4621366601845  0.2814442767024 1.0
C      1  0.3917445932802  0.5587190827862  0.2763959658113 1.0
C      1  0.2891912437096  0.6757043312091  0.6172325673887 1.0
C      1  0.5285995721847  0.7526960782449  0.5990997375807 1.0
C      1  0.7120367503417  0.6569865795032  0.5881987633365 1.0
C      1  0.7612693940470  0.4194532666964  0.5924343983861 1.0
C      1  0.6272493778189  0.2562228675578  0.6069684215949 1.0
C      1  0.3571567393390  0.2649578099921  0.6092051724403 1.0
C      1  0.2193953217471  0.4300224335756  0.6063606157697 1.0
C      1  0.5872722257413  0.3217569380063  0.3204725804067 1.0
C      1  0.4090836467067  0.3141496412157  0.3225800545674 1.0
C      1  0.2864627294410  0.4452115801668  0.3160610423677 1.0
C      1  0.3334628451256  0.6255718802826  0.3181691080003 1.0
C      1  0.5237865312621  0.7168869968420  0.3012561071967 1.0
C      1  0.6918987394418  0.6323158372228  0.3026701060640 1.0
C      1  0.7098526025188  0.4534554654197  0.3097768235304 1.0
C      1  0.4034493711611  0.3914065586328  0.7458937802103 1.0
C      1  0.3450060261027  0.4691704029841  0.7370850003712 1.0
C      1  0.3693996176971  0.5629015147821  0.7419298007970 1.0
C      1  0.5324101629985  0.6105336713093  0.7280547698857 1.0
C      1  0.6133033894010  0.5620142031730  0.7133018014932 1.0
C      1  0.6349670066683  0.4668782531856  0.7192501639958 1.0
C      1  0.5780072936213  0.3918042096557  0.7378695776424 1.0
C      1  0.3056115999048  0.6569621450821  0.4510387304020 1.0
C      1  0.5186489981819  0.7727556920395  0.4276051116589 1.0
C      1  0.7425859757258  0.6777718580831  0.4217300142966 1.0
C      1  0.7883369928762  0.4331219668563  0.4231069979511 1.0
C      1  0.6259800725755  0.2478216365075  0.4338640131195 1.0
C      1  0.3738401374182  0.2452771002475  0.4381232580967 1.0
C      1  0.2177968555686  0.4340597009021  0.4350756130354 1.0
C      1  0.6750436344495  0.4222813831542  0.6372389114312 1.0
C      1  0.6057900501569  0.3404761843466  0.6523153232312 1.0
C      1  0.3722117030199  0.3491356409978  0.6573892234389 1.0
C      1  0.3040527491909  0.4337414579951  0.6520743018009 1.0
C      1  0.3465199932144  0.6166762243421  0.6614949612899 1.0
C      1  0.5415478646243  0.6642562900612  0.6390051620958 1.0
C      1  0.6352627738069  0.6143588285417  0.6275632086218 1.0
C      1  0.5962893340078  0.5356909081981  0.4533653241891 1.0
C      1  0.6032950974503  0.4442034551748  0.4705065344293 1.0
C      1  0.5272422322605  0.3854224630611  0.4843714767825 1.0
C      1  0.4336214438386  0.4081540869151  0.4902722929953 1.0
C      1  0.3715796335727  0.4824445411884  0.4897106590187 1.0
C      1  0.3763308668159  0.5871509246239  0.4881987314844 1.0
C      1  0.4704245391489  0.6112474126182  0.4729694516415 1.0
C      1  0.3745953557149  0.4786629260076  0.5879834865221 1.0
C      1  0.3988238207210  0.5747793654847  0.5884394346814 1.0
C      1  0.4997270049716  0.5987022971475  0.5676655170385 1.0
C      1  0.5904980547993  0.5526332714018  0.5556452150203 1.0
C      1  0.6080393904626  0.4566593457127  0.5697915400791 1.0
C      1  0.5353742396288  0.3861240594465  0.5861607275560 1.0
C      1  0.4359726743482  0.3983917218769  0.5926418383530 1.0
C      1  0.4910015541710  0.4818300874126  0.8358583588263 1.0
C      1  0.4576632278292  0.5798544772782  0.7833649908314 1.0
C      1  0.5210767977604  0.5713101197396  0.4064774217722 1.0
C      1  0.4757926935879  0.5678786246126  0.2227821704925 1.0
C      1  0.4920811453610  0.4062925443857  0.7792133304730 1.0
C      1  0.4724948353684  0.5528187161863  0.8809506198633 1.0
C      1  0.4857280436926  0.5595375775453  0.3187298164482 1.0
END
