TITL C-82498-6042-8 -5.786 3375.00 -980.23891653 0 0 120 (Cs) n - 1
REM
REM Run started: at 2020.12.31 12:25:50 in /rds/project/t2_vol4/rds-t2-cs072/BORA/CARBON/AIRSS/Generating-Clusters/Str-Search/Higher-Symm/C100-200
REM VASP from code version vasp.5.4.4.18Apr17-6-g9f103f2a35 (build Oct 11 2019 16:45:47) gamma-only
REM
REM
REM
REM
REM ./C.cell (533062f00bc710175b3da973d35f2034)
REM AIRSS Version 0.9.1 bugfix July 2018 build 013d7b7c2542+ Fri, 06 Jul 2018 19:26:36 +0100
REM compiler GCC version 4.8.5 20150623 (Red Hat 4.8.5-39)
REM options -cpp -mtune=generic -march=x86-64 -g -O0
REM seed -212310430 -1264703462 -500525229 32787533 -693062211 685676813 -1215827946 551256460 300196821 370994476 1120429101 700727695
REM
REM C.POTCAR (d86ddea03c3ceb6dc662c8ad6801f873)
REM 
CELL 1.54180   15.00000   15.00000   15.00000   90.00000   90.00000   90.00000
LATT -1
SFAC C  
C      1  0.7070502764699  0.4265820574019  0.7105257622632 1.0
C      1  0.6682279651980  0.7551991601604  0.4230641686355 1.0
C      1  0.6725854428002  0.3435761269364  0.3363102177033 1.0
C      1  0.2928997817984  0.4265740921803  0.7104842515524 1.0
C      1  0.3317903696532  0.7551840085176  0.4230391287323 1.0
C      1  0.3274723586148  0.3435519469290  0.3362807161183 1.0
C      1  0.5462656054822  0.7779553337204  0.3513068878916 1.0
C      1  0.5455380583142  0.2852616086738  0.3238726347428 1.0
C      1  0.5492746195994  0.4116322976656  0.7712383302624 1.0
C      1  0.4537595867232  0.7779409315116  0.3512921714845 1.0
C      1  0.4545193922730  0.2852389990721  0.3238573092599 1.0
C      1  0.4506822695216  0.4116351963096  0.7712121097283 1.0
C      1  0.6832415961529  0.7323141519017  0.6510580832659 1.0
C      1  0.7429639893777  0.5111692935247  0.2479931259032 1.0
C      1  0.7260735702214  0.3381159591291  0.6680921520162 1.0
C      1  0.3167229502863  0.7323015454800  0.6510202456307 1.0
C      1  0.2570931942188  0.5111654442497  0.2479515068997 1.0
C      1  0.2738860643839  0.3381182918195  0.6680507199151 1.0
C      1  0.4508584107918  0.8608750357233  0.5009809581991 1.0
C      1  0.4484244554007  0.3917801131642  0.1849089458994 1.0
C      1  0.4509524611142  0.2255649587227  0.7727542476189 1.0
C      1  0.5491419503913  0.8608831963126  0.5009926670559 1.0
C      1  0.5516327608386  0.3917806325381  0.1849173446441 1.0
C      1  0.5489540113605  0.2255536829375  0.7727793219514 1.0
C      1  0.2810475023464  0.3111806571127  0.4904784431035 1.0
C      1  0.2933985871388  0.5826116128637  0.6953601498218 1.0
C      1  0.2984122185118  0.6413619785938  0.3480393579879 1.0
C      1  0.7189622358769  0.3112070303098  0.4905298829740 1.0
C      1  0.7065422109613  0.5826094388762  0.6953918540776 1.0
C      1  0.7016219344750  0.6413666823755  0.3480728448826 1.0
C      1  0.6036978571129  0.6160576168719  0.3854161180526 1.0
C      1  0.6599281022004  0.2440580663639  0.4623200550754 1.0
C      1  0.6187358692692  0.5608430851802  0.7167619315786 1.0
C      1  0.3963348372493  0.6160502422462  0.3854097314348 1.0
C      1  0.3400742880925  0.2440175177646  0.4622860271975 1.0
C      1  0.3812184564200  0.5608541289063  0.7167364814828 1.0
C      1  0.5985883984330  0.1875993334003  0.5117145987617 1.0
C      1  0.5996157646303  0.7144867329657  0.7021944368080 1.0
C      1  0.5886293107658  0.5951597008978  0.2270114281256 1.0
C      1  0.4014227940538  0.1875837719200  0.5116791709479 1.0
C      1  0.4003368686453  0.7145144435715  0.7021637560766 1.0
C      1  0.4114109618468  0.5951538447131  0.2270001359673 1.0
C      1  0.2460920919242  0.3531897467418  0.5726809678703 1.0
C      1  0.2643162249972  0.6544559370524  0.6373272943100 1.0
C      1  0.2440034862012  0.5615368596710  0.3232251444517 1.0
C      1  0.7539001081449  0.3532155385168  0.5727472513599 1.0
C      1  0.7356407749346  0.6544669666812  0.6373909993386 1.0
C      1  0.7560358024930  0.5615442703685  0.3232637290488 1.0
C      1  0.2051202241824  0.4380111899924  0.5425784474374 1.0
C      1  0.2094006833316  0.6069836315397  0.5689978206563 1.0
C      1  0.2060461248362  0.5418986759662  0.4129493005268 1.0
C      1  0.7948853161850  0.4380224610130  0.5426528063365 1.0
C      1  0.7905850672172  0.6069937529310  0.5690539088963 1.0
C      1  0.7939785892542  0.5419066628974  0.4130043347282 1.0
C      1  0.2433348283488  0.5017966579624  0.6825883674307 1.0
C      1  0.2615897444013  0.6898723728207  0.4279929793200 1.0
C      1  0.2843622174586  0.3858513652154  0.4200722983784 1.0
C      1  0.7566197263198  0.5018075885586  0.6826336029605 1.0
C      1  0.7384229082839  0.6898844042511  0.4280392388354 1.0
C      1  0.7156755279472  0.3858873739550  0.4201019304191 1.0
C      1  0.4528249372937  0.2265017792348  0.5823644926956 1.0
C      1  0.4464239478446  0.6258346991412  0.6711786883401 1.0
C      1  0.4289393069518  0.5568648509141  0.3107378729420 1.0
C      1  0.5471653028095  0.2265095810929  0.5823889240862 1.0
C      1  0.5535457901497  0.6258280380055  0.6711942907347 1.0
C      1  0.5711011262181  0.5568697541904  0.3107453279947 1.0
C      1  0.2105879919269  0.6220055590064  0.4750139564686 1.0
C      1  0.2139342108672  0.4541145640652  0.4478508111757 1.0
C      1  0.1984308981854  0.5138118649594  0.6001796802499 1.0
C      1  0.7894183771041  0.6220199049403  0.4750668308039 1.0
C      1  0.7860919553418  0.4541253579019  0.4479133757060 1.0
C      1  0.8015465405260  0.5138363379859  0.6002294026350 1.0
C      1  0.4494116373812  0.4565154584065  0.3248960187911 1.0
C      1  0.4467275067012  0.3116259200836  0.6356668170219 1.0
C      1  0.4540551042292  0.6345476645482  0.5617542839661 1.0
C      1  0.5506305081339  0.4565188181997  0.3249004812750 1.0
C      1  0.5532463490723  0.3116238704138  0.6356895721663 1.0
C      1  0.5459407802157  0.6345488290560  0.5617698166005 1.0
C      1  0.3798643446667  0.4655365323031  0.7448909893405 1.0
C      1  0.3805892518481  0.7078569686070  0.3483295703174 1.0
C      1  0.3695272828003  0.2675434483842  0.3711980008745 1.0
C      1  0.6200983207079  0.4655211516074  0.7449083485828 1.0
C      1  0.6194363486082  0.7078669287881  0.3483460232258 1.0
C      1  0.6305092305375  0.2675726670016  0.3712322545337 1.0
C      1  0.6940574538755  0.4730900089127  0.1878371415422 1.0
C      1  0.6988715268635  0.2573410225821  0.7114727225044 1.0
C      1  0.6672538945726  0.8125341977450  0.6061939326673 1.0
C      1  0.3060031290725  0.4730749765915  0.1878027974108 1.0
C      1  0.3010656926040  0.2573264697346  0.7114053116706 1.0
C      1  0.3326971534049  0.8125184324376  0.6061336229423 1.0
C      1  0.4146671696352  0.3703342764811  0.2817457833832 1.0
C      1  0.4491517074161  0.3180462870544  0.7375151190355 1.0
C      1  0.4073469495210  0.8170500516937  0.4275629219998 1.0
C      1  0.5853735952128  0.3703506438776  0.2817620000595 1.0
C      1  0.5507932188614  0.3180364562130  0.7375262121769 1.0
C      1  0.5926644133904  0.8170574532488  0.4275799929236 1.0
C      1  0.5419491981969  0.1251910519405  0.4711306015416 1.0
C      1  0.5429524571470  0.7633736937273  0.7508811420950 1.0
C      1  0.5455690479990  0.6241732848142  0.1609802470956 1.0
C      1  0.4580956836018  0.1251881239175  0.4711254888602 1.0
C      1  0.4569922220708  0.7633867748425  0.7508753190163 1.0
C      1  0.4544520863449  0.6241647501354  0.1609557388215 1.0
C      1  0.3922034509078  0.8624805320324  0.5744325583289 1.0
C      1  0.3757752407281  0.4351063214613  0.1491695965606 1.0
C      1  0.3561889329671  0.2101255251374  0.7558645133206 1.0
C      1  0.6077714030326  0.8624964598236  0.5744618240943 1.0
C      1  0.6242885819138  0.4351070661601  0.1491989642777 1.0
C      1  0.6437352421431  0.2101239982647  0.7558918046188 1.0
C      1  0.3704984589311  0.4338456748642  0.4649765905793 1.0
C      1  0.3828704977403  0.4484801873768  0.5615296411386 1.0
C      1  0.3691101405873  0.5209029703782  0.5101172899455 1.0
C      1  0.6295104561569  0.4338627820742  0.4650076410644 1.0
C      1  0.6171278601141  0.4484881645402  0.5615381083875 1.0
C      1  0.6309057392389  0.5208928271888  0.5101343040581 1.0
C      1  0.4030176333834  0.6021562735736  0.4861559638519 1.0
C      1  0.4547741907992  0.4330935077352  0.4194250565494 1.0
C      1  0.4544406195372  0.4028723147918  0.5988455450292 1.0
C      1  0.5969910391237  0.6021651830763  0.4861714142992 1.0
C      1  0.5452487547487  0.4330970047829  0.4194288493505 1.0
C      1  0.5455393225578  0.4028686963021  0.5988689742359 1.0
END
