TITL C-8388-7422-10 -5.166 3375.00 -886.17346467 0 0 109 (C1) n - 1
REM
REM Run started: at 2020.12.27 09:47:08 in /gpfs/home/chem/mssmkc/CARBON/AIRSS/Generating-Clusters/Str-Search/Higher-Symm/C100-200
REM VASP from code version vasp.5.4.4.18Apr17-6-g9f103f2a35 (build Oct 11 2019 16:45:47) gamma-only
REM
REM
REM
REM
REM ./C.cell (533062f00bc710175b3da973d35f2034)
REM AIRSS Version 0.9.1 bugfix July 2018 build 013d7b7c2542+ Fri, 06 Jul 2018 19:26:36 +0100
REM compiler GCC version 6.3.0
REM options -cpp -iprefix /gpfs/warwick/csc/orac/software/Core/GCCcore/6.3.0/bin/../lib/gcc/x86_64-pc-linux-gnu/6.3.0/ -mtune=generic -march=x86-64 -g -O0
REM seed 164316609 1913826586 -151266446 1826209649 873708077 1368792641 833644984 325267894 285237366 -1784270778 -403213747 564488135
REM
REM C.POTCAR (d86ddea03c3ceb6dc662c8ad6801f873)
REM 
CELL 1.54180   15.00000   15.00000   15.00000   90.00000   90.00000   90.00000
LATT -1
SFAC C  
C      1  0.5974919838115  0.5677263921218  0.2701234149603 1.0
C      1  0.6465348733110  0.5676960309241  0.7024559590878 1.0
C      1  0.2483312234657  0.5706660830484  0.5279035318264 1.0
C      1  0.4005749849149  0.4349556590687  0.2755304905150 1.0
C      1  0.3544599050273  0.4348590404546  0.6974746213572 1.0
C      1  0.7499865063839  0.4292951040530  0.5301733532499 1.0
C      1  0.4506741054041  0.5047251903168  0.3354643229818 1.0
C      1  0.6721441652084  0.4962854829501  0.5441218195431 1.0
C      1  0.3805964408033  0.5063571176361  0.6234618388362 1.0
C      1  0.5504197438841  0.5000614280778  0.3314461547337 1.0
C      1  0.3263431524591  0.5038181484405  0.5384266949499 1.0
C      1  0.6220531828250  0.4964597177493  0.6312242993067 1.0
C      1  0.6657043464020  0.3500788818220  0.3403250059318 1.0
C      1  0.5560308349571  0.3495910660504  0.7232543912036 1.0
C      1  0.2824682305206  0.3558292444723  0.4385643333292 1.0
C      1  0.3344986300173  0.6492968038313  0.3430633422428 1.0
C      1  0.4415813383634  0.6508791154582  0.7189151640576 1.0
C      1  0.7055686840673  0.6391808840723  0.4403020701452 1.0
C      1  0.4432167986525  0.4102638608986  0.4958571260647 1.0
C      1  0.5375609129424  0.3928071129501  0.4518136724154 1.0
C      1  0.5306600920414  0.3912365500390  0.5523102655643 1.0
C      1  0.5408808363295  0.5652007047187  0.4955582861850 1.0
C      1  0.4614640657642  0.6113093298292  0.4561598468116 1.0
C      1  0.4677564994414  0.6185386928747  0.5461868866679 1.0
C      1  0.1744775903530  0.4166012591253  0.4929432052115 1.0
C      1  0.6692789121970  0.4156656808238  0.2222419660167 1.0
C      1  0.6551461462509  0.4153374248695  0.7876820477499 1.0
C      1  0.8171039020825  0.5826921142273  0.4929779180740 1.0
C      1  0.3292405682813  0.5861962402331  0.2245939868050 1.0
C      1  0.3428234735434  0.5851666929499  0.7828780045875 1.0
C      1  0.5897290835399  0.4225566409144  0.3756950215480 1.0
C      1  0.5658194164649  0.4193583205407  0.6400265994252 1.0
C      1  0.3482443111843  0.4285742091239  0.4845960139009 1.0
C      1  0.4109544231724  0.5797052815421  0.3808931301282 1.0
C      1  0.4334041735188  0.5843933784396  0.6313613391060 1.0
C      1  0.6410858988571  0.5653503890364  0.4859355542815 1.0
C      1  0.6078592377283  0.3444914995889  0.2588828707337 1.0
C      1  0.6557004665892  0.3443721707215  0.7148393444061 1.0
C      1  0.2379602171601  0.3476573990064  0.5285571015442 1.0
C      1  0.3890481891603  0.6581237571894  0.2587186509279 1.0
C      1  0.3414647634691  0.6579435964686  0.7134027674398 1.0
C      1  0.7525946230766  0.6494858300659  0.5293808845803 1.0
C      1  0.4700050225562  0.7012656091103  0.2783739974703 1.0
C      1  0.6976838936740  0.6975490256713  0.5880499034079 1.0
C      1  0.3178949401925  0.7028531303298  0.6339060865388 1.0
C      1  0.5267291787954  0.3015699242086  0.2803912674897 1.0
C      1  0.2969587976834  0.3029374152435  0.5871434921317 1.0
C      1  0.6781981667150  0.2987889346794  0.6342529538481 1.0
C      1  0.3297380522305  0.4890780072218  0.7792052955909 1.0
C      1  0.3410745947982  0.4905494530499  0.2143663614207 1.0
C      1  0.8288973719081  0.4866797644760  0.5057308758881 1.0
C      1  0.6691463847456  0.5118405736787  0.7850160281255 1.0
C      1  0.6577015607615  0.5112357514071  0.2099982404360 1.0
C      1  0.1672314633783  0.5130044438369  0.5063460470451 1.0
C      1  0.6655294825973  0.7146883673578  0.3994142429843 1.0
C      1  0.4984322814299  0.7249396963322  0.7040762377044 1.0
C      1  0.3208766290450  0.7228450347837  0.4015710507941 1.0
C      1  0.3263276930785  0.2819695013851  0.3979718434027 1.0
C      1  0.4984647326488  0.2768327112914  0.7043258603608 1.0
C      1  0.6776444527497  0.2771780518717  0.4003240333568 1.0
C      1  0.4685109429472  0.7714190821108  0.3564923542017 1.0
C      1  0.6327600772167  0.7678944009567  0.5473088633752 1.0
C      1  0.3870344575896  0.7729289817333  0.5967343461925 1.0
C      1  0.5285613431313  0.2303323385312  0.3572748712195 1.0
C      1  0.3618139436007  0.2316558023366  0.5467262370803 1.0
C      1  0.6096487327730  0.2284485956766  0.5970261000367 1.0
C      1  0.6105481695581  0.7240492308890  0.3226646178815 1.0
C      1  0.5928418059742  0.7275855662187  0.6902877353955 1.0
C      1  0.2853957747681  0.7285642271803  0.4897167496507 1.0
C      1  0.3860141794760  0.2769096950824  0.3241025547955 1.0
C      1  0.4045102625084  0.2751981564700  0.6877204300368 1.0
C      1  0.7106905665815  0.2723635272854  0.4899102980204 1.0
C      1  0.4226395164405  0.2122607471865  0.6140736997592 1.0
C      1  0.4394135091568  0.2128387151526  0.3765911415032 1.0
C      1  0.6372566178493  0.2102078383758  0.5102827288888 1.0
C      1  0.5734230851219  0.7890873949224  0.6153636438425 1.0
C      1  0.5576105652192  0.7886260654986  0.3760386899433 1.0
C      1  0.3595912712596  0.7913177301208  0.5097781687056 1.0
C      1  0.2655586396840  0.6684861131109  0.5580951681246 1.0
C      1  0.5611504019908  0.6651769097139  0.2704582356109 1.0
C      1  0.6602831357200  0.6653061695071  0.6719611069961 1.0
C      1  0.7312293263160  0.3321410111204  0.5588508754793 1.0
C      1  0.4359158452381  0.3378048892154  0.2744560537215 1.0
C      1  0.3376129790379  0.3374576416060  0.6687235776930 1.0
C      1  0.6224089253844  0.7782041799233  0.4528722104562 1.0
C      1  0.4742237504420  0.7845007643491  0.6361033348307 1.0
C      1  0.3917607021301  0.7828539646613  0.4139088202864 1.0
C      1  0.3719110034610  0.2208454014489  0.4521790680107 1.0
C      1  0.5219385996571  0.2181094927891  0.6353573750201 1.0
C      1  0.6056418575376  0.2187616400242  0.4136165896884 1.0
C      1  0.7344609044911  0.3984704711751  0.2914173065492 1.0
C      1  0.5618511361968  0.3988046275292  0.8066543094458 1.0
C      1  0.2042708465285  0.4008377710946  0.4023601853552 1.0
C      1  0.2642509189744  0.6023516473172  0.2945895726429 1.0
C      1  0.4359866285596  0.6008802616544  0.8018677058254 1.0
C      1  0.7859946325998  0.5984233369803  0.4034852984255 1.0
C      1  0.3996901153112  0.4332975491015  0.7938152340194 1.0
C      1  0.2942654993672  0.4346803856632  0.2683048927621 1.0
C      1  0.8079468949549  0.4306878820214  0.4373451469060 1.0
C      1  0.5983391897885  0.5669350343691  0.7967535407943 1.0
C      1  0.7039843554776  0.5669942674158  0.2644656391393 1.0
C      1  0.1893593972597  0.5687931945619  0.4385993385744 1.0
C      1  0.4887558848641  0.4534156903551  0.8280477101786 1.0
C      1  0.2193534246546  0.4546159374846  0.3276777337930 1.0
C      1  0.7897285448850  0.4533684239114  0.3433532596691 1.0
C      1  0.5081120209585  0.5470294352083  0.8270227089576 1.0
C      1  0.7760871086869  0.5464194767396  0.3265593416783 1.0
C      1  0.2072690376067  0.5481490694325  0.3445536317183 1.0
C      1  0.5117580384492  0.4741073421277  0.5018110806893 1.0
END
