TITL C-83418-6146-7 -7.432 3375.00 -1313.81691438 0 0 159 (C1) n - 1
REM
REM Run started: at 2020.12.31 12:08:40 in /rds/project/t2_vol4/rds-t2-cs072/BORA/CARBON/AIRSS/Generating-Clusters/Str-Search/Higher-Symm/C100-200
REM VASP from code version vasp.5.4.4.18Apr17-6-g9f103f2a35 (build Oct 11 2019 16:45:47) gamma-only
REM
REM
REM
REM
REM ./C.cell (533062f00bc710175b3da973d35f2034)
REM AIRSS Version 0.9.1 bugfix July 2018 build 013d7b7c2542+ Fri, 06 Jul 2018 19:26:36 +0100
REM compiler GCC version 4.8.5 20150623 (Red Hat 4.8.5-39)
REM options -cpp -mtune=generic -march=x86-64 -g -O0
REM seed -1898977269 -2130765918 1293481046 2017223947 1203643789 902698966 -945376058 1716256690 45691503 2120069700 -1535045605 -887208885
REM
REM C.POTCAR (d86ddea03c3ceb6dc662c8ad6801f873)
REM 
CELL 1.54180   15.00000   15.00000   15.00000   90.00000   90.00000   90.00000
LATT -1
SFAC C  
C      1  0.7015277636164  0.6200157080167  0.5500218713421 1.0
C      1  0.3003170513166  0.6226372644696  0.4493708800668 1.0
C      1  0.3010812882749  0.3751944304861  0.5489308053001 1.0
C      1  0.7111428777611  0.3729886061482  0.4457014522654 1.0
C      1  0.5506824654560  0.6196928054213  0.6995731509703 1.0
C      1  0.4499043462746  0.6224375425648  0.2994743135982 1.0
C      1  0.5539548544328  0.3732458863240  0.2893150710026 1.0
C      1  0.4503379309124  0.3750359283118  0.6984273653148 1.0
C      1  0.5391882551488  0.4057922668344  0.6659304517659 1.0
C      1  0.4697831747326  0.4157700525292  0.3291515111275 1.0
C      1  0.4672861000090  0.5832337396684  0.6637987701440 1.0
C      1  0.5394209355334  0.5887643110909  0.3295225921812 1.0
C      1  0.6714122361242  0.4155626131517  0.5304444457535 1.0
C      1  0.3340535744474  0.4056925757733  0.4606796381309 1.0
C      1  0.6678601733540  0.5803100014029  0.4644558743991 1.0
C      1  0.3325410890819  0.5923854828375  0.5369438480919 1.0
C      1  0.6695684683212  0.5416642556178  0.1577092775423 1.0
C      1  0.3364648293785  0.5289020478366  0.8290581187255 1.0
C      1  0.3367082260977  0.4629440346253  0.1771504140328 1.0
C      1  0.6587817079491  0.4673496843950  0.8311417279881 1.0
C      1  0.1668536909213  0.5293373230867  0.6611583608295 1.0
C      1  0.8409614307379  0.5424697293209  0.3277955252266 1.0
C      1  0.1701272505807  0.4673348414489  0.3406523322263 1.0
C      1  0.8243803208472  0.4630916473049  0.6625289768720 1.0
C      1  0.6731390861032  0.5217312637632  0.3940966051989 1.0
C      1  0.3353523748230  0.5245255574465  0.5988807153224 1.0
C      1  0.3357770978620  0.4736268826556  0.3972724019476 1.0
C      1  0.6726497732765  0.4733556656509  0.6016651474870 1.0
C      1  0.4001283849928  0.5245246957566  0.6667791942184 1.0
C      1  0.6063242435584  0.5229551565673  0.3279017495868 1.0
C      1  0.4003611087572  0.4753320971341  0.3297440722658 1.0
C      1  0.6055106526899  0.4716545311902  0.6663732286100 1.0
C      1  0.5038389778736  0.2183640179294  0.2780536400323 1.0
C      1  0.4691788480597  0.2240201907281  0.7444300821461 1.0
C      1  0.4713210700122  0.7750738391258  0.2572987162814 1.0
C      1  0.5226646167345  0.7727184362478  0.7400138479462 1.0
C      1  0.2546231390228  0.2236215327378  0.5308753869991 1.0
C      1  0.7219447500912  0.2182269386095  0.4958205207998 1.0
C      1  0.2563478932207  0.7744032868430  0.4728639087481 1.0
C      1  0.7396429105680  0.7746067440182  0.5247905243128 1.0
C      1  0.8034570607139  0.4439318590566  0.3244456486695 1.0
C      1  0.1939657935564  0.4361756577208  0.6482028490845 1.0
C      1  0.1977596132171  0.5570348435922  0.3493035584580 1.0
C      1  0.8049452801941  0.5576221362403  0.6547919703690 1.0
C      1  0.3492891318538  0.4347370534523  0.8042967677060 1.0
C      1  0.6735227519504  0.4450031392107  0.1962169296189 1.0
C      1  0.3454639368382  0.5571314632065  0.1975239905479 1.0
C      1  0.6504058303445  0.5570766325411  0.8040950034479 1.0
C      1  0.5529150303010  0.3554932437324  0.8269125530438 1.0
C      1  0.4323040145248  0.3436681668691  0.1842327487795 1.0
C      1  0.4296216129700  0.6532064082804  0.8193536351771 1.0
C      1  0.5659650308284  0.6542992231933  0.1801770588717 1.0
C      1  0.8160759583897  0.3434835857063  0.5671247668233 1.0
C      1  0.1725100103605  0.3554951666919  0.4465489938358 1.0
C      1  0.8180987077724  0.6540348483043  0.4319385120819 1.0
C      1  0.1782618032095  0.6539233622184  0.5678822562893 1.0
C      1  0.2886719117075  0.8004180001549  0.5597826604778 1.0
C      1  0.7063980737018  0.8031032747070  0.4392713557149 1.0
C      1  0.7012885487820  0.1845818438309  0.5822553498823 1.0
C      1  0.2768453851850  0.1924342609982  0.4442367380867 1.0
C      1  0.5574424520204  0.8030386491962  0.2906558833669 1.0
C      1  0.4366182307686  0.8001969501161  0.7083451970586 1.0
C      1  0.5558689687760  0.1925988730428  0.7225740161099 1.0
C      1  0.4174466998517  0.1845851437461  0.2988425177944 1.0
C      1  0.3720539162895  0.4369249169012  0.7043790128162 1.0
C      1  0.6332580490630  0.4349510758719  0.2833215213031 1.0
C      1  0.6324360371451  0.5617513140411  0.7056439623120 1.0
C      1  0.3683466794824  0.5648894576452  0.2943836918088 1.0
C      1  0.7169783109618  0.4342894846371  0.3655887742772 1.0
C      1  0.2960077312448  0.4380064058152  0.6254462875912 1.0
C      1  0.7078291357735  0.5637159770950  0.6331100090851 1.0
C      1  0.2959576064322  0.5629975030859  0.3694626557505 1.0
C      1  0.8553143632487  0.5668450981360  0.4236584357062 1.0
C      1  0.1415433936753  0.5654494066180  0.5741235034009 1.0
C      1  0.1398120129004  0.4436203278944  0.4323270255392 1.0
C      1  0.8510422998079  0.4358319280063  0.5729622011295 1.0
C      1  0.4238386427315  0.5651503657329  0.8558048202950 1.0
C      1  0.5742432379313  0.5665265207553  0.1433522533716 1.0
C      1  0.4259401226508  0.4359182780987  0.1493626119398 1.0
C      1  0.5666899989978  0.4433691973118  0.8601915152848 1.0
C      1  0.3451776563411  0.3160497654561  0.2247153418623 1.0
C      1  0.6383568167250  0.3227470910115  0.7873045266348 1.0
C      1  0.6477105688699  0.6842377143254  0.2185423129507 1.0
C      1  0.3484582125152  0.6772735613834  0.7781151449552 1.0
C      1  0.2120113770161  0.3223097908256  0.3613906734678 1.0
C      1  0.7755841987920  0.3163014767725  0.6544395716364 1.0
C      1  0.2184200258085  0.6780054339124  0.6491378940069 1.0
C      1  0.7787166763500  0.6839302192519  0.3503901121574 1.0
C      1  0.7840269399630  0.6127295104912  0.2838078073339 1.0
C      1  0.2193205188243  0.5981005288445  0.7085629992059 1.0
C      1  0.2185693368045  0.3950963208440  0.2970323596415 1.0
C      1  0.7735565343299  0.3934482162460  0.7128669080425 1.0
C      1  0.2885305184729  0.5978884846815  0.7775406925936 1.0
C      1  0.7137239615047  0.6124977817169  0.2148188775648 1.0
C      1  0.2869410789930  0.3931219108134  0.2271272428425 1.0
C      1  0.7029287367080  0.3954535817408  0.7813979499836 1.0
C      1  0.6575475613111  0.7726423758795  0.5899264878821 1.0
C      1  0.3400334615737  0.7736578228985  0.4075568970439 1.0
C      1  0.3408857573456  0.2237880654403  0.5914673721851 1.0
C      1  0.6457019526382  0.2203366681282  0.4228596926704 1.0
C      1  0.5893835771558  0.7725531960723  0.6574162474498 1.0
C      1  0.4076508938060  0.7731282488052  0.3405587344447 1.0
C      1  0.5770652145198  0.2202991444650  0.3542112796936 1.0
C      1  0.4085617239189  0.2238507446268  0.6581737336558 1.0
C      1  0.3382159668862  0.2434937809300  0.2875683381526 1.0
C      1  0.6411505212270  0.2475021519953  0.7304934886710 1.0
C      1  0.6452335915869  0.7539558386878  0.2830922647439 1.0
C      1  0.3496668683286  0.7493087581829  0.7165032103014 1.0
C      1  0.2688094153213  0.2471728262160  0.3587751866097 1.0
C      1  0.7124841134667  0.2438022929129  0.6613298356092 1.0
C      1  0.2807483607010  0.7493963555021  0.6472048546098 1.0
C      1  0.7149310847044  0.7542996907088  0.3519628609093 1.0
C      1  0.3767304824181  0.6891557534596  0.4462095947955 1.0
C      1  0.6257871391232  0.6851190416400  0.5549347112522 1.0
C      1  0.6279838291905  0.3154332946460  0.4403167200609 1.0
C      1  0.3781289709408  0.3086582642329  0.5507672476401 1.0
C      1  0.4477141360348  0.6875453736581  0.3766829459193 1.0
C      1  0.5565552158007  0.6856641409968  0.6240768296129 1.0
C      1  0.4484770038827  0.3089305427109  0.6208035616836 1.0
C      1  0.5593899985288  0.3152334145742  0.3720994861914 1.0
C      1  0.4762504256615  0.3584519141030  0.4085921843693 1.0
C      1  0.5411155184153  0.3385715542762  0.6019814526872 1.0
C      1  0.5411455076047  0.6590373666796  0.3916611341079 1.0
C      1  0.4729598032195  0.6435719980535  0.5860784343995 1.0
C      1  0.3965843852758  0.3368320994970  0.4576619765381 1.0
C      1  0.5919502426114  0.3591755834208  0.5232529955198 1.0
C      1  0.3925283732979  0.6637615344363  0.5400927732277 1.0
C      1  0.5910387120511  0.6416036208227  0.4701587859217 1.0
C      1  0.5710895660570  0.8588168517395  0.3673053487578 1.0
C      1  0.4220151343113  0.8581181438520  0.6338071610305 1.0
C      1  0.3993425697772  0.1221454234629  0.3673037869184 1.0
C      1  0.5732971699919  0.1257607060307  0.6578372900930 1.0
C      1  0.3633218275158  0.8581355602521  0.5753448822516 1.0
C      1  0.6299178261324  0.8590834209109  0.4258527135243 1.0
C      1  0.3422006433704  0.1262156580542  0.4269544529912 1.0
C      1  0.6331337233873  0.1220291516405  0.6008454280083 1.0
C      1  0.5747812306617  0.6023591837815  0.8437706929132 1.0
C      1  0.4217205921571  0.5974303249357  0.1572738926601 1.0
C      1  0.3860286533941  0.3602528822350  0.8410642083405 1.0
C      1  0.7145248979077  0.4542260244839  0.1206378596126 1.0
C      1  0.8430694126965  0.5970868446300  0.5766317034029 1.0
C      1  0.1561675061596  0.6025153288466  0.4232858646355 1.0
C      1  0.8790349548341  0.4552759475648  0.2845970190702 1.0
C      1  0.1598464600844  0.3603733674136  0.6133634021661 1.0
C      1  0.4633461738204  0.3187589487053  0.7887628166180 1.0
C      1  0.5074091506131  0.3039253621132  0.2304572912294 1.0
C      1  0.5220313320262  0.6766280232120  0.7883147327511 1.0
C      1  0.4731852832739  0.6770354306285  0.2108832874227 1.0
C      1  0.7698494478921  0.3035772552056  0.4921725378362 1.0
C      1  0.2101671307253  0.3184218749272  0.5361249223956 1.0
C      1  0.7876296555110  0.6760422622228  0.5242022177004 1.0
C      1  0.2093865799187  0.6780699465592  0.4749074287016 1.0
C      1  0.4833587374300  0.5249783227725  0.1368355295620 1.0
C      1  0.1311291637472  0.5311213379929  0.4838492819263 1.0
C      1  0.8627407962550  0.5247411218576  0.5147769100713 1.0
C      1  0.5141865817862  0.5307442845204  0.8677635311915 1.0
C      1  0.5190670720414  0.5836628108792  0.5169699299826 1.0
C      1  0.5205122026325  0.4188216963665  0.4781053185672 1.0
C      1  0.5031716122130  0.5008126967006  0.4984531645221 1.0
END
