TITL C-83418-6146-4 -7.216 3375.00 -1194.95391034 0 0 148 (C1) n - 1
REM
REM Run started: at 2020.12.31 07:01:29 in /rds/project/t2_vol4/rds-t2-cs072/BORA/CARBON/AIRSS/Generating-Clusters/Str-Search/Higher-Symm/C100-200
REM VASP from code version vasp.5.4.4.18Apr17-6-g9f103f2a35 (build Oct 11 2019 16:45:47) gamma-only
REM
REM
REM
REM
REM ./C.cell (533062f00bc710175b3da973d35f2034)
REM AIRSS Version 0.9.1 bugfix July 2018 build 013d7b7c2542+ Fri, 06 Jul 2018 19:26:36 +0100
REM compiler GCC version 4.8.5 20150623 (Red Hat 4.8.5-39)
REM options -cpp -mtune=generic -march=x86-64 -g -O0
REM seed 2078787546 201438169 -61497102 715310307 -769451513 1614745336 1455419714 -1781120058 -1211578866 1634734550 2032190833 -443971084
REM
REM C.POTCAR (d86ddea03c3ceb6dc662c8ad6801f873)
REM 
CELL 1.54180   15.00000   15.00000   15.00000   90.00000   90.00000   90.00000
LATT -1
SFAC C  
C      1  0.1826976244513  0.5398057964483  0.2941636560821 1.0
C      1  0.8378630226496  0.5390441398320  0.3272336240681 1.0
C      1  0.4820594196083  0.5391670873051  0.8764991064516 1.0
C      1  0.5473710519986  0.3062141876367  0.8168184299457 1.0
C      1  0.1982860965330  0.3058982541564  0.3802170970822 1.0
C      1  0.7520689574470  0.3061392094232  0.3001213728948 1.0
C      1  0.1755673301290  0.7174671197893  0.4689058970521 1.0
C      1  0.6896370633717  0.7166939844818  0.2336918852965 1.0
C      1  0.6369441175948  0.7169877688415  0.7958593285776 1.0
C      1  0.4438574988525  0.4722770063342  0.3112344314858 1.0
C      1  0.6924959022583  0.4710777324615  0.5434917842182 1.0
C      1  0.3656096456452  0.4716502947346  0.6415530672479 1.0
C      1  0.5180367543515  0.3219275261440  0.2129872662341 1.0
C      1  0.7394632803794  0.3202817838756  0.6569528909823 1.0
C      1  0.2416387557674  0.3219678809344  0.6257282676238 1.0
C      1  0.7239192402587  0.2334491693743  0.3514521657089 1.0
C      1  0.5156522009484  0.2340563233427  0.7669817598919 1.0
C      1  0.2569863561798  0.2339863147212  0.3787928278827 1.0
C      1  0.7114675924248  0.5691585759003  0.8308822100169 1.0
C      1  0.1071147006229  0.5700732163162  0.5144709534179 1.0
C      1  0.6839882944856  0.5693199132188  0.1511606686436 1.0
C      1  0.6377076967263  0.2142050035803  0.3661995233996 1.0
C      1  0.5456553047858  0.2143574683823  0.6849684043577 1.0
C      1  0.3138276772537  0.2161535259867  0.4457631277672 1.0
C      1  0.7792644545882  0.4028998060939  0.6502922543335 1.0
C      1  0.2293315835028  0.4049432755905  0.6634278305299 1.0
C      1  0.4927010132926  0.4050494092346  0.1829061688392 1.0
C      1  0.1688469241325  0.3896297056497  0.3402764912658 1.0
C      1  0.8029202746596  0.3889473914531  0.2935321060118 1.0
C      1  0.5284964551418  0.3890824694629  0.8640872316894 1.0
C      1  0.2465788664515  0.4539023801210  0.7498137954244 1.0
C      1  0.4095292412013  0.4544728524467  0.1542594234464 1.0
C      1  0.8458867766462  0.4542289244032  0.5934412834934 1.0
C      1  0.3071610487139  0.5821361087292  0.3835589546786 1.0
C      1  0.6980372376327  0.5814416576869  0.3900930773606 1.0
C      1  0.4980788024634  0.5814731858813  0.7243375823791 1.0
C      1  0.2435656356520  0.7739979292191  0.5108616195092 1.0
C      1  0.6192317055556  0.7734078641929  0.2711595657746 1.0
C      1  0.6389463008990  0.7741727060469  0.7162306992919 1.0
C      1  0.6994851002130  0.4638527106645  0.6411513604064 1.0
C      1  0.2778704867827  0.4650465462405  0.5991934608899 1.0
C      1  0.5246494694868  0.4658480457141  0.2564714077216 1.0
C      1  0.5238778892825  0.8192376336127  0.5924719489168 1.0
C      1  0.4083323561429  0.8194116556752  0.4727743440940 1.0
C      1  0.5695327028136  0.8190390709350  0.4325857882181 1.0
C      1  0.4150261514461  0.4992629322227  0.4848459633473 1.0
C      1  0.5557931379914  0.4990481716871  0.4324073045935 1.0
C      1  0.5311895783825  0.4989056293187  0.5800747659108 1.0
C      1  0.8283656011407  0.6262467279336  0.6318759906108 1.0
C      1  0.2216049518446  0.6258650194776  0.7175890633908 1.0
C      1  0.4507761897597  0.6263560725810  0.1484590524020 1.0
C      1  0.2594300783085  0.3322903051413  0.5263940908090 1.0
C      1  0.5948042524706  0.3300357143247  0.2781759254437 1.0
C      1  0.6444636629789  0.3293937348148  0.6909441409921 1.0
C      1  0.3684719647412  0.6929658720332  0.6575971576543 1.0
C      1  0.4299077995954  0.6936720426930  0.3054949317424 1.0
C      1  0.7038441699423  0.6938622689480  0.5349840921730 1.0
C      1  0.7477535066339  0.6936446168420  0.3040951685301 1.0
C      1  0.5471227310429  0.6937360206690  0.8108688989659 1.0
C      1  0.2079213005466  0.6939796620860  0.3837589842834 1.0
C      1  0.5924516208633  0.8211645813903  0.5252458968693 1.0
C      1  0.4322941838398  0.8207432469144  0.5657732121001 1.0
C      1  0.4770469560358  0.8211667519989  0.4065809496391 1.0
C      1  0.7757841029246  0.8056211544006  0.5915237333744 1.0
C      1  0.2835120776620  0.8047059678851  0.6916236354067 1.0
C      1  0.4428503199089  0.8052288893336  0.2146637711441 1.0
C      1  0.6793675601371  0.4859901097211  0.1990626380724 1.0
C      1  0.6721955334532  0.4855720149390  0.8035281437646 1.0
C      1  0.1498242441402  0.4862296585006  0.4944782950929 1.0
C      1  0.3571020828197  0.6608044908693  0.3536399902091 1.0
C      1  0.6990667715253  0.6603890624645  0.4480425329856 1.0
C      1  0.4466276592354  0.6601118614618  0.6967500867346 1.0
C      1  0.4452801967300  0.1941593274149  0.5256436443533 1.0
C      1  0.5018738641120  0.1940193991430  0.4389393815223 1.0
C      1  0.5488504780533  0.1939919602619  0.5312378196242 1.0
C      1  0.5839196848510  0.2865619822223  0.5415018748151 1.0
C      1  0.4195824268942  0.2873587824250  0.5502093271645 1.0
C      1  0.4939997549295  0.2869300757027  0.4041722181751 1.0
C      1  0.7062409501892  0.7308155973161  0.3831257255648 1.0
C      1  0.4990170595139  0.7307212679247  0.7353772650090 1.0
C      1  0.2973491278296  0.7311600479881  0.3800190433923 1.0
C      1  0.7659387928415  0.4317672127622  0.2151880809261 1.0
C      1  0.6149089852949  0.4316964766874  0.8711490532679 1.0
C      1  0.1210390127185  0.4322806278063  0.4119916247875 1.0
C      1  0.8524050013558  0.5481668032345  0.6215589045084 1.0
C      1  0.2196601008783  0.5481694689552  0.7452008516787 1.0
C      1  0.4276421764078  0.5486270636935  0.1332971548124 1.0
C      1  0.8509766543526  0.4405201277372  0.4515714277380 1.0
C      1  0.3687875578858  0.4408840644433  0.8242083907384 1.0
C      1  0.2840227805140  0.4411937034147  0.2222182325333 1.0
C      1  0.7680456657613  0.6960855037806  0.6094364311184 1.0
C      1  0.2716765188910  0.6951520693333  0.6760682133476 1.0
C      1  0.4618678619003  0.6958342294139  0.2123344176785 1.0
C      1  0.6976134775803  0.6497996125144  0.8203084599585 1.0
C      1  0.1234944311447  0.6506477045488  0.5088892028833 1.0
C      1  0.6814758887770  0.6499082402731  0.1685799210989 1.0
C      1  0.1794445519087  0.3251216467369  0.4771202889944 1.0
C      1  0.6778184941027  0.3237801626521  0.2353622404153 1.0
C      1  0.6406162759076  0.3230738155269  0.7843687853109 1.0
C      1  0.6815362705877  0.1715305882592  0.6282878197849 1.0
C      1  0.2943296183955  0.1730598841433  0.5915075841372 1.0
C      1  0.5211268894981  0.1721966330297  0.2760590198457 1.0
C      1  0.4557221312492  0.4517095180863  0.8668133107638 1.0
C      1  0.2035974748134  0.4522733209955  0.2761547679366 1.0
C      1  0.8428240051336  0.4514952769718  0.3547888226418 1.0
C      1  0.6871709215712  0.3893937892005  0.8332276657858 1.0
C      1  0.1119890056192  0.3906059558747  0.4939386564790 1.0
C      1  0.6974128489663  0.3899222187948  0.1705522745202 1.0
C      1  0.4414272780803  0.4487845306922  0.5816692693991 1.0
C      1  0.4578443222765  0.4487104781960  0.4066566184884 1.0
C      1  0.6022910630646  0.4481428389018  0.5085060847168 1.0
C      1  0.3640115653746  0.7846018389256  0.6272970721132 1.0
C      1  0.4576919598700  0.7854586966375  0.3164426388386 1.0
C      1  0.6801661672456  0.7856717291447  0.5535303444733 1.0
C      1  0.2509323082625  0.4922051948052  0.5142097970817 1.0
C      1  0.6113176543014  0.4932246737601  0.2758711806548 1.0
C      1  0.6397446809842  0.4925771347493  0.7061586091272 1.0
C      1  0.7804189854036  0.4644443501887  0.5130185853374 1.0
C      1  0.3487539916519  0.4662160162177  0.7338226982262 1.0
C      1  0.3723401919817  0.4666864569034  0.2507171180236 1.0
C      1  0.3209322595141  0.5283199644517  0.4591662490626 1.0
C      1  0.6250632734011  0.5284227279936  0.3640524341042 1.0
C      1  0.5564893201706  0.5282569559164  0.6739639507142 1.0
C      1  0.6061030495087  0.3478723633627  0.4773714555409 1.0
C      1  0.4652955262882  0.3483248909745  0.6011438702938 1.0
C      1  0.4278893558094  0.3487508341823  0.4179432971466 1.0
C      1  0.6351609249889  0.7913586764857  0.3646862080320 1.0
C      1  0.5498873308851  0.7920141673769  0.6834517214018 1.0
C      1  0.3165437170768  0.7921909647019  0.4501654337347 1.0
C      1  0.3498976235891  0.3094201451621  0.4831517962585 1.0
C      1  0.5871202072481  0.3080401248938  0.3779949517680 1.0
C      1  0.5608975729113  0.3079505644863  0.6352024873497 1.0
C      1  0.7771454451809  0.6023748221982  0.3273600129817 1.0
C      1  0.5128806909590  0.6023964325447  0.8242540945054 1.0
C      1  0.2132932539649  0.6031290082449  0.3464671531787 1.0
C      1  0.2826850495066  0.4072913630867  0.8351686689019 1.0
C      1  0.3170421735708  0.4091092549854  0.1413963422579 1.0
C      1  0.9098169531312  0.4160088342089  0.5195154066077 1.0
C      1  0.7116612141195  0.7731419072297  0.6554589495557 1.0
C      1  0.2602097570176  0.7720236255027  0.6041519252254 1.0
C      1  0.5303313408290  0.7728164755664  0.2379661201456 1.0
C      1  0.7450312153207  0.2258193420070  0.6419335105110 1.0
C      1  0.2507381522880  0.2278258567884  0.6392488422530 1.0
C      1  0.5014618931423  0.2277731275241  0.2153414161163 1.0
C      1  0.3488607896999  0.1540422402866  0.5188474834899 1.0
C      1  0.5569406631588  0.1529277988734  0.3597523559128 1.0
C      1  0.5909683643206  0.1528326352220  0.6179268145546 1.0
C      1  0.5007328773936  0.5548813044241  0.4990840717573 1.0
END
