TITL C-8388-7422-38 -5.888 3375.00 -1046.41516424 0 0 127 (C1) n - 1
REM
REM Run started: at 2020.12.28 08:18:15 in /gpfs/home/chem/mssmkc/CARBON/AIRSS/Generating-Clusters/Str-Search/Higher-Symm/C100-200
REM VASP from code version vasp.5.4.4.18Apr17-6-g9f103f2a35 (build Oct 11 2019 16:45:47) gamma-only
REM
REM
REM
REM
REM ./C.cell (533062f00bc710175b3da973d35f2034)
REM AIRSS Version 0.9.1 bugfix July 2018 build 013d7b7c2542+ Fri, 06 Jul 2018 19:26:36 +0100
REM compiler GCC version 6.3.0
REM options -cpp -iprefix /gpfs/warwick/csc/orac/software/Core/GCCcore/6.3.0/bin/../lib/gcc/x86_64-pc-linux-gnu/6.3.0/ -mtune=generic -march=x86-64 -g -O0
REM seed 1862314262 -454678221 -1207430057 1609777638 -1945155810 -1918344572 310497078 116694685 -1867157876 872284907 -529757371 -315652341
REM
REM C.POTCAR (d86ddea03c3ceb6dc662c8ad6801f873)
REM 
CELL 1.54180   15.00000   15.00000   15.00000   90.00000   90.00000   90.00000
LATT -1
SFAC C  
C      1  0.4138502221946  0.6640855012795  0.7225699911816 1.0
C      1  0.6158843239025  0.6468976924535  0.7384336175753 1.0
C      1  0.6510346670591  0.4281293181091  0.7219866820396 1.0
C      1  0.4797146372987  0.3329326721967  0.7305487600464 1.0
C      1  0.3007320370237  0.4755061167271  0.7603467331130 1.0
C      1  0.5154357231967  0.4336531634571  0.5247793060918 1.0
C      1  0.4334223309368  0.4788626978618  0.5558022659182 1.0
C      1  0.4622269531736  0.5735437786024  0.5422226003313 1.0
C      1  0.5623373127237  0.5730957549150  0.5276520937874 1.0
C      1  0.5967066096764  0.4847651978549  0.5568382567381 1.0
C      1  0.3985681126006  0.8254090235313  0.5297232798781 1.0
C      1  0.7179494065531  0.6891513711241  0.5992853416016 1.0
C      1  0.7152400483847  0.2785659428448  0.5251745080638 1.0
C      1  0.4292131545295  0.2106554261328  0.5972563325833 1.0
C      1  0.1913529556297  0.4419708201468  0.6027227749120 1.0
C      1  0.5462907874273  0.2560732906967  0.4903874432431 1.0
C      1  0.3155428659104  0.3443392312989  0.5197572302881 1.0
C      1  0.3158426438550  0.6657090412537  0.5071179305628 1.0
C      1  0.6176671350917  0.7435219483267  0.4980726874532 1.0
C      1  0.7740990805265  0.4713750902121  0.5424069547186 1.0
C      1  0.2977492746803  0.4510264789881  0.2743423367829 1.0
C      1  0.4192388007092  0.7276987024787  0.2247752671342 1.0
C      1  0.7283952487702  0.5940899302543  0.2322320971583 1.0
C      1  0.6805838917329  0.4317336747933  0.2581767471831 1.0
C      1  0.4098889615787  0.2616787731565  0.2046199021309 1.0
C      1  0.2812331587181  0.4953055125351  0.5063539366774 1.0
C      1  0.4580372548643  0.7354425910531  0.5175934741221 1.0
C      1  0.7291788933494  0.6426198790990  0.5105602491400 1.0
C      1  0.6715077539569  0.3596436123020  0.5625905663638 1.0
C      1  0.3866726108455  0.1887004850528  0.5171057760287 1.0
C      1  0.3527446715749  0.4404511709049  0.5276409818563 1.0
C      1  0.4166066134620  0.6485511141638  0.4925206896378 1.0
C      1  0.6207553405182  0.6414223439783  0.4806219994380 1.0
C      1  0.6758722287603  0.4478844813211  0.5131033395297 1.0
C      1  0.5163106295207  0.3519812126541  0.4687752657775 1.0
C      1  0.6032415208382  0.3793079024512  0.2429510413820 1.0
C      1  0.4018894128229  0.3487155738090  0.2014078194230 1.0
C      1  0.3197279860275  0.5420334899737  0.2529192872613 1.0
C      1  0.4874464303566  0.6715225906445  0.2427552223520 1.0
C      1  0.6536343240792  0.5310568926167  0.2498140239516 1.0
C      1  0.2831417861762  0.6634601452710  0.6045278983310 1.0
C      1  0.6348277088519  0.7338948971505  0.6004496780530 1.0
C      1  0.7847821075567  0.4945088834773  0.6414634469854 1.0
C      1  0.5292271172543  0.2337535684843  0.5944662201315 1.0
C      1  0.2393692512417  0.3678288923083  0.6448683725885 1.0
C      1  0.7385532763940  0.4220033660285  0.3406668600355 1.0
C      1  0.4238270600299  0.2184434224150  0.2842668527662 1.0
C      1  0.2307840787559  0.4168122922097  0.3306742320515 1.0
C      1  0.3747992751930  0.7575407406065  0.2958091164187 1.0
C      1  0.7504972053490  0.6552725183750  0.2937793573782 1.0
C      1  0.4596326993964  0.6309938979476  0.7997552459682 1.0
C      1  0.5573838339382  0.6275017783314  0.8060096245061 1.0
C      1  0.6047052793030  0.4159690686390  0.8014285299892 1.0
C      1  0.5196290087337  0.3697740150326  0.8063430722106 1.0
C      1  0.3323378463543  0.4714942659774  0.8445651767111 1.0
C      1  0.4161425231177  0.4785913438307  0.8805909747877 1.0
C      1  0.4559740188247  0.5652057474277  0.8708527360833 1.0
C      1  0.5537838132520  0.5600664841061  0.8758803624669 1.0
C      1  0.5766571048521  0.4713753424818  0.8782349558927 1.0
C      1  0.4915577195687  0.4195572395583  0.8845559868024 1.0
C      1  0.5375479628476  0.4378363141853  0.1984567940830 1.0
C      1  0.4393575194322  0.4373427347962  0.1841390060310 1.0
C      1  0.4066405279758  0.5349584533110  0.1967313256316 1.0
C      1  0.4884691816095  0.5843021979595  0.2024313852362 1.0
C      1  0.5643656684824  0.5261027102189  0.2030886601687 1.0
C      1  0.4286598075905  0.6298690674998  0.3895234736339 1.0
C      1  0.6060593680017  0.6355520976813  0.3779150987164 1.0
C      1  0.6706908866473  0.4738813210934  0.4038367703719 1.0
C      1  0.5135549603774  0.3730683553589  0.3794210342520 1.0
C      1  0.4493558523005  0.4418638212614  0.3466534207411 1.0
C      1  0.6542296444805  0.2875633885281  0.3740975070812 1.0
C      1  0.2937434678403  0.2468759605287  0.3945704485290 1.0
C      1  0.2250968395723  0.5698849167248  0.3876830900536 1.0
C      1  0.5000897833071  0.7777853712966  0.3792085733026 1.0
C      1  0.8280277708003  0.5596372515871  0.4180321951951 1.0
C      1  0.6391942514769  0.2622155502338  0.4614567567574 1.0
C      1  0.3098282212605  0.2444089424492  0.4984633737102 1.0
C      1  0.2538494713865  0.5891340966838  0.4852949554560 1.0
C      1  0.5321392522502  0.7845977078608  0.4719337411659 1.0
C      1  0.7992420523750  0.5675837171453  0.5175037652682 1.0
C      1  0.5437210017232  0.3132259545849  0.6600801944809 1.0
C      1  0.3068329579111  0.3886598609911  0.7128347862081 1.0
C      1  0.3239255114639  0.6348057868054  0.6876625492112 1.0
C      1  0.5757198377451  0.7098633601229  0.6734116369502 1.0
C      1  0.7132380620364  0.5020135619757  0.7066514529759 1.0
C      1  0.2096264108470  0.5308054823823  0.6380147242358 1.0
C      1  0.4517641518600  0.7821207113590  0.6024953183399 1.0
C      1  0.7643534123527  0.6408661167768  0.6635002265064 1.0
C      1  0.6944181634846  0.2016735781482  0.5874691725632 1.0
C      1  0.3655855643501  0.2630154882414  0.6458382641635 1.0
C      1  0.6168363577304  0.1834618284539  0.6125324604104 1.0
C      1  0.2834915225580  0.2878130496456  0.5972115087836 1.0
C      1  0.2117048510462  0.6061976811892  0.5786103496478 1.0
C      1  0.4940359163308  0.8552350328237  0.5396941998339 1.0
C      1  0.8225562981562  0.5775873092231  0.6201793280943 1.0
C      1  0.3619946842773  0.1944743700180  0.3577670489454 1.0
C      1  0.1887048182793  0.4832424471220  0.3896895979747 1.0
C      1  0.4139202058512  0.8146700502876  0.3630644980011 1.0
C      1  0.8077081450143  0.6419357446384  0.3726110802611 1.0
C      1  0.7376469422040  0.3300027313132  0.3764802384183 1.0
C      1  0.5102333052281  0.2309256712520  0.3265169967016 1.0
C      1  0.2422707809155  0.3302980411364  0.3804698180711 1.0
C      1  0.3351902828913  0.6821188076767  0.3509183912625 1.0
C      1  0.6800780465413  0.7008622211306  0.3522416926841 1.0
C      1  0.8173941470790  0.4678131695319  0.3932634061807 1.0
C      1  0.4768364941370  0.7234147867369  0.6760568907706 1.0
C      1  0.6998367612002  0.5969628576737  0.7216767698427 1.0
C      1  0.6232628456698  0.3664248547709  0.6494309192814 1.0
C      1  0.3825884268618  0.3258223512661  0.7119456085616 1.0
C      1  0.2709645607336  0.5514186222642  0.7086761778659 1.0
C      1  0.4195911643962  0.1654313107899  0.4330551771854 1.0
C      1  0.1965920138658  0.4447881545071  0.4895555273059 1.0
C      1  0.3546275970640  0.8085094667622  0.4454152260653 1.0
C      1  0.7610958127175  0.6991742083557  0.4362983388956 1.0
C      1  0.7833789352427  0.3230160377583  0.4595364653976 1.0
C      1  0.2828318949707  0.6036037876788  0.3179065716306 1.0
C      1  0.5129774732265  0.6795645449864  0.3444250835109 1.0
C      1  0.6334200564004  0.5420225346825  0.3520625122912 1.0
C      1  0.5739678607880  0.3123331356121  0.3168938959469 1.0
C      1  0.3879231157321  0.4101561028982  0.2767379705449 1.0
C      1  0.6937661229623  0.7660502253244  0.4234920007777 1.0
C      1  0.8172886632485  0.4113421152621  0.4731299260277 1.0
C      1  0.5044490867652  0.1997486821590  0.4163882491094 1.0
C      1  0.2340879780294  0.3609047591524  0.4666902264588 1.0
C      1  0.3030486579319  0.7322651724475  0.4342857072726 1.0
C      1  0.5033595690273  0.5164887618060  0.4647727117490 1.0
C      1  0.4537385121340  0.5274604929584  0.3841550136017 1.0
END
