TITL C-83418-6146-5 -8.205 3375.00 -1486.44920818 0 0 179 (C1) n - 1
REM
REM Run started: at 2020.12.31 09:44:50 in /rds/project/t2_vol4/rds-t2-cs072/BORA/CARBON/AIRSS/Generating-Clusters/Str-Search/Higher-Symm/C100-200
REM VASP from code version vasp.5.4.4.18Apr17-6-g9f103f2a35 (build Oct 11 2019 16:45:47) gamma-only
REM
REM
REM
REM
REM ./C.cell (533062f00bc710175b3da973d35f2034)
REM AIRSS Version 0.9.1 bugfix July 2018 build 013d7b7c2542+ Fri, 06 Jul 2018 19:26:36 +0100
REM compiler GCC version 4.8.5 20150623 (Red Hat 4.8.5-39)
REM options -cpp -mtune=generic -march=x86-64 -g -O0
REM seed -1306553228 -1376909216 871589318 286165871 -731935870 291347484 1247016175 1337898392 1655872352 876504903 -974938656 -923606283
REM
REM C.POTCAR (d86ddea03c3ceb6dc662c8ad6801f873)
REM 
CELL 1.54180   15.00000   15.00000   15.00000   90.00000   90.00000   90.00000
LATT -1
SFAC C  
C      1  0.4557150627908  0.2162813569078  0.7812399931621 1.0
C      1  0.4865494657807  0.1449786877998  0.3189682777959 1.0
C      1  0.4572683954933  0.5401227237248  0.0691597075999 1.0
C      1  0.4581997628475  0.8978926548029  0.5061257227071 1.0
C      1  0.4496624689767  0.6418154294468  0.8457414945704 1.0
C      1  0.5496985510986  0.2212412401097  0.7737368003625 1.0
C      1  0.5761661750529  0.1649476385828  0.3421128112957 1.0
C      1  0.5523595658215  0.5183541974886  0.0717174321870 1.0
C      1  0.5513659714170  0.8979987765206  0.4923356981748 1.0
C      1  0.5434637440303  0.6358480640069  0.8524003843655 1.0
C      1  0.3214547384786  0.2966602448635  0.7549274829083 1.0
C      1  0.3372591302310  0.1844956967850  0.3614018559238 1.0
C      1  0.3330616614206  0.5242387560218  0.1688948897024 1.0
C      1  0.3245067770874  0.8041245204195  0.4643542370963 1.0
C      1  0.3166284010464  0.6984511174651  0.7552309602054 1.0
C      1  0.6829760065100  0.3115633389261  0.7787300414981 1.0
C      1  0.6858170202071  0.2140267417153  0.4435069532894 1.0
C      1  0.6535055320879  0.4992278198007  0.1836075027265 1.0
C      1  0.6691854061266  0.8229131175934  0.4149215913193 1.0
C      1  0.6829348150169  0.6387741332224  0.7652180862572 1.0
C      1  0.3097853884189  0.5343958664145  0.5560431919563 1.0
C      1  0.3344360721276  0.4308576495892  0.5720621145510 1.0
C      1  0.3432844508069  0.3957796801906  0.4723992585573 1.0
C      1  0.3168791471040  0.4760310904334  0.4119876330558 1.0
C      1  0.3181499935423  0.5670919104788  0.4548384002003 1.0
C      1  0.6982469571618  0.5835708052524  0.5464912428006 1.0
C      1  0.6854658276826  0.4830191125668  0.5613034029188 1.0
C      1  0.6973221620008  0.4265246725443  0.4735045473100 1.0
C      1  0.7056936257027  0.5020725393150  0.3938986472633 1.0
C      1  0.6995493756162  0.6024717300864  0.4395878147344 1.0
C      1  0.8303269292880  0.7191884032937  0.4537877618752 1.0
C      1  0.8299871127578  0.5519432409360  0.6412116206897 1.0
C      1  0.8546819705716  0.3793169960913  0.6725516152905 1.0
C      1  0.8418419366890  0.3792340610759  0.4327831571426 1.0
C      1  0.8095225687617  0.5637804355516  0.2738823021651 1.0
C      1  0.1830773701256  0.6451851792014  0.4864763312868 1.0
C      1  0.1686261989968  0.5191504574633  0.6632125888295 1.0
C      1  0.1811515345088  0.3661323556189  0.6084503741908 1.0
C      1  0.2143183600431  0.3641107599128  0.3898545307223 1.0
C      1  0.2270806535772  0.5100599239115  0.2922260947865 1.0
C      1  0.7287937655570  0.6766506606753  0.6925903550139 1.0
C      1  0.7207032607016  0.3957409132296  0.7998513667397 1.0
C      1  0.7161350853672  0.2489783118538  0.5259646490603 1.0
C      1  0.7091907752082  0.4474805590853  0.2336556437036 1.0
C      1  0.6960204139106  0.7604665918613  0.3531409390427 1.0
C      1  0.2794382481514  0.7593067401174  0.6966664176641 1.0
C      1  0.2876320041456  0.3813085241483  0.7442686357992 1.0
C      1  0.2708994559302  0.2256797297764  0.4207697935540 1.0
C      1  0.2716986922901  0.4667451868024  0.2165332747581 1.0
C      1  0.2921475386748  0.7355438607781  0.4041112020122 1.0
C      1  0.3268266409115  0.2262242538609  0.2781373441415 1.0
C      1  0.3451232157428  0.6201121949920  0.1917135580540 1.0
C      1  0.3141917724125  0.7952656198089  0.5637883398085 1.0
C      1  0.2944551960294  0.6033491165373  0.7248136355635 1.0
C      1  0.3086341369762  0.2648843825545  0.6587345505965 1.0
C      1  0.7275282167456  0.2794260784203  0.3921785887011 1.0
C      1  0.6170273232143  0.5929551871013  0.1926986488818 1.0
C      1  0.6834251391847  0.7665682742685  0.4969112103190 1.0
C      1  0.6831715452191  0.5341101598948  0.7786800890056 1.0
C      1  0.6474990361156  0.3571347243890  0.6435525967692 1.0
C      1  0.4267190602130  0.6712532511818  0.1665531595827 1.0
C      1  0.4138563789063  0.7716519159712  0.5967839305266 1.0
C      1  0.3821326599677  0.5744885807954  0.6953971703258 1.0
C      1  0.3938497994346  0.2179833816836  0.6294420596831 1.0
C      1  0.4057669363278  0.2661476001872  0.2367760327165 1.0
C      1  0.5371251760810  0.5756855428335  0.2655149770126 1.0
C      1  0.5926774169148  0.7536713986327  0.5365408542624 1.0
C      1  0.5854798522035  0.5165700031017  0.7606329392000 1.0
C      1  0.5608749124391  0.3518241482918  0.6116222601980 1.0
C      1  0.5238859355776  0.3225135693786  0.3480461697688 1.0
C      1  0.2461932841991  0.7391865484633  0.6077987381767 1.0
C      1  0.2518372190216  0.5309173227085  0.7811914949828 1.0
C      1  0.2377384437978  0.2277917667719  0.5919934467926 1.0
C      1  0.2536129337611  0.2870968852612  0.2655455152368 1.0
C      1  0.2956848441455  0.6549435516777  0.2643908951571 1.0
C      1  0.7490320362707  0.7776322374355  0.5720135615805 1.0
C      1  0.7415455231042  0.4631903314008  0.7276478101092 1.0
C      1  0.7105901054905  0.2819473958680  0.6829846362755 1.0
C      1  0.7497705312478  0.3253769667291  0.3133151306753 1.0
C      1  0.6784620484918  0.6635322543138  0.2290286603133 1.0
C      1  0.6807337318781  0.2171413397923  0.6062626405433 1.0
C      1  0.6928474640538  0.3530527390179  0.2395336599053 1.0
C      1  0.6476581396067  0.7417730317616  0.2722655953974 1.0
C      1  0.7066454394149  0.7638324526978  0.6574480329757 1.0
C      1  0.6775420556958  0.4591510256515  0.8540815079344 1.0
C      1  0.2823788318190  0.1948598888264  0.5171803860132 1.0
C      1  0.2864476897024  0.3663848487105  0.2117058635157 1.0
C      1  0.3224656022479  0.7335644098927  0.3143175110454 1.0
C      1  0.3342232430842  0.8320026423547  0.6632490165150 1.0
C      1  0.3041608659331  0.4521740930151  0.8061178123420 1.0
C      1  0.4526948546927  0.1395468395484  0.4799336513386 1.0
C      1  0.4362313342788  0.3910772149261  0.1372377288103 1.0
C      1  0.4388120374950  0.8412892625488  0.3527821395311 1.0
C      1  0.4677639159954  0.7785025951749  0.7530613846681 1.0
C      1  0.4420290350037  0.3659172424170  0.8489598147406 1.0
C      1  0.5507156541348  0.1444882580934  0.5071258306417 1.0
C      1  0.5383011902892  0.3820969328008  0.1754040083578 1.0
C      1  0.5336000044593  0.8451976826177  0.3359703464276 1.0
C      1  0.5650746145927  0.7623884567517  0.7454093092911 1.0
C      1  0.5413020275358  0.3649939198486  0.8603837209187 1.0
C      1  0.2130968704342  0.6595873032251  0.5729738978293 1.0
C      1  0.1642577291772  0.5105271182717  0.7556809905621 1.0
C      1  0.1602778278948  0.2812941117342  0.5862933416825 1.0
C      1  0.2029960010681  0.2793963888075  0.3457615301263 1.0
C      1  0.2391418879796  0.6010362015748  0.3164307161626 1.0
C      1  0.8296650278257  0.7493303814441  0.5339303671231 1.0
C      1  0.8330311225631  0.4730712079787  0.6826097626077 1.0
C      1  0.8055410339630  0.3125151459412  0.6722445466555 1.0
C      1  0.8102832510470  0.3931485653518  0.3405288838113 1.0
C      1  0.7610697770436  0.6273003921856  0.2507427960532 1.0
C      1  0.4270746721725  0.8392746283431  0.6854793246991 1.0
C      1  0.3894724327661  0.4485603016537  0.8500242419831 1.0
C      1  0.3824028771469  0.1875569613408  0.5336010543390 1.0
C      1  0.3725293509647  0.3369768949555  0.1747862372829 1.0
C      1  0.4013061485053  0.7785692339675  0.2946432674028 1.0
C      1  0.6193034503939  0.8021869505586  0.6727656935180 1.0
C      1  0.5874345196909  0.4467393616350  0.8842515739130 1.0
C      1  0.5942937730506  0.1670930768757  0.6006297919862 1.0
C      1  0.6107491655893  0.3140194386672  0.2167860198048 1.0
C      1  0.5589185805363  0.7808409111906  0.2682059538417 1.0
C      1  0.4433077547752  0.4151564764675  0.4627086101845 1.0
C      1  0.4364351996735  0.4913829172646  0.3921462717722 1.0
C      1  0.4251907249758  0.5786264100404  0.4470411466412 1.0
C      1  0.4196841722133  0.5483735174118  0.5447612151495 1.0
C      1  0.4374842300583  0.4525265121544  0.5606849802011 1.0
C      1  0.5941785346736  0.4304915810956  0.4627846861341 1.0
C      1  0.5989552597359  0.4991851866281  0.3902243130821 1.0
C      1  0.5910219530250  0.5928791737034  0.4329449134839 1.0
C      1  0.5910075468941  0.5909735168572  0.5347553322202 1.0
C      1  0.5833608512916  0.4884763795551  0.5488692259694 1.0
C      1  0.7552554881941  0.3360918498904  0.4709285559737 1.0
C      1  0.7706519716892  0.4796008555170  0.3080598378502 1.0
C      1  0.7361857361290  0.6970582878256  0.4235000473770 1.0
C      1  0.7647902262662  0.6119535302214  0.6245346107585 1.0
C      1  0.6908402461626  0.4383335436406  0.6476125761930 1.0
C      1  0.2838684566643  0.3260077229911  0.4388301832915 1.0
C      1  0.2328678218431  0.4523128326362  0.3691163442264 1.0
C      1  0.2486254938873  0.6373279319878  0.4150598983866 1.0
C      1  0.2427455609899  0.5793828530410  0.6276876302044 1.0
C      1  0.2793022156825  0.3739336535486  0.6411432769344 1.0
C      1  0.5432000396644  0.5327607429804  0.8525389380405 1.0
C      1  0.5462805427668  0.1694758960041  0.6828544556573 1.0
C      1  0.5678848970709  0.2490914554186  0.2813523274319 1.0
C      1  0.5700957192532  0.6065454016412  0.1041468981290 1.0
C      1  0.5684958197572  0.8384296272532  0.5829676875796 1.0
C      1  0.4430483662773  0.5355541011311  0.8394804471866 1.0
C      1  0.4511084205332  0.1756898483219  0.6938075756821 1.0
C      1  0.4829841336087  0.2061751260051  0.2454243709621 1.0
C      1  0.4751927046512  0.6314643561323  0.0994569192592 1.0
C      1  0.4700535182342  0.8519241523699  0.5949328428737 1.0
C      1  0.4374674605481  0.3394873277981  0.3064607320291 1.0
C      1  0.4706238717514  0.7266461954126  0.2449433712318 1.0
C      1  0.4587844738784  0.6882909900520  0.5966824192577 1.0
C      1  0.4415507395384  0.5259527648841  0.7396388086341 1.0
C      1  0.4340522911286  0.2692856877373  0.5572921424680 1.0
C      1  0.5082175837652  0.4021343049490  0.2794203992548 1.0
C      1  0.4977981710732  0.6469617926448  0.3063553676868 1.0
C      1  0.5437913073309  0.6782023433584  0.5539998380158 1.0
C      1  0.5223042299573  0.4929705711348  0.7010473810310 1.0
C      1  0.5143421180266  0.3056676403348  0.5380169962888 1.0
C      1  0.5904532290184  0.8738490987485  0.4083226427899 1.0
C      1  0.6031739770959  0.6867471503796  0.7962367437386 1.0
C      1  0.5951847364395  0.2929224834715  0.8143555366235 1.0
C      1  0.6086054981147  0.1603505610573  0.4301509163377 1.0
C      1  0.5877671966475  0.4548777593489  0.1309524434574 1.0
C      1  0.3989813081370  0.8599396446503  0.4380118329406 1.0
C      1  0.4072123123689  0.7125121935234  0.7942582653575 1.0
C      1  0.4002722629204  0.2867324673066  0.8091300335931 1.0
C      1  0.4214719697050  0.1412039689931  0.3888456954435 1.0
C      1  0.4038448857068  0.4820913031583  0.1161884156836 1.0
C      1  0.4999505360946  0.6360069098831  0.4044211248068 1.0
C      1  0.5220946648897  0.4455530155221  0.6145694889827 1.0
C      1  0.4194911516700  0.6086309441432  0.6156717423912 1.0
C      1  0.5263697608398  0.3565258287976  0.4484245457255 1.0
C      1  0.5214521664513  0.4915918942968  0.3226405167144 1.0
C      1  0.0518821748290  0.4524778186258  0.5616465126265 1.0
C      1  0.9821524032598  0.4362719953479  0.5160040025655 1.0
C      1  0.9120100237769  0.4135307516311  0.4734087165732 1.0
C      1  0.1280683095798  0.4484056519489  0.6069515613788 1.0
END
