TITL C-8388-7422-7 -8.397 3375.00 -1434.38822369 0 0 172 (C1) n - 1
REM
REM Run started: at 2020.12.27 08:08:33 in /gpfs/home/chem/mssmkc/CARBON/AIRSS/Generating-Clusters/Str-Search/Higher-Symm/C100-200
REM VASP from code version vasp.5.4.4.18Apr17-6-g9f103f2a35 (build Oct 11 2019 16:45:47) gamma-only
REM
REM
REM
REM
REM ./C.cell (533062f00bc710175b3da973d35f2034)
REM AIRSS Version 0.9.1 bugfix July 2018 build 013d7b7c2542+ Fri, 06 Jul 2018 19:26:36 +0100
REM compiler GCC version 6.3.0
REM options -cpp -iprefix /gpfs/warwick/csc/orac/software/Core/GCCcore/6.3.0/bin/../lib/gcc/x86_64-pc-linux-gnu/6.3.0/ -mtune=generic -march=x86-64 -g -O0
REM seed -1430725687 -46946137 1310235385 -1660703506 802253457 1178102414 -218860453 -1598101216 1410019753 1409840435 -911496720 -1731748341
REM
REM C.POTCAR (d86ddea03c3ceb6dc662c8ad6801f873)
REM 
CELL 1.54180   15.00000   15.00000   15.00000   90.00000   90.00000   90.00000
LATT -1
SFAC C  
C      1  0.8680982122340  0.5806458629677  0.5771743847573 1.0
C      1  0.6389869181411  0.5533279626270  0.8101613334166 1.0
C      1  0.5420615049792  0.8001997553510  0.6892634276410 1.0
C      1  0.0824323181989  0.6159190512203  0.4534498814404 1.0
C      1  0.1313619073134  0.3961782726073  0.5743076565970 1.0
C      1  0.8813780883088  0.3915094981529  0.4614192871228 1.0
C      1  0.3830280107494  0.5253449202684  0.1192354824399 1.0
C      1  0.3739550495297  0.4898444886593  0.8620433631169 1.0
C      1  0.6278489784009  0.4655218742592  0.1114934778375 1.0
C      1  0.4706090262752  0.8612102208720  0.3766969681218 1.0
C      1  0.4690791374197  0.1620585063575  0.6174754700619 1.0
C      1  0.5242736274141  0.1567519436929  0.3759085204449 1.0
C      1  0.6998647453682  0.7516892465749  0.8245980987107 1.0
C      1  0.7903286347823  0.7698577345130  0.6904464876482 1.0
C      1  0.8251747112198  0.6448474050641  0.7953093832304 1.0
C      1  0.3371448809156  0.7501002406107  0.2087776351892 1.0
C      1  0.3471373317668  0.2534103925564  0.7993183889996 1.0
C      1  0.6652264681622  0.2373334879146  0.2051748405118 1.0
C      1  0.2397192486271  0.7651988499028  0.3394729162151 1.0
C      1  0.2356358203398  0.2146225703613  0.6849911352231 1.0
C      1  0.7592294119177  0.2195173466191  0.3416398966852 1.0
C      1  0.2126910447232  0.6426858341301  0.2361129468911 1.0
C      1  0.2023370577823  0.3387961951000  0.7865511026610 1.0
C      1  0.7894664916791  0.3429183156545  0.2357744781482 1.0
C      1  0.5184045491111  0.7909198909540  0.4038135934776 1.0
C      1  0.8096092891936  0.4198049434579  0.5082783176566 1.0
C      1  0.3923693187315  0.5251933427122  0.7820314733894 1.0
C      1  0.4960101844128  0.7588030457702  0.6203418109422 1.0
C      1  0.4840431772659  0.2347075487893  0.3924466338455 1.0
C      1  0.5006151533265  0.2431991011192  0.5939004960432 1.0
C      1  0.1991986466882  0.3612869767813  0.4987393942695 1.0
C      1  0.1490476684854  0.5723362121889  0.5018081736688 1.0
C      1  0.7983444788348  0.6219067870106  0.5060396393513 1.0
C      1  0.6062437346474  0.5079896717258  0.1879561576245 1.0
C      1  0.6017791101245  0.5208865187959  0.7397050490396 1.0
C      1  0.4043752899333  0.4867480863800  0.1988772688884 1.0
C      1  0.3944938355052  0.1683868792727  0.6710915506693 1.0
C      1  0.1311860638588  0.6508585694933  0.3813168117293 1.0
C      1  0.6756021518518  0.3897034684416  0.1341943584391 1.0
C      1  0.6036625486170  0.1566409906012  0.3293934608500 1.0
C      1  0.6371228911191  0.8264946012128  0.6928941097768 1.0
C      1  0.3921685679667  0.8378179901325  0.3330669422934 1.0
C      1  0.8868187637067  0.6465776339430  0.6427544741957 1.0
C      1  0.8557523849079  0.3392196605578  0.3900285205664 1.0
C      1  0.1243601473779  0.3293184749549  0.6423105771659 1.0
C      1  0.3294924131768  0.4090269111378  0.8559039753789 1.0
C      1  0.3308127267314  0.5995137392412  0.1381653932702 1.0
C      1  0.6905800022272  0.5931220630767  0.8705581804524 1.0
C      1  0.3174952337404  0.7454887332567  0.6440916635867 1.0
C      1  0.7784088053138  0.6550746440873  0.3274992552265 1.0
C      1  0.6597443979804  0.3614517040690  0.7654612953108 1.0
C      1  0.6596939099236  0.7720527794902  0.3286701402814 1.0
C      1  0.6574761775577  0.2517160774031  0.6518163418134 1.0
C      1  0.3434414046181  0.2187011567014  0.3176106397780 1.0
C      1  0.2022138035340  0.6271461926913  0.6484587007031 1.0
C      1  0.2214963212018  0.3275749500939  0.3199818945249 1.0
C      1  0.7815877246815  0.3579135016240  0.6562975444974 1.0
C      1  0.3487190074351  0.3320853454886  0.2134008732488 1.0
C      1  0.3042455671138  0.6538299923160  0.7722616336197 1.0
C      1  0.6584895652667  0.6617022081913  0.2155014896290 1.0
C      1  0.5491994698888  0.7820896004649  0.7868483759596 1.0
C      1  0.7886330787075  0.7158077067309  0.5427033761060 1.0
C      1  0.7959366148369  0.4817108197086  0.7754977309166 1.0
C      1  0.5045991105489  0.7571590476939  0.2225919662388 1.0
C      1  0.5122382324547  0.2612650370182  0.7671734113101 1.0
C      1  0.4967236080929  0.2347787100602  0.2167413906989 1.0
C      1  0.2351500466841  0.7340468582698  0.4993676230133 1.0
C      1  0.2190024437363  0.2681218137685  0.5368975355577 1.0
C      1  0.7565141224277  0.2510808811154  0.5068144924769 1.0
C      1  0.2332447023074  0.4789348461911  0.2321051721003 1.0
C      1  0.2063227040364  0.5020355945487  0.7690745117878 1.0
C      1  0.7665577080276  0.5088456109587  0.2327713810406 1.0
C      1  0.6788036405916  0.2082694357330  0.4656835600203 1.0
C      1  0.1381471006775  0.4597821971271  0.7177360316227 1.0
C      1  0.4658008856888  0.6862062439607  0.1683756168897 1.0
C      1  0.3005819871715  0.2235306818191  0.5442932684216 1.0
C      1  0.3131199589969  0.7844912228575  0.4681689176722 1.0
C      1  0.7092450833317  0.7642081653315  0.5537610035640 1.0
C      1  0.8161854376256  0.4735965900732  0.3079115066608 1.0
C      1  0.8663458541193  0.5156309057084  0.7212475549027 1.0
C      1  0.1699566592758  0.5101539532540  0.2992470113766 1.0
C      1  0.5484284751591  0.6951805500841  0.8226673642772 1.0
C      1  0.5399347671134  0.3112287708903  0.1737881378671 1.0
C      1  0.4713719043328  0.3373252473223  0.8134423431733 1.0
C      1  0.8261315112183  0.4203342207276  0.6014548633901 1.0
C      1  0.3921900660770  0.6221404421144  0.7839205227102 1.0
C      1  0.6137110612127  0.7826675447673  0.4126149995825 1.0
C      1  0.1805474130257  0.3732302155981  0.3944549140219 1.0
C      1  0.1539011286448  0.5650945457965  0.5975562380951 1.0
C      1  0.8100132321729  0.6050817643839  0.4035555411509 1.0
C      1  0.5947734261397  0.6013610856868  0.1930502397275 1.0
C      1  0.5935780693317  0.4268367418704  0.7617738445169 1.0
C      1  0.4149443762400  0.3946523325270  0.2093085782146 1.0
C      1  0.4008821412879  0.7587908812443  0.5994233909702 1.0
C      1  0.3886584290839  0.2327375123242  0.4007614302974 1.0
C      1  0.5941626705524  0.2507549695713  0.5856455032467 1.0
C      1  0.2720969126018  0.4460683849424  0.4950951886613 1.0
C      1  0.4681720969538  0.5359711752553  0.2583165029362 1.0
C      1  0.5271125605420  0.3016227196993  0.4529962734172 1.0
C      1  0.7385320655258  0.4745123597367  0.4626183437770 1.0
C      1  0.7149124760439  0.5608134015582  0.5103538891195 1.0
C      1  0.2040144900141  0.5098669549282  0.4589144038875 1.0
C      1  0.5176950462693  0.5630145164220  0.7079854639369 1.0
C      1  0.5467683678538  0.4660569118269  0.2604468286694 1.0
C      1  0.4530405814338  0.4807936670945  0.7161428472903 1.0
C      1  0.4525592839202  0.3032677485896  0.5280740325863 1.0
C      1  0.4736950320105  0.7240638077871  0.4624236943270 1.0
C      1  0.5433511017857  0.7182994768207  0.5389298804196 1.0
C      1  0.1542193343738  0.6050536195400  0.3003261988634 1.0
C      1  0.6325548458453  0.3058059040496  0.1489668530865 1.0
C      1  0.3090359859720  0.1825324068033  0.6332949891387 1.0
C      1  0.8836300225125  0.6094695315865  0.7305906695127 1.0
C      1  0.8389938251335  0.3816410193433  0.3061029385545 1.0
C      1  0.1310375011922  0.3655211816234  0.7300120303874 1.0
C      1  0.3810990725421  0.3292503085644  0.8435538989365 1.0
C      1  0.3715548204652  0.6853160442519  0.1503939457034 1.0
C      1  0.6438107650636  0.6786682540339  0.8563610659905 1.0
C      1  0.6854094845025  0.1731602904834  0.3769067015288 1.0
C      1  0.7104541400093  0.8015100554706  0.6427983761933 1.0
C      1  0.3105131398852  0.8143206566500  0.3778255567785 1.0
C      1  0.2333373733231  0.5935050660086  0.7379913608518 1.0
C      1  0.6082639201399  0.7441731262883  0.2505222647198 1.0
C      1  0.7423612574620  0.2824998484737  0.6080200307945 1.0
C      1  0.7391561075809  0.6076819973696  0.2478603732632 1.0
C      1  0.7508158728409  0.3954236744341  0.7428123496907 1.0
C      1  0.2644104416535  0.3814594065260  0.2459169978707 1.0
C      1  0.3182561498445  0.7385585602816  0.7359319166808 1.0
C      1  0.3960009101170  0.2452583798263  0.2383780801365 1.0
C      1  0.6144319027943  0.2771214030800  0.7375938917884 1.0
C      1  0.2543380615850  0.2417991033361  0.3292776480433 1.0
C      1  0.2433003364413  0.7028593167506  0.5949066782722 1.0
C      1  0.7477134917528  0.7412032955700  0.3415891676897 1.0
C      1  0.2432417307685  0.4199243790120  0.8189957369454 1.0
C      1  0.4133206970139  0.7962168294962  0.2502411514208 1.0
C      1  0.8048593885325  0.2635370892408  0.4170574227563 1.0
C      1  0.7511148627871  0.4153528057554  0.1858703516958 1.0
C      1  0.7767499418024  0.5696131830260  0.8334617314713 1.0
C      1  0.2550003393267  0.5712739429403  0.1890013130955 1.0
C      1  0.6408050777202  0.8153257171989  0.7879101984734 1.0
C      1  0.5874439050447  0.1907135555944  0.2425833598771 1.0
C      1  0.4219388846537  0.2112014666962  0.7529758330834 1.0
C      1  0.1755823927289  0.2551033328216  0.6214069479936 1.0
C      1  0.1906813000395  0.7202397136276  0.4101616005196 1.0
C      1  0.8402603455088  0.7255759148780  0.6239971984547 1.0
C      1  0.6042295607851  0.2541176843038  0.4951196397124 1.0
C      1  0.1307152661757  0.4796503760978  0.6249857133227 1.0
C      1  0.5038851427116  0.6091923998566  0.2012523523695 1.0
C      1  0.3734170154374  0.2515366003330  0.4893082140842 1.0
C      1  0.3938615246761  0.7602995308489  0.5071722319210 1.0
C      1  0.6293530325210  0.7587546983359  0.5008842930345 1.0
C      1  0.7974347844495  0.5145235299582  0.3902177417631 1.0
C      1  0.8661613602544  0.4980481302336  0.6274527760123 1.0
C      1  0.1707254491004  0.4634491773349  0.3809084581046 1.0
C      1  0.4857319768993  0.6361360306503  0.7763009799179 1.0
C      1  0.5063823008873  0.3862119907832  0.2160497698687 1.0
C      1  0.5021833848173  0.4130074821211  0.7701637462185 1.0
C      1  0.5421618417927  0.6097142766269  0.5306749173406 1.0
C      1  0.6238836895622  0.5572829903983  0.5038440404061 1.0
C      1  0.5041320572333  0.5576308801009  0.6075616504513 1.0
C      1  0.4706201420793  0.6132298723898  0.4493851567358 1.0
C      1  0.4476054683529  0.4134322303828  0.5251990486470 1.0
C      1  0.5324277825551  0.4066061531266  0.4510304732951 1.0
C      1  0.4019343674945  0.5437371574344  0.4387027740081 1.0
C      1  0.3634488531582  0.4632840340403  0.4867768443894 1.0
C      1  0.6152417723482  0.4709998295470  0.4497543472811 1.0
C      1  0.4726611822196  0.5448398931005  0.3703663117651 1.0
C      1  0.4630853502671  0.4753113892522  0.6089213855413 1.0
C      1  0.5466796128668  0.4717797799434  0.3715657627208 1.0
C      1  0.7485177695809  0.2559855554161  0.2519905216185 1.0
C      1  0.2547484077366  0.2573104516838  0.7683908642318 1.0
C      1  0.2531056865620  0.7296124853844  0.2516558200291 1.0
C      1  0.7819044103253  0.7308573685196  0.7795974380245 1.0
END
