TITL C-83450-6885-5 -2.593 3375.00 -444.52057389 0 0 54 (C2) n - 1
REM
REM Run started: at 2020.11.23 23:36:20 in /rds/project/t2_vol4/rds-t2-cs072/BORA/CARBON/AIRSS/Generating-Clusters/Str-Search/Higher-Symm
REM VASP from code version vasp.5.4.4.18Apr17-6-g9f103f2a35 (build Oct 11 2019 16:45:47) gamma-only
REM
REM
REM
REM
REM ./C.cell (e5ae0387ce4d49c7c0135a1433873289)
REM AIRSS Version 0.9.1 bugfix July 2018 build 013d7b7c2542+ Fri, 06 Jul 2018 19:26:36 +0100
REM compiler GCC version 4.8.5 20150623 (Red Hat 4.8.5-39)
REM options -cpp -mtune=generic -march=x86-64 -g -O0
REM seed -982467056 51651552 -604678851 1524255722 -619401295 -1466215849 -40021559 255608391 -1307294161 -138769519 1542406361 722198896
REM
REM C.POTCAR (d86ddea03c3ceb6dc662c8ad6801f873)
REM 
CELL 1.54180   15.00000   15.00000   15.00000   90.00000   90.00000   90.00000
LATT -1
SFAC C  
C      1  0.4513683474147  0.3103216926232  0.6286483447197 1.0
C      1  0.4513696271774  0.6896803309485  0.3713504408374 1.0
C      1  0.5477863770343  0.3181453892630  0.6362474195112 1.0
C      1  0.5477867357565  0.6818543747948  0.3637500640041 1.0
C      1  0.5629511780990  0.3079235779954  0.3973309192839 1.0
C      1  0.5629536780438  0.6920754318215  0.6026666825842 1.0
C      1  0.4614943336561  0.3035323954787  0.3916111724543 1.0
C      1  0.4614984291233  0.6964666479640  0.6083863726789 1.0
C      1  0.6035449211584  0.6970688706753  0.4406529909594 1.0
C      1  0.6035423050755  0.3029298731180  0.5593451204159 1.0
C      1  0.4072624220564  0.7140251111401  0.4520137007573 1.0
C      1  0.4072594018006  0.2859765554793  0.5479857718862 1.0
C      1  0.4635212996077  0.2611231726226  0.4777475381689 1.0
C      1  0.4635244370040  0.7388764431990  0.5222511803527 1.0
C      1  0.5602823265227  0.2655883214369  0.4842834732813 1.0
C      1  0.5602860665765  0.7344112537055  0.5157148767383 1.0
C      1  0.2975938612768  0.4815003533301  0.4549565086368 1.0
C      1  0.2975957886261  0.5184989370214  0.5450436024958 1.0
C      1  0.7222580458679  0.4889942565272  0.4524104300405 1.0
C      1  0.7222583661762  0.5110017133909  0.5475912772395 1.0
C      1  0.4388602155252  0.6095400783816  0.3127285715794 1.0
C      1  0.4388617555841  0.3904606053981  0.6872713181482 1.0
C      1  0.5346357778547  0.6048481577074  0.2985700146793 1.0
C      1  0.5346382309545  0.3951547628240  0.7014297800449 1.0
C      1  0.3817563297297  0.4669633286461  0.6773501237363 1.0
C      1  0.3817548109668  0.5330383562581  0.3226505467221 1.0
C      1  0.5643904486481  0.4802466824541  0.7249590211881 1.0
C      1  0.5643894262417  0.5197541111272  0.2750442454017 1.0
C      1  0.3072423526523  0.5444127791769  0.3843442361753 1.0
C      1  0.3072465347390  0.4555869189103  0.6156550678831 1.0
C      1  0.6340061261132  0.5465666088423  0.4144443004213 1.0
C      1  0.6340068664297  0.4534320594819  0.5855587506982 1.0
C      1  0.7205461032077  0.5724962986678  0.3966676376679 1.0
C      1  0.7205455841292  0.4274994368614  0.6033342829849 1.0
C      1  0.2825273977557  0.6338571648044  0.3982852305105 1.0
C      1  0.2825285228552  0.3661431939391  0.6017157430193 1.0
C      1  0.3283967241336  0.3375961813366  0.5243561978513 1.0
C      1  0.3284002149492  0.6624045973767  0.4756431301980 1.0
C      1  0.6751465384679  0.3664479835313  0.5337531606360 1.0
C      1  0.6751501507204  0.6335505222912  0.4662466220721 1.0
C      1  0.6249255499658  0.6266466951485  0.6280758048771 1.0
C      1  0.6249243849120  0.3733541544515  0.3719236909361 1.0
C      1  0.3988741217909  0.6263583087108  0.6246911732051 1.0
C      1  0.3988713527528  0.3736431150764  0.3753088309740 1.0
C      1  0.6872213816221  0.3987587580400  0.4429582808888 1.0
C      1  0.6872244829460  0.6012392534488  0.5570426440291 1.0
C      1  0.3334571681059  0.3921335663690  0.4455274410662 1.0
C      1  0.3334608565694  0.6078654182983  0.5544703283210 1.0
C      1  0.5926528751655  0.4313078181425  0.3024802097597 1.0
C      1  0.5926550763497  0.5686950676197  0.6975206320529 1.0
C      1  0.4200140216198  0.4448667116202  0.3139020073632 1.0
C      1  0.4200160868878  0.5551345846515  0.6860995293028 1.0
C      1  0.5053936320204  0.5538984681671  0.7262076301631 1.0
C      1  0.5053933495799  0.4461035497037  0.2737959283969 1.0
END
