TITL C-83450-6885-7 -5.116 3375.00 -885.00994395 0 0 109 (C1) n - 1
REM
REM Run started: at 2020.11.24 01:08:07 in /rds/project/t2_vol4/rds-t2-cs072/BORA/CARBON/AIRSS/Generating-Clusters/Str-Search/Higher-Symm
REM VASP from code version vasp.5.4.4.18Apr17-6-g9f103f2a35 (build Oct 11 2019 16:45:47) gamma-only
REM
REM
REM
REM
REM ./C.cell (e5ae0387ce4d49c7c0135a1433873289)
REM AIRSS Version 0.9.1 bugfix July 2018 build 013d7b7c2542+ Fri, 06 Jul 2018 19:26:36 +0100
REM compiler GCC version 4.8.5 20150623 (Red Hat 4.8.5-39)
REM options -cpp -mtune=generic -march=x86-64 -g -O0
REM seed -30665872 -1501827454 -1730877928 1747755279 -1353926132 289001940 -123004834 -1070767468 -1221087504 1150648286 -262524481 1787759311
REM
REM C.POTCAR (d86ddea03c3ceb6dc662c8ad6801f873)
REM 
CELL 1.54180   15.00000   15.00000   15.00000   90.00000   90.00000   90.00000
LATT -1
SFAC C  
C      1  0.4978329377112  0.3317162613064  0.2268357226782 1.0
C      1  0.6708114619238  0.6433848425232  0.2088679050061 1.0
C      1  0.3428169062507  0.5771591650289  0.2213934509794 1.0
C      1  0.3947122308671  0.7127515354831  0.6603941845019 1.0
C      1  0.3699320175636  0.3016755810693  0.6603596495133 1.0
C      1  0.7393914900007  0.4820902813809  0.6705906209023 1.0
C      1  0.4199908543723  0.5591402370395  0.5103072019126 1.0
C      1  0.4860535624498  0.4190554824387  0.4885680722065 1.0
C      1  0.5810674947457  0.5417390195875  0.4764455449001 1.0
C      1  0.6386099732678  0.4809623250216  0.2444824221603 1.0
C      1  0.4376696339057  0.6167719430768  0.2295870052210 1.0
C      1  0.4219706691517  0.3991054829580  0.2476467549036 1.0
C      1  0.6453710734977  0.2510858649260  0.5348444820492 1.0
C      1  0.6499858074210  0.7386540324621  0.5390660100629 1.0
C      1  0.2028902333566  0.4964292418043  0.5354519095646 1.0
C      1  0.5565604790563  0.3062051158537  0.2950883884718 1.0
C      1  0.6290113220736  0.6926796359300  0.2795224048848 1.0
C      1  0.2968240849697  0.5457061903437  0.2960685526729 1.0
C      1  0.3403341498783  0.2489660331293  0.3966333986332 1.0
C      1  0.8060790044391  0.4758164966316  0.3993868360545 1.0
C      1  0.3386826829407  0.7599756014994  0.3925579427827 1.0
C      1  0.2777179244100  0.6553956384186  0.5373304465576 1.0
C      1  0.4728187578532  0.2307691316752  0.5360612863849 1.0
C      1  0.7624363098427  0.6028241672166  0.5499468852548 1.0
C      1  0.4595080312646  0.4651205041579  0.3173064919474 1.0
C      1  0.5601557898427  0.4934360269842  0.3116097354468 1.0
C      1  0.4829906974070  0.5666568647879  0.3086679324111 1.0
C      1  0.6385773223127  0.5059254750078  0.8023592171008 1.0
C      1  0.4242549476012  0.6146881462577  0.7950648545875 1.0
C      1  0.4359968079430  0.3746243519521  0.7965238483981 1.0
C      1  0.7287919045450  0.6842183131579  0.5075463058377 1.0
C      1  0.2105895739062  0.5923027912886  0.5128304393647 1.0
C      1  0.5607067645466  0.2075744057032  0.5091242158686 1.0
C      1  0.6706618096463  0.4969617198978  0.4727158730101 1.0
C      1  0.4261592889003  0.6486140852862  0.4689241921953 1.0
C      1  0.4061225418619  0.3635179017757  0.4741835825865 1.0
C      1  0.3283584520729  0.6718613458671  0.4440130388402 1.0
C      1  0.4320260402557  0.2701484846988  0.4434461851222 1.0
C      1  0.7540908524622  0.5545097484807  0.4521352726052 1.0
C      1  0.3245725774372  0.3774165970022  0.5249820865649 1.0
C      1  0.6896291677082  0.4161364698604  0.5279793412900 1.0
C      1  0.4790737627553  0.7222551413988  0.5140371833148 1.0
C      1  0.3912707756607  0.5803930539891  0.1473827298488 1.0
C      1  0.4626480959002  0.3704487699523  0.1553718392441 1.0
C      1  0.6720212243938  0.5599182492240  0.2116385787567 1.0
C      1  0.5414287939746  0.7195421538543  0.7218945399757 1.0
C      1  0.2878161000877  0.4228893268029  0.7202000015496 1.0
C      1  0.6699279326833  0.3526039410877  0.7259049692195 1.0
C      1  0.6878918725232  0.4472103741730  0.7429324661622 1.0
C      1  0.4516231629967  0.6852748330429  0.7356835834710 1.0
C      1  0.3629601245439  0.3629302461616  0.7354154008471 1.0
C      1  0.4693112434286  0.4529898601143  0.8380391181708 1.0
C      1  0.5531193324055  0.4958588565585  0.8393504824525 1.0
C      1  0.4737236689197  0.5462497886961  0.8377773356439 1.0
C      1  0.4023405543028  0.7612951069528  0.3170891220151 1.0
C      1  0.3000984156712  0.3227366188750  0.3454101956109 1.0
C      1  0.7556032972141  0.4091034019856  0.3458115248819 1.0
C      1  0.2018872679047  0.5950726022650  0.4194726990050 1.0
C      1  0.5644617042280  0.2003790662294  0.4166800284402 1.0
C      1  0.7292924925257  0.6475564207094  0.4203955052833 1.0
C      1  0.3623144034633  0.8180093817784  0.4596930956552 1.0
C      1  0.2855351227921  0.2269669242165  0.4663667306093 1.0
C      1  0.8454797962515  0.4333214494817  0.4692615873643 1.0
C      1  0.6557786963415  0.5945047209758  0.7789926333788 1.0
C      1  0.3390757045116  0.5855036537711  0.7720672549206 1.0
C      1  0.5035262866470  0.3143746411414  0.7750642057625 1.0
C      1  0.3158587434375  0.6649670333269  0.6274818132707 1.0
C      1  0.4501700704517  0.2577019286650  0.6276157005692 1.0
C      1  0.7433152917049  0.5744195291452  0.6381592880409 1.0
C      1  0.5964098614389  0.4694881454427  0.4042436188407 1.0
C      1  0.4882860018485  0.6377559681020  0.3861258221041 1.0
C      1  0.4208456028099  0.4424279857928  0.4095204719104 1.0
C      1  0.7549428485313  0.4066064090271  0.6058670576159 1.0
C      1  0.4528523530611  0.7732059818690  0.6049568717915 1.0
C      1  0.2909077683110  0.3207495839773  0.6003084275346 1.0
C      1  0.4883596574217  0.7299536025658  0.3429587053356 1.0
C      1  0.2541283218540  0.4032220680198  0.3828932237203 1.0
C      1  0.7021607108538  0.3354406090777  0.3842484187369 1.0
C      1  0.2568738414120  0.2474875520301  0.5426851528440 1.0
C      1  0.8330860635818  0.4050813751994  0.5471914138891 1.0
C      1  0.4231417937083  0.8113491341357  0.5214301628324 1.0
C      1  0.5768303481868  0.6336631492437  0.4309369340373 1.0
C      1  0.3523499949787  0.5093231795018  0.4502854102549 1.0
C      1  0.5651824083499  0.3776250078264  0.4430028116517 1.0
C      1  0.6258344562964  0.7942868784999  0.6084572299446 1.0
C      1  0.1768681505000  0.4513795028689  0.6085914349046 1.0
C      1  0.6969800916724  0.2456798722841  0.6080030372281 1.0
C      1  0.2352853518589  0.3915076987159  0.6466349441166 1.0
C      1  0.7196963503933  0.3236791350879  0.6499233263670 1.0
C      1  0.5434980619260  0.7809791435387  0.6479867469217 1.0
C      1  0.5713695914319  0.7056251337006  0.4966292515004 1.0
C      1  0.2735492529644  0.4447061661107  0.4768763367599 1.0
C      1  0.6551829238823  0.3388925644072  0.4791371392258 1.0
C      1  0.2953409676651  0.5823200341281  0.3902878165557 1.0
C      1  0.5267245348720  0.2870163769756  0.3884537041397 1.0
C      1  0.6505841256734  0.6636637462306  0.3675988190516 1.0
C      1  0.6928120605981  0.4067241772907  0.2683026947612 1.0
C      1  0.4524341562914  0.7157216332596  0.2433815177083 1.0
C      1  0.3296607686885  0.3802852341283  0.2720618806502 1.0
C      1  0.5902108309426  0.3074098905459  0.7420994402609 1.0
C      1  0.6205287443154  0.6723149467726  0.7411635609189 1.0
C      1  0.2894013075512  0.5150324656816  0.7366781970082 1.0
C      1  0.6472495463440  0.3276137921659  0.3023703635187 1.0
C      1  0.5469683899681  0.7382385029507  0.2689174766544 1.0
C      1  0.2744679594411  0.4552154435601  0.3017937205851 1.0
C      1  0.5163204742916  0.2634135711448  0.6986978374000 1.0
C      1  0.6978474365848  0.6298101470208  0.7046772952352 1.0
C      1  0.2888270960171  0.6022599752451  0.6965899965897 1.0
C      1  0.4973911240989  0.5119667023292  0.5230063239927 1.0
END
