TITL C-8388-7422-34 -8.853 3375.00 -1559.66694653 0 0 190 (C1) n - 1
REM
REM Run started: at 2020.12.28 04:33:05 in /gpfs/home/chem/mssmkc/CARBON/AIRSS/Generating-Clusters/Str-Search/Higher-Symm/C100-200
REM VASP from code version vasp.5.4.4.18Apr17-6-g9f103f2a35 (build Oct 11 2019 16:45:47) gamma-only
REM
REM
REM
REM
REM ./C.cell (533062f00bc710175b3da973d35f2034)
REM AIRSS Version 0.9.1 bugfix July 2018 build 013d7b7c2542+ Fri, 06 Jul 2018 19:26:36 +0100
REM compiler GCC version 6.3.0
REM options -cpp -iprefix /gpfs/warwick/csc/orac/software/Core/GCCcore/6.3.0/bin/../lib/gcc/x86_64-pc-linux-gnu/6.3.0/ -mtune=generic -march=x86-64 -g -O0
REM seed 1037127505 -1911097771 -942018959 509519779 1953532352 -907699409 -633423545 1030453489 661888191 -1808151497 868068052 -663312990
REM
REM C.POTCAR (d86ddea03c3ceb6dc662c8ad6801f873)
REM 
CELL 1.54180   15.00000   15.00000   15.00000   90.00000   90.00000   90.00000
LATT -1
SFAC C  
C      1  0.1684752741458  0.3485977935884  0.6559577104924 1.0
C      1  0.1181386771620  0.5335619141059  0.6595817657985 1.0
C      1  0.2361699602790  0.6639485815225  0.6495792583656 1.0
C      1  0.4024106348809  0.7749064985574  0.6429313714601 1.0
C      1  0.5761835858427  0.8014288347150  0.6335927411691 1.0
C      1  0.7452335319325  0.7196065395279  0.6180831867336 1.0
C      1  0.8440798172477  0.5787241122429  0.6171035415891 1.0
C      1  0.8172160436264  0.3799157900284  0.5939774816901 1.0
C      1  0.7105706845595  0.2468508343009  0.6063491971468 1.0
C      1  0.5382896492236  0.1752635291155  0.6186441093188 1.0
C      1  0.3712833922445  0.1792968565857  0.6406848305135 1.0
C      1  0.6024001034103  0.0847765636180  0.3646669186710 1.0
C      1  0.3655764217527  0.1397187058151  0.3656847024545 1.0
C      1  0.1537595570602  0.2091216811357  0.4193720973898 1.0
C      1  0.1097310407530  0.4479419757452  0.4075824171872 1.0
C      1  0.1480390432430  0.6914370972776  0.3924972135008 1.0
C      1  0.2832974725237  0.8744734048960  0.4188018791290 1.0
C      1  0.5242352051044  0.8861882436833  0.3765620772857 1.0
C      1  0.7501515151559  0.8616013781027  0.3809576010517 1.0
C      1  0.8531214076880  0.6460553319433  0.3475516458732 1.0
C      1  0.9165872072019  0.4264309401920  0.3536427781080 1.0
C      1  0.7680816145174  0.2363646112514  0.3326666000856 1.0
C      1  0.6272820337134  0.3824190069439  0.3376523418453 1.0
C      1  0.5373240839222  0.3303211201845  0.3465864897442 1.0
C      1  0.4483612577566  0.3807853246931  0.3600617857646 1.0
C      1  0.3506573682690  0.3765540647135  0.3291019154206 1.0
C      1  0.2987779574606  0.4449978428172  0.3763276379603 1.0
C      1  0.3325206968450  0.6374524389295  0.3873780960261 1.0
C      1  0.4238670531190  0.6503065375968  0.4015191449825 1.0
C      1  0.4959594728826  0.6395506191970  0.3318774952990 1.0
C      1  0.5818928694827  0.6326051287276  0.3835473618401 1.0
C      1  0.6609009179739  0.5822769408540  0.3536449785735 1.0
C      1  0.6712934642400  0.4743211093546  0.3403387663384 1.0
C      1  0.2173694775946  0.2708398135026  0.2884122161914 1.0
C      1  0.1548016299467  0.4150691340890  0.3287506919945 1.0
C      1  0.1864671329488  0.6443372561177  0.3150991737744 1.0
C      1  0.3134030563606  0.8068070415934  0.2811882301128 1.0
C      1  0.4804410058783  0.8493208313272  0.2955707866376 1.0
C      1  0.6854253030794  0.7973762296094  0.2526319827085 1.0
C      1  0.7881944903300  0.6628567690238  0.2749337844937 1.0
C      1  0.8134114940275  0.4531380447594  0.2427811675470 1.0
C      1  0.7485668661680  0.2998770551837  0.2590253190717 1.0
C      1  0.5715212749862  0.1821560997225  0.2490003951991 1.0
C      1  0.4054235099327  0.1777210826346  0.2803235686905 1.0
C      1  0.3440236308862  0.3979332070759  0.2246296775000 1.0
C      1  0.2993173507176  0.4907801447407  0.2297536134382 1.0
C      1  0.3297554757674  0.5786011280946  0.2340020467436 1.0
C      1  0.3900222548258  0.6601966262268  0.2114716769791 1.0
C      1  0.4861805790254  0.6837675619103  0.2332741150086 1.0
C      1  0.5804716621244  0.6651911749142  0.1947540625509 1.0
C      1  0.6371139496203  0.5896258594447  0.1974964922735 1.0
C      1  0.6429160962375  0.4924453155198  0.1914018539460 1.0
C      1  0.6038299909181  0.4030623835392  0.1885043951193 1.0
C      1  0.5224587060598  0.3472522007379  0.1920753042067 1.0
C      1  0.4261182263154  0.3375134882600  0.1936918849687 1.0
C      1  0.2459910322517  0.7792824679153  0.5622273169426 1.0
C      1  0.4476820686634  0.8684238594847  0.5315035353397 1.0
C      1  0.6659076678732  0.8558554794836  0.5348254135255 1.0
C      1  0.8407461719836  0.7192669124724  0.5001396813159 1.0
C      1  0.9078858818829  0.5074097575531  0.5096920259591 1.0
C      1  0.8358462137279  0.2861965781086  0.4792940977640 1.0
C      1  0.6771637159196  0.1440184874793  0.5119258183845 1.0
C      1  0.4599269372732  0.1072427524982  0.5071626316136 1.0
C      1  0.2550571045437  0.1620383074877  0.5569536813155 1.0
C      1  0.0891519879205  0.3818883696128  0.5568306341709 1.0
C      1  0.0978491907212  0.6127123219472  0.5434648020351 1.0
C      1  0.7256487293758  0.4949835972911  0.2502792320811 1.0
C      1  0.6550881454366  0.3339710732092  0.2480167125792 1.0
C      1  0.5695619560109  0.2794589814560  0.2497828304239 1.0
C      1  0.3826780300594  0.2589656650700  0.2341055512720 1.0
C      1  0.3034250133860  0.3110407804745  0.2619659608308 1.0
C      1  0.2287139141896  0.4802483007508  0.3062067845847 1.0
C      1  0.2822346692514  0.6468750949756  0.2961474884557 1.0
C      1  0.3268808016163  0.7193272258034  0.2466364713444 1.0
C      1  0.5175287370947  0.7814004828610  0.2417466178666 1.0
C      1  0.6058085602219  0.7549551444114  0.2195120738167 1.0
C      1  0.7160281582905  0.5955938936584  0.2628541973693 1.0
C      1  0.0860526488498  0.3133293686774  0.6250060148208 1.0
C      1  0.0359981431943  0.5734339642970  0.6026323260179 1.0
C      1  0.1947576563506  0.7583052223155  0.6360164040046 1.0
C      1  0.4028560132070  0.8740303840353  0.6118009146889 1.0
C      1  0.6239624135129  0.8897892092555  0.6101131148795 1.0
C      1  0.8344136926500  0.7635003366967  0.5814744516615 1.0
C      1  0.9404434651326  0.5600072507898  0.5831819145786 1.0
C      1  0.8847994401690  0.3140230554993  0.5515406813869 1.0
C      1  0.7384646621906  0.1503298741409  0.5805734867176 1.0
C      1  0.5122533479535  0.0795625656334  0.5779079804638 1.0
C      1  0.3022331059609  0.1055316182758  0.6134787447017 1.0
C      1  0.2214790099318  0.6316721071134  0.7434587947656 1.0
C      1  0.4529528706389  0.7548598432725  0.7266407816520 1.0
C      1  0.5452252583717  0.7800189275013  0.7240039991448 1.0
C      1  0.7342442282545  0.6651899069275  0.7017518881610 1.0
C      1  0.7976454021854  0.5955046009624  0.7053831216872 1.0
C      1  0.7897151310339  0.3609347827769  0.6897494907553 1.0
C      1  0.7198845351652  0.2953875130317  0.6930807736377 1.0
C      1  0.5136124166118  0.2101390978051  0.7105474339790 1.0
C      1  0.4187133267570  0.2008425973991  0.7241149545435 1.0
C      1  0.2450456416624  0.2945287380758  0.6813247301133 1.0
C      1  0.1506909029908  0.5621486844505  0.7497932361459 1.0
C      1  0.3619959483094  0.5637389375091  0.7964591403662 1.0
C      1  0.4465241803997  0.5876912907702  0.7680365434880 1.0
C      1  0.5376525001703  0.5551068648888  0.6256493579386 1.0
C      1  0.6076117606621  0.5658975095980  0.6973045694695 1.0
C      1  0.6728364580539  0.4968681287626  0.7260147502260 1.0
C      1  0.6276429656693  0.4192866917085  0.7467529262507 1.0
C      1  0.5363887635010  0.4376330614743  0.7536510461507 1.0
C      1  0.4969221133868  0.3576734551319  0.7809885144392 1.0
C      1  0.4115800159839  0.3413462996553  0.8097490463111 1.0
C      1  0.3288889586361  0.3913058823335  0.7991425005702 1.0
C      1  0.3111115525882  0.4800872286745  0.7934214956635 1.0
C      1  0.4476483478354  0.1765036206288  0.5729610285553 1.0
C      1  0.2836486649248  0.2270602385431  0.6222921160547 1.0
C      1  0.1349483604733  0.4363319144982  0.6264416132999 1.0
C      1  0.1757214431202  0.5982115127798  0.5986415565227 1.0
C      1  0.3125163603095  0.7271217807310  0.6110378175641 1.0
C      1  0.4846030288310  0.7953586124660  0.5823722941601 1.0
C      1  0.6641088001439  0.7742935164861  0.5868751006480 1.0
C      1  0.7995993251645  0.6551653695040  0.5600097998269 1.0
C      1  0.8387744632640  0.4783840411903  0.5689312283464 1.0
C      1  0.7641380680088  0.3104244247226  0.5417855261719 1.0
C      1  0.6263879148142  0.2022363115503  0.5721536960360 1.0
C      1  0.6729594050253  0.1127991186848  0.4216646361578 1.0
C      1  0.4367170852704  0.0970502237345  0.4153400235672 1.0
C      1  0.2187595400335  0.1582418341033  0.4693796683546 1.0
C      1  0.0898480191164  0.3737496367989  0.4645148233873 1.0
C      1  0.1037598230003  0.6253384524889  0.4476260255898 1.0
C      1  0.2314574859930  0.8233604409298  0.4791746280869 1.0
C      1  0.4542786563754  0.9010879261408  0.4428598378631 1.0
C      1  0.6872030919647  0.8865173651115  0.4478322784491 1.0
C      1  0.8525449948016  0.7233613972972  0.4064789883195 1.0
C      1  0.9260555307320  0.4972456467226  0.4174811102062 1.0
C      1  0.8403105817548  0.2722700059248  0.3859606416800 1.0
C      1  0.1129203739140  0.5419795270014  0.4027207358387 1.0
C      1  0.1849051195367  0.7760673345153  0.4049899660403 1.0
C      1  0.3718464848858  0.8972883191617  0.3965490464566 1.0
C      1  0.6158140811511  0.8949050392107  0.3802453793098 1.0
C      1  0.8082379773958  0.7920167321941  0.3574634700747 1.0
C      1  0.8940947690010  0.5635486598150  0.3519612004414 1.0
C      1  0.8790034277500  0.3420360213203  0.3344128673176 1.0
C      1  0.7140787560957  0.1634334155417  0.3469685551200 1.0
C      1  0.5087301557640  0.0862268909730  0.3551629836639 1.0
C      1  0.2758162031445  0.1466282584369  0.3897421178277 1.0
C      1  0.1114798678460  0.2927391456041  0.4113572689128 1.0
C      1  0.4592004493582  0.6908402982761  0.9856479052493 1.0
C      1  0.5239649170053  0.7200172801006  0.9414791230462 1.0
C      1  0.5964847174742  0.7056584623140  0.8832257937388 1.0
C      1  0.6494690220111  0.6391678421804  0.9163039777708 1.0
C      1  0.6694898918941  0.5622625240410  0.9470880322327 1.0
C      1  0.6347739364818  0.4848798474769  0.9669658803386 1.0
C      1  0.5789924223707  0.4239401514797  0.9895152642736 1.0
C      1  0.4924824949440  0.4279339752927  0.0035641159037 1.0
C      1  0.4188550189210  0.4642337026469  0.0264496945529 1.0
C      1  0.3934276784703  0.5485808501555  0.0260342715594 1.0
C      1  0.4018074841278  0.6325666477171  0.0202426116451 1.0
C      1  0.5877099609020  0.6068625281451  0.4749633674063 1.0
C      1  0.6701440419354  0.5576840593312  0.4567580114184 1.0
C      1  0.6805391408259  0.4653734229239  0.4404509700704 1.0
C      1  0.6366297982244  0.3775250221919  0.4411685651866 1.0
C      1  0.5488783003527  0.3389262396099  0.4498283924820 1.0
C      1  0.4593596499293  0.3772736259612  0.4652805203813 1.0
C      1  0.3957927744736  0.4211551389260  0.5108428794813 1.0
C      1  0.3342710196392  0.4770379036250  0.4581368239173 1.0
C      1  0.3455125826365  0.5719836926074  0.4635160180534 1.0
C      1  0.4311859481803  0.6097780662612  0.4927779456940 1.0
C      1  0.5143403112315  0.5898450046720  0.5401569265478 1.0
C      1  0.3881077073315  0.8608647785560  0.3087073050080 1.0
C      1  0.6799694292303  0.8685192434621  0.3121379908078 1.0
C      1  0.7689932320550  0.7529787649791  0.2751374949649 1.0
C      1  0.8840825899657  0.4914104008548  0.2877469863883 1.0
C      1  0.8198711042551  0.3579730535130  0.2570308357680 1.0
C      1  0.6406210357666  0.1368364630300  0.2902883921095 1.0
C      1  0.4903034737228  0.1388269079791  0.2763844307021 1.0
C      1  0.2110877529672  0.1940893830172  0.3382949567412 1.0
C      1  0.1484978246547  0.3248915273515  0.3258924096599 1.0
C      1  0.1703645991893  0.5577858163761  0.3275262917088 1.0
C      1  0.2449894254508  0.8235422758777  0.3438604424141 1.0
C      1  0.3732434887011  0.2593966372186  0.7797791410969 1.0
C      1  0.2921767222681  0.3088288980554  0.7592358243818 1.0
C      1  0.2265317318805  0.5313241748621  0.7966247581220 1.0
C      1  0.2783710909557  0.6149322075574  0.8181296919889 1.0
C      1  0.4778688695539  0.6771925913032  0.7719478439427 1.0
C      1  0.5790693654273  0.7062821551188  0.7838449011011 1.0
C      1  0.6431313046536  0.6505989580279  0.7326342535758 1.0
C      1  0.7664287585630  0.5115736240735  0.7401361749336 1.0
C      1  0.8084710123556  0.4309991862988  0.7425569189268 1.0
C      1  0.6435464847333  0.3235105627216  0.7396540485798 1.0
C      1  0.5560210299646  0.2839317463943  0.7508312992577 1.0
C      1  0.4695189685687  0.4694389247787  0.3369919243542 1.0
C      1  0.5124492724985  0.5288722335150  0.7218948475847 1.0
C      1  0.4831974596562  0.5456393308978  0.3148068487449 1.0
END
