TITL C-8388-7422-26 -7.437 3375.00 -1284.07367936 0 0 157 (C1) n - 1
REM
REM Run started: at 2020.12.27 21:38:31 in /gpfs/home/chem/mssmkc/CARBON/AIRSS/Generating-Clusters/Str-Search/Higher-Symm/C100-200
REM VASP from code version vasp.5.4.4.18Apr17-6-g9f103f2a35 (build Oct 11 2019 16:45:47) gamma-only
REM
REM
REM
REM
REM ./C.cell (533062f00bc710175b3da973d35f2034)
REM AIRSS Version 0.9.1 bugfix July 2018 build 013d7b7c2542+ Fri, 06 Jul 2018 19:26:36 +0100
REM compiler GCC version 6.3.0
REM options -cpp -iprefix /gpfs/warwick/csc/orac/software/Core/GCCcore/6.3.0/bin/../lib/gcc/x86_64-pc-linux-gnu/6.3.0/ -mtune=generic -march=x86-64 -g -O0
REM seed -749311548 -1060170594 2112889661 769051123 -1036301318 741959994 1804990156 1295002873 539354256 -57240198 -614799980 725689614
REM
REM C.POTCAR (d86ddea03c3ceb6dc662c8ad6801f873)
REM 
CELL 1.54180   15.00000   15.00000   15.00000   90.00000   90.00000   90.00000
LATT -1
SFAC C  
C      1  0.6713567910840  0.7036937529891  0.5292960945275 1.0
C      1  0.2974213222492  0.3064125147782  0.4717758268727 1.0
C      1  0.7325296303786  0.4470075933919  0.5821314025431 1.0
C      1  0.2762073662429  0.5496501178963  0.4175287486591 1.0
C      1  0.2092153739193  0.3538396337834  0.7214363278418 1.0
C      1  0.7753896492435  0.6466927078753  0.2660768371005 1.0
C      1  0.2229221881028  0.2055592059418  0.6619622275104 1.0
C      1  0.7620693421178  0.7986192008155  0.3273615134012 1.0
C      1  0.1801005316569  0.2700127031230  0.6990046317020 1.0
C      1  0.8012877862707  0.7289047272108  0.2970910887974 1.0
C      1  0.3693863175833  0.3455032662225  0.6338114445945 1.0
C      1  0.6188511740655  0.6582126611688  0.3579154945498 1.0
C      1  0.6483684281281  0.5586444209719  0.0957333881191 1.0
C      1  0.3385213424721  0.4376328363068  0.8972475636271 1.0
C      1  0.5610286944955  0.5738084210927  0.8290651131259 1.0
C      1  0.4434689298235  0.4192921439933  0.1916265214522 1.0
C      1  0.7305354167866  0.3913912740821  0.6617873796422 1.0
C      1  0.2814078839115  0.6096931890725  0.3494190355065 1.0
C      1  0.4054767546742  0.5790994727147  0.8601888654594 1.0
C      1  0.6041616403912  0.4111182934940  0.1583161073224 1.0
C      1  0.8667656164174  0.5913857890369  0.4762266609058 1.0
C      1  0.1664727632451  0.4685510859910  0.5054335922427 1.0
C      1  0.6732538121259  0.6648490275995  0.7421338626438 1.0
C      1  0.3678547656775  0.4254827017426  0.2666127887080 1.0
C      1  0.3571245400308  0.4206393266089  0.6970517000476 1.0
C      1  0.6299788554022  0.5978009929917  0.2918487783976 1.0
C      1  0.7621796539375  0.2370412088237  0.6796072541026 1.0
C      1  0.2236852790129  0.7532679645191  0.3059371200852 1.0
C      1  0.5807486323027  0.4785539636068  0.8307404499775 1.0
C      1  0.4245477286410  0.5141514034195  0.1692664222190 1.0
C      1  0.6611727012082  0.5487088769398  0.4919017334068 1.0
C      1  0.3542692011904  0.4530818272552  0.5111459084368 1.0
C      1  0.7609743713278  0.4880427321786  0.7647912679576 1.0
C      1  0.2333277318322  0.5111555335380  0.2172694881114 1.0
C      1  0.4884677150871  0.6311871665985  0.8550700202426 1.0
C      1  0.5216317692953  0.3586539363475  0.1744488656694 1.0
C      1  0.3646410127956  0.5166120689274  0.9137022246516 1.0
C      1  0.6283576092267  0.4778219486597  0.0986748598520 1.0
C      1  0.6714858064631  0.8054717297885  0.3425190323417 1.0
C      1  0.3129013157968  0.2011045508787  0.6451263785537 1.0
C      1  0.8181093129727  0.4143899258692  0.7284424892571 1.0
C      1  0.1747425055760  0.5792982097617  0.2503283955988 1.0
C      1  0.4738703442904  0.4736951614764  0.4027838163566 1.0
C      1  0.5794221750032  0.5511232817411  0.6687862425544 1.0
C      1  0.7967456423150  0.3308341001632  0.4671294268405 1.0
C      1  0.1894181998765  0.6479535944335  0.5240074711016 1.0
C      1  0.3466227849138  0.6021992201409  0.2778910563146 1.0
C      1  0.6543341789622  0.3839072791550  0.7267595387711 1.0
C      1  0.4404418204285  0.3343822912607  0.8279089642762 1.0
C      1  0.5410806063825  0.6580543796179  0.1642367500101 1.0
C      1  0.3574487369605  0.2720039782791  0.7024686581400 1.0
C      1  0.6262159803631  0.7334496018780  0.2847816582745 1.0
C      1  0.1394218402710  0.4551344206938  0.3356371743520 1.0
C      1  0.8565750083861  0.5390334619522  0.6456557478083 1.0
C      1  0.4057253884208  0.6667550114545  0.5410666004180 1.0
C      1  0.6113946039817  0.3272872578584  0.4743212231068 1.0
C      1  0.4577931051349  0.1828286148783  0.5650431305981 1.0
C      1  0.5221896189465  0.8165026952319  0.4102658682558 1.0
C      1  0.6310864014912  0.6360574129816  0.1417520175159 1.0
C      1  0.3509822255504  0.3617939665938  0.8477673570257 1.0
C      1  0.6246531540241  0.0965879013140  0.4370735912665 1.0
C      1  0.3687884931590  0.8768449746319  0.5599575888355 1.0
C      1  0.2068087073613  0.4313296628591  0.2658119181294 1.0
C      1  0.7953979385906  0.5644262518232  0.7167845093439 1.0
C      1  0.5791837099717  0.1173325052145  0.3698696102906 1.0
C      1  0.4059199574278  0.8767424241120  0.6339225563034 1.0
C      1  0.6272095477115  0.4039420721524  0.4167544761753 1.0
C      1  0.3948574862823  0.5847587700429  0.5941520289479 1.0
C      1  0.1218454722954  0.6257457929482  0.3746140502446 1.0
C      1  0.8762693764333  0.3591851796674  0.6093991242451 1.0
C      1  0.4044640581804  0.5570710598440  0.7632936557180 1.0
C      1  0.6258005394406  0.4223559284591  0.2482048474235 1.0
C      1  0.6959292412129  0.1968460951231  0.6509181127234 1.0
C      1  0.2833246678573  0.7985536015842  0.3407630837468 1.0
C      1  0.6461285937115  0.8031620053722  0.5168498549741 1.0
C      1  0.3183027421231  0.2163624956395  0.4742873613113 1.0
C      1  0.5752845440965  0.5678618354755  0.5678447614627 1.0
C      1  0.4546922202819  0.4609379954288  0.5020852708766 1.0
C      1  0.1116617962211  0.5475584597671  0.3169658912723 1.0
C      1  0.8789994211004  0.4467386455775  0.6573016753622 1.0
C      1  0.5533390094337  0.8425323837869  0.6577054078373 1.0
C      1  0.4205234029959  0.1731801685857  0.3568713927364 1.0
C      1  0.5629147051895  0.4595204169158  0.3698369185958 1.0
C      1  0.5071266712430  0.4943940100039  0.6640831101675 1.0
C      1  0.5716242646874  0.3428346369844  0.7363758423254 1.0
C      1  0.4063763236273  0.6592423018142  0.2384089672119 1.0
C      1  0.4678765305152  0.8359700468161  0.6935565872077 1.0
C      1  0.5137369351938  0.1932094605163  0.3737471490871 1.0
C      1  0.6367934804319  0.5041832731707  0.3035469645957 1.0
C      1  0.4432146466637  0.4659603829156  0.7340279623253 1.0
C      1  0.6070194961009  0.8393348835868  0.5915622519563 1.0
C      1  0.3468027130233  0.1768885009540  0.3930999830249 1.0
C      1  0.3217937420977  0.4601104420290  0.4181188780600 1.0
C      1  0.7311480218688  0.5495185540567  0.5615608379159 1.0
C      1  0.2013760028587  0.4285756394989  0.6603404113346 1.0
C      1  0.7934679787221  0.5691224328669  0.3251503418668 1.0
C      1  0.3644971565139  0.1858733533359  0.5625101332601 1.0
C      1  0.6159801640373  0.8242787980570  0.4198737880278 1.0
C      1  0.5397520560050  0.7289570333164  0.2319259533357 1.0
C      1  0.4410294065638  0.2717507234318  0.7566001064857 1.0
C      1  0.4559353112250  0.7408899045922  0.2678417514891 1.0
C      1  0.5224620125742  0.2637626171113  0.7104043704920 1.0
C      1  0.5523692401646  0.2788739628671  0.3161381247238 1.0
C      1  0.4348457509844  0.7593172005564  0.7504270946262 1.0
C      1  0.5307144992618  0.1995918235406  0.6372387339078 1.0
C      1  0.4466487536444  0.7994788616512  0.3440182399392 1.0
C      1  0.7029376290421  0.4676715355589  0.4341639869395 1.0
C      1  0.3117042839235  0.5228267545292  0.5716262414420 1.0
C      1  0.1274388417301  0.6543372172366  0.4598909321128 1.0
C      1  0.8659278375346  0.3273271423551  0.5256175186643 1.0
C      1  0.3556885041069  0.3563439920345  0.5373811323981 1.0
C      1  0.6381650711046  0.6424246097935  0.4529298830164 1.0
C      1  0.6145390139110  0.1712774282067  0.5043902621477 1.0
C      1  0.3744255835519  0.8105602649038  0.4854132329935 1.0
C      1  0.8046145919045  0.3244124515503  0.6758263570358 1.0
C      1  0.1989513715764  0.6591324592079  0.3139493531181 1.0
C      1  0.5238185792228  0.3042483285734  0.5004850072154 1.0
C      1  0.4910217104024  0.7071472318453  0.5273097117155 1.0
C      1  0.5119709080144  0.4044201676964  0.7985067104982 1.0
C      1  0.4606349871520  0.6064975427407  0.1720338068677 1.0
C      1  0.2847436320595  0.4727787951241  0.6531444597261 1.0
C      1  0.7295458695513  0.5047046344284  0.3466900592588 1.0
C      1  0.3373261084131  0.5179181871000  0.2234804325960 1.0
C      1  0.6655659046741  0.4573814990007  0.7861130773106 1.0
C      1  0.7404112569131  0.2669574991161  0.4045443332443 1.0
C      1  0.2524607024925  0.7066803601259  0.5753998588559 1.0
C      1  0.5757475538621  0.6605745260975  0.5328827528137 1.0
C      1  0.4578387876707  0.3620790052696  0.5183877779101 1.0
C      1  0.1484607392779  0.4262990805708  0.5815183152819 1.0
C      1  0.8557846551280  0.5842421545693  0.3954717081621 1.0
C      1  0.6647488149014  0.2521349586503  0.4673212816335 1.0
C      1  0.3357146626431  0.7233527007256  0.5215921457668 1.0
C      1  0.6075828415415  0.6038734204396  0.7479143288522 1.0
C      1  0.3990767840718  0.4537529693962  0.3571136747416 1.0
C      1  0.8264412782766  0.5903036745264  0.5620893034943 1.0
C      1  0.1706911524616  0.4229753920272  0.4164900083895 1.0
C      1  0.4730578769597  0.7883920984214  0.4863903628647 1.0
C      1  0.5171897995894  0.2065760932133  0.4863294384709 1.0
C      1  0.2621435621353  0.3747215240883  0.3999521914378 1.0
C      1  0.7433790103898  0.6492590837399  0.5917378953584 1.0
C      1  0.3628063093012  0.8173055983300  0.3845762246782 1.0
C      1  0.6163935386968  0.1756189416541  0.6055810127680 1.0
C      1  0.3045362379726  0.3485578243950  0.7576406016396 1.0
C      1  0.6798607124328  0.6579507014447  0.2289043756082 1.0
C      1  0.2768517092860  0.3789266448532  0.2969917829056 1.0
C      1  0.7427245351163  0.6428850419401  0.6900231335655 1.0
C      1  0.2837463875935  0.7203335967277  0.6587093778742 1.0
C      1  0.7058797941725  0.2559661646539  0.3193999032594 1.0
C      1  0.5503117593836  0.2746559904642  0.2190531108987 1.0
C      1  0.4809506837077  0.7155184649416  0.8149847281482 1.0
C      1  0.6381371219495  0.2479158830584  0.2592810919743 1.0
C      1  0.3588849682960  0.7063935325630  0.7070287042062 1.0
C      1  0.3856696705634  0.6128318882678  0.6939878952774 1.0
C      1  0.5894349846455  0.3729405928667  0.3261809112962 1.0
C      1  0.2321703683479  0.5546816409344  0.5075843982908 1.0
C      1  0.7529853047152  0.4142321504975  0.4986578600693 1.0
C      1  0.4821746396797  0.5238297517493  0.5733236665326 1.0
END
