TITL C-84353-7021-12 -4.689 3375.00 -824.51746072 0 0 101 (C1) n - 1
REM
REM Run started: at 2020.11.24 09:05:30 in /rds/project/t2_vol4/rds-t2-cs072/BORA/CARBON/AIRSS/Generating-Clusters/Str-Search/Higher-Symm
REM VASP from code version vasp.5.4.4.18Apr17-6-g9f103f2a35 (build Oct 11 2019 16:45:47) gamma-only
REM
REM
REM
REM
REM ./C.cell (e5ae0387ce4d49c7c0135a1433873289)
REM AIRSS Version 0.9.1 bugfix July 2018 build 013d7b7c2542+ Fri, 06 Jul 2018 19:26:36 +0100
REM compiler GCC version 4.8.5 20150623 (Red Hat 4.8.5-39)
REM options -cpp -mtune=generic -march=x86-64 -g -O0
REM seed 65837985 828004122 -361750544 28149272 -194213787 966536314 -1440310752 -787219720 2046430785 857834218 -857876709 -2098307900
REM
REM C.POTCAR (d86ddea03c3ceb6dc662c8ad6801f873)
REM 
CELL 1.54180   15.00000   15.00000   15.00000   90.00000   90.00000   90.00000
LATT -1
SFAC C  
C      1  0.6709117910831  0.6080254709667  0.7480191864233 1.0
C      1  0.5967299194700  0.7392167175414  0.6722956966831 1.0
C      1  0.7316377747674  0.6649845568853  0.6093185342220 1.0
C      1  0.6737150532699  0.3932515998917  0.2700617733659 1.0
C      1  0.3276585859461  0.6070823959889  0.2674746208634 1.0
C      1  0.3362031839463  0.4042730645018  0.7472463370378 1.0
C      1  0.6030626538148  0.2617196491741  0.3331724371428 1.0
C      1  0.3989428576495  0.7390024116266  0.3350537275170 1.0
C      1  0.4099976136803  0.2718681658096  0.6725991986644 1.0
C      1  0.7405603699580  0.3292517690680  0.4033244111607 1.0
C      1  0.2633283771355  0.6712962668877  0.3994151260195 1.0
C      1  0.2706422824053  0.3364196913538  0.6127995072543 1.0
C      1  0.6664706684032  0.7347442456524  0.6065954888228 1.0
C      1  0.6029496184812  0.6729128676300  0.7365043883290 1.0
C      1  0.7322907339543  0.5962647850829  0.6765689406176 1.0
C      1  0.6719615841899  0.2644159963620  0.3974073020942 1.0
C      1  0.3378907401428  0.2703408426846  0.6111996553214 1.0
C      1  0.3315666107563  0.7377998707927  0.4021186532231 1.0
C      1  0.6051456033913  0.3282319075064  0.2682556315839 1.0
C      1  0.4086376438367  0.3408140450211  0.7384342174454 1.0
C      1  0.3940406492931  0.6739913651864  0.2680737350999 1.0
C      1  0.7408585963644  0.3974714812465  0.3363055928017 1.0
C      1  0.2705242903997  0.4049794524439  0.6773310690831 1.0
C      1  0.2617573160770  0.6024793343083  0.3337167553428 1.0
C      1  0.5750010071368  0.3578867114186  0.4981266566469 1.0
C      1  0.3473987167925  0.5039607329066  0.5751303577366 1.0
C      1  0.5012212144056  0.5763157557064  0.3556304876976 1.0
C      1  0.5776390952550  0.6520014851463  0.5005368884634 1.0
C      1  0.4266514163468  0.3566498182537  0.5012619552992 1.0
C      1  0.4252654872177  0.6514747996140  0.5015498165180 1.0
C      1  0.3511313489355  0.5012701708104  0.4260113686347 1.0
C      1  0.6539154154415  0.5019827456877  0.4247336055349 1.0
C      1  0.6580065347904  0.4990706507438  0.5720946976336 1.0
C      1  0.5042742746859  0.4247162419420  0.6437579391712 1.0
C      1  0.5084719902742  0.5739271227374  0.6429738001613 1.0
C      1  0.5003730185257  0.4269863421694  0.3543526010975 1.0
C      1  0.5764193893826  0.5011233850704  0.3554917927996 1.0
C      1  0.3491593214397  0.5778381443070  0.5004918578353 1.0
C      1  0.5027851596742  0.3499769762586  0.5734662162585 1.0
C      1  0.5686548902481  0.4976996756862  0.6114040968744 1.0
C      1  0.4264520813250  0.5020500999353  0.3552651995082 1.0
C      1  0.4390182056046  0.5014751585429  0.6155785475917 1.0
C      1  0.3516042003902  0.4286705638948  0.5012629807380 1.0
C      1  0.6542222349693  0.4247192552608  0.4981896549635 1.0
C      1  0.6549511728259  0.5769795498137  0.4991715938231 1.0
C      1  0.5023303773372  0.6518606252749  0.4261245198511 1.0
C      1  0.5021455506792  0.6525608143627  0.5754105101471 1.0
C      1  0.4987842975012  0.3555636722832  0.4265169864704 1.0
C      1  0.5288042996787  0.2520522423843  0.4010952084672 1.0
C      1  0.2749770538308  0.3529273530917  0.5118092357160 1.0
C      1  0.3934679340645  0.5324383958978  0.2560378878723 1.0
C      1  0.5015359597860  0.7364106556031  0.6437244727048 1.0
C      1  0.4987230810371  0.2614495556569  0.6286296292225 1.0
C      1  0.4883033186949  0.7452637140804  0.3742207537892 1.0
C      1  0.2548905968390  0.6264165889352  0.4861708189505 1.0
C      1  0.7369236130974  0.3586420914737  0.4987701141618 1.0
C      1  0.7454537433161  0.6287681993245  0.5181367917766 1.0
C      1  0.3545327360385  0.4902591256013  0.7859650761489 1.0
C      1  0.6068619846272  0.5470101515389  0.7912538917812 1.0
C      1  0.6092640584387  0.4698955920109  0.2567594643288 1.0
C      1  0.5316950099575  0.3946631875595  0.2558600365113 1.0
C      1  0.2573573460677  0.5140422040833  0.3777641927419 1.0
C      1  0.3511412015041  0.2773853642161  0.5111906642862 1.0
C      1  0.5293632827782  0.6056659493081  0.7466561342052 1.0
C      1  0.4700947232948  0.6089989263305  0.2561981343863 1.0
C      1  0.4953359107133  0.3878585840604  0.7401329211541 1.0
C      1  0.2611985595633  0.4921394094231  0.6343845052925 1.0
C      1  0.7480354230256  0.4873318092895  0.3742752562668 1.0
C      1  0.7387842494320  0.5049842623835  0.6373158771857 1.0
C      1  0.3702287690797  0.7416967103776  0.4933918721894 1.0
C      1  0.6309751638809  0.7445973894557  0.5158618944701 1.0
C      1  0.6086733348013  0.2574627946433  0.4739357020403 1.0
C      1  0.5523196301794  0.8030603746727  0.3916725660391 1.0
C      1  0.7742581969917  0.3576773638049  0.5920222213805 1.0
C      1  0.3758098481569  0.5699901458612  0.7928467635921 1.0
C      1  0.5748781987151  0.2160423108097  0.6276977817071 1.0
C      1  0.4106240597849  0.7762968225218  0.6445931332600 1.0
C      1  0.4493243653008  0.1980894058762  0.4076321663030 1.0
C      1  0.8059674349584  0.6103507590643  0.4566182747785 1.0
C      1  0.2100210935360  0.3758757063555  0.4448870794035 1.0
C      1  0.1972398953208  0.6109267966268  0.5518469595789 1.0
C      1  0.3964708762833  0.4612145595981  0.1910270372130 1.0
C      1  0.6068234433634  0.5423331426257  0.1927926786486 1.0
C      1  0.6147812801510  0.4668230679200  0.8375359021425 1.0
C      1  0.5471738950777  0.4234403107764  0.8016302907652 1.0
C      1  0.8066266340171  0.5497341788109  0.3952795359705 1.0
C      1  0.3624408903875  0.7844197731656  0.5701731325780 1.0
C      1  0.5426606642522  0.6060763399579  0.1925522073378 1.0
C      1  0.4353506191996  0.6391032588840  0.7663207109598 1.0
C      1  0.4606629202215  0.3977988682010  0.1905574321357 1.0
C      1  0.7861604050486  0.4302788781877  0.6454526407191 1.0
C      1  0.2040165288534  0.4411436354577  0.3925463098871 1.0
C      1  0.1990212784331  0.5517192322345  0.6135249359471 1.0
C      1  0.3791471886588  0.2098487779153  0.4491103651166 1.0
C      1  0.6408102650477  0.2351203194009  0.5661759968009 1.0
C      1  0.6127632734188  0.8032383890104  0.4529253071467 1.0
C      1  0.7201945512467  0.2869280160001  0.5704110695772 1.0
C      1  0.4298519972012  0.7149386230260  0.7138315629391 1.0
C      1  0.6149892547131  0.6144383703997  0.1291998174907 1.0
C      1  0.3905566105901  0.3912185913108  0.1246229558349 1.0
C      1  0.5019858277429  0.5058178733555  0.5381145115225 1.0
END
