TITL C-84353-7021-3 -7.665 3375.00 -1351.96026053 0 0 164 (C1) n - 1
REM
REM Run started: at 2020.11.24 01:10:44 in /rds/project/t2_vol4/rds-t2-cs072/BORA/CARBON/AIRSS/Generating-Clusters/Str-Search/Higher-Symm
REM VASP from code version vasp.5.4.4.18Apr17-6-g9f103f2a35 (build Oct 11 2019 16:45:47) gamma-only
REM
REM
REM
REM
REM ./C.cell (e5ae0387ce4d49c7c0135a1433873289)
REM AIRSS Version 0.9.1 bugfix July 2018 build 013d7b7c2542+ Fri, 06 Jul 2018 19:26:36 +0100
REM compiler GCC version 4.8.5 20150623 (Red Hat 4.8.5-39)
REM options -cpp -mtune=generic -march=x86-64 -g -O0
REM seed -2027590304 -470972318 -2042322490 -746586810 1059155175 2039117778 -1341831725 -1281405993 2126960092 1529747407 -1427239144 1763464287
REM
REM C.POTCAR (d86ddea03c3ceb6dc662c8ad6801f873)
REM 
CELL 1.54180   15.00000   15.00000   15.00000   90.00000   90.00000   90.00000
LATT -1
SFAC C  
C      1  0.4213923743575  0.5657238176590  0.8502740591577 1.0
C      1  0.5828208021979  0.7355384117641  0.2330001609093 1.0
C      1  0.1921521621246  0.3793107862691  0.6508306588285 1.0
C      1  0.3874320532480  0.3270279222571  0.4831730757163 1.0
C      1  0.2679375753013  0.7275281006165  0.4128685197363 1.0
C      1  0.7791939426433  0.4678659951005  0.7365740879065 1.0
C      1  0.2971443937057  0.2161430721487  0.5919363842866 1.0
C      1  0.1321317806223  0.5531499270465  0.5100064999446 1.0
C      1  0.3217930988798  0.2803045301661  0.3071468304099 1.0
C      1  0.2645431857036  0.3443929919671  0.7033260241266 1.0
C      1  0.3628690513150  0.1426539616119  0.5814478885037 1.0
C      1  0.7061031170459  0.3319763204145  0.6906279770982 1.0
C      1  0.5706097060896  0.5417815217541  0.4837339457136 1.0
C      1  0.6622297993211  0.5598121404323  0.7972718216551 1.0
C      1  0.6622443700536  0.7008474930289  0.2729235514422 1.0
C      1  0.2240908520680  0.6463397644959  0.4087459861272 1.0
C      1  0.4769466463568  0.2294534739773  0.6607621219504 1.0
C      1  0.7716414504470  0.6814553410556  0.3823937890738 1.0
C      1  0.6249081730429  0.4712004565354  0.1902316836949 1.0
C      1  0.3985764865994  0.4210895401348  0.4673417548114 1.0
C      1  0.4520447965401  0.1054754657917  0.4652933453434 1.0
C      1  0.5344679317102  0.5062543754236  0.1797921638045 1.0
C      1  0.5088064419931  0.3549942012695  0.1652142985492 1.0
C      1  0.3308683069001  0.1980115984621  0.3566804298715 1.0
C      1  0.3198325193095  0.5491674870163  0.6013074875814 1.0
C      1  0.3813243937699  0.4626953974500  0.2081820677644 1.0
C      1  0.3923657602920  0.8332268395404  0.3827119006935 1.0
C      1  0.3336609953570  0.6817727403886  0.7151903821045 1.0
C      1  0.4320423867872  0.6620067805486  0.8523562408308 1.0
C      1  0.7687709582607  0.4574550288244  0.2725399155432 1.0
C      1  0.2898192726281  0.4351517429702  0.2507113495704 1.0
C      1  0.3309495816891  0.7523104323807  0.2501367770742 1.0
C      1  0.4630652166998  0.3463084646636  0.8588436928064 1.0
C      1  0.7009925624136  0.2721553414528  0.4523559784227 1.0
C      1  0.4520580742526  0.4320363399716  0.3869304711465 1.0
C      1  0.5519000213649  0.6004424387170  0.6428913031602 1.0
C      1  0.1364777454145  0.6290003724881  0.5661784162178 1.0
C      1  0.6601909517788  0.2241935373297  0.5392920002370 1.0
C      1  0.6495898879207  0.3982618579809  0.8647856558059 1.0
C      1  0.4218641220031  0.7625058047651  0.2194627036717 1.0
C      1  0.4062636619154  0.5400596764885  0.2566973899623 1.0
C      1  0.1855209410159  0.5636996525771  0.4298893456280 1.0
C      1  0.4677551805348  0.7560572443674  0.1421470527008 1.0
C      1  0.5197924282458  0.6002092105008  0.7339327001441 1.0
C      1  0.5132507431987  0.1171854114325  0.5413940663952 1.0
C      1  0.4684101965244  0.3601232770735  0.5211598095177 1.0
C      1  0.4971936483629  0.5600159493436  0.2457761712593 1.0
C      1  0.5551103453152  0.3746973827352  0.7356940815087 1.0
C      1  0.6238284834407  0.6646591726080  0.6265181640877 1.0
C      1  0.5967329770096  0.1504015116787  0.5101442817397 1.0
C      1  0.7224486002349  0.2317319027979  0.3618912525696 1.0
C      1  0.3481167766506  0.6495960559276  0.8013675785036 1.0
C      1  0.7685640457971  0.7248560385964  0.5404979153322 1.0
C      1  0.5465352606355  0.3040989293163  0.6575113725271 1.0
C      1  0.2134523505830  0.3826141224330  0.3927604196657 1.0
C      1  0.3144339084800  0.2763718080230  0.6670872426428 1.0
C      1  0.2231782693843  0.4725492606243  0.1846869350139 1.0
C      1  0.3834377576606  0.7501156542852  0.6735348152768 1.0
C      1  0.7216573998189  0.6130456641586  0.7534958403900 1.0
C      1  0.7015805682017  0.5111848112305  0.2249196497438 1.0
C      1  0.4990801224118  0.7551571038815  0.2957831548964 1.0
C      1  0.4552197529555  0.1493288536952  0.6129863552968 1.0
C      1  0.6320677863021  0.4503831009097  0.6117070939895 1.0
C      1  0.4936108836422  0.5219738302700  0.4061296255867 1.0
C      1  0.3274706443611  0.2763813701607  0.5183110075661 1.0
C      1  0.3594243804389  0.7612495882266  0.5761051761019 1.0
C      1  0.5808134018431  0.1741142466452  0.4090331913381 1.0
C      1  0.5419579670075  0.7577699759361  0.7386677060021 1.0
C      1  0.4090164506814  0.2912672959799  0.6679571335623 1.0
C      1  0.2436360165555  0.2363393157925  0.4968432870247 1.0
C      1  0.2270845060971  0.6399949888964  0.1663220542568 1.0
C      1  0.5334286032621  0.5875171582454  0.3328462387688 1.0
C      1  0.5745489483833  0.5893764758261  0.8165899884430 1.0
C      1  0.4731637969150  0.7924963343911  0.6809051490312 1.0
C      1  0.6130646247298  0.6939913964246  0.5417130904259 1.0
C      1  0.2695592073174  0.7019118016020  0.2014575534783 1.0
C      1  0.2552334059963  0.5264342747337  0.6824243188710 1.0
C      1  0.4046268539062  0.8460750105882  0.5502909120639 1.0
C      1  0.5452859598369  0.2083325123450  0.2099352229636 1.0
C      1  0.7787916119002  0.6895983148838  0.6277697209875 1.0
C      1  0.4239104167282  0.1935471185764  0.3380397018713 1.0
C      1  0.6956451381955  0.3808312040679  0.4556508345341 1.0
C      1  0.3564912181454  0.5557829793582  0.3383584064278 1.0
C      1  0.4622194388409  0.4365617188170  0.1605640593147 1.0
C      1  0.8307911631294  0.6090109591339  0.6450102123747 1.0
C      1  0.7900927210662  0.3945769623908  0.6741704237946 1.0
C      1  0.5891248451668  0.3857736818773  0.2172200089219 1.0
C      1  0.2122655359166  0.5517884037218  0.1611721700489 1.0
C      1  0.3595630943644  0.1162045788918  0.4896583526820 1.0
C      1  0.4239722379852  0.2805455899401  0.2849132187403 1.0
C      1  0.6381252024523  0.7721064776952  0.7151340525331 1.0
C      1  0.6975416840005  0.6029654786955  0.2722065211482 1.0
C      1  0.8638401980309  0.4693093433278  0.5470996500782 1.0
C      1  0.6529687080287  0.5362179027044  0.4253372343352 1.0
C      1  0.4925390674266  0.4523363739520  0.7334364224597 1.0
C      1  0.6787354369447  0.7670222341839  0.5140807092173 1.0
C      1  0.6425359323186  0.8463595286767  0.5709790917759 1.0
C      1  0.6986725373820  0.6894807071373  0.6924221765613 1.0
C      1  0.2165885081488  0.4799400736079  0.3891422548909 1.0
C      1  0.4061672924394  0.5712405996107  0.4289895578609 1.0
C      1  0.1649815351460  0.3778123882635  0.5512306312646 1.0
C      1  0.7937437974420  0.5607449019561  0.7186532835081 1.0
C      1  0.1797477636969  0.4723751915695  0.6478040686974 1.0
C      1  0.7665049752812  0.2905534766145  0.3065247513745 1.0
C      1  0.4863102723428  0.1489390871883  0.3901462068760 1.0
C      1  0.5859048005334  0.5211953956174  0.5845215414436 1.0
C      1  0.2711722831064  0.6254434990661  0.6570644022005 1.0
C      1  0.5539183165550  0.7368443697933  0.1456354451057 1.0
C      1  0.2675136974843  0.3536483931121  0.3120613393196 1.0
C      1  0.6084327338672  0.3821823661530  0.3979005234075 1.0
C      1  0.5626983720166  0.8367538738015  0.4310845623537 1.0
C      1  0.1894042564281  0.6626445530917  0.6191942251522 1.0
C      1  0.6514254820793  0.8438702857360  0.6601837128326 1.0
C      1  0.4741049214622  0.3616944653396  0.3302088849526 1.0
C      1  0.4172235396125  0.5337919357286  0.5969565362269 1.0
C      1  0.8097113253732  0.6774147510396  0.4695769038667 1.0
C      1  0.4915356982045  0.6782562064285  0.3548838104783 1.0
C      1  0.4784892482087  0.2698624320412  0.1974578205866 1.0
C      1  0.6874173826053  0.4627830213960  0.7876229141862 1.0
C      1  0.4553081615067  0.6650115808943  0.4466913294489 1.0
C      1  0.2942280910050  0.4904155093199  0.7686071225284 1.0
C      1  0.3572139946656  0.8483183202422  0.4693123740288 1.0
C      1  0.4213463877645  0.6950416683649  0.5377885758946 1.0
C      1  0.2950844826331  0.7796377727289  0.4938393079558 1.0
C      1  0.2838672546496  0.5002736278220  0.3266507500452 1.0
C      1  0.5610131703066  0.3513207693052  0.8322785218747 1.0
C      1  0.3707474598589  0.5121795261449  0.5097423215111 1.0
C      1  0.8544764450183  0.5974202885737  0.4881575749792 1.0
C      1  0.5373400987329  0.6361396428003  0.5011471747048 1.0
C      1  0.3300254246893  0.5571588179831  0.8238608100596 1.0
C      1  0.6499681703769  0.3040453652415  0.8420508872707 1.0
C      1  0.5713770291967  0.3696563921192  0.3133496777817 1.0
C      1  0.8328526343874  0.5071191323277  0.4512137986354 1.0
C      1  0.3220489708459  0.7737475029410  0.3410622953423 1.0
C      1  0.4866152160102  0.8270653866311  0.3672093571412 1.0
C      1  0.6956893535886  0.7370610200546  0.3542675921492 1.0
C      1  0.8290732423112  0.3978850126945  0.5897923013987 1.0
C      1  0.7764690052894  0.6044451547116  0.3310342769885 1.0
C      1  0.6309046661624  0.5764097808770  0.3456334863681 1.0
C      1  0.3873228993977  0.3631331435412  0.8256777780044 1.0
C      1  0.5602109888044  0.3491899208864  0.4830944925679 1.0
C      1  0.6432924741126  0.4148878859845  0.7058841944323 1.0
C      1  0.2941820107173  0.1653724087056  0.4374082194832 1.0
C      1  0.6453532326688  0.2965603503044  0.6110453592937 1.0
C      1  0.4633335359663  0.3637251632550  0.6192158298745 1.0
C      1  0.1398813519825  0.4733774376037  0.5591730075336 1.0
C      1  0.7076702749340  0.2826993663355  0.7778169072724 1.0
C      1  0.6100348795104  0.1726248354908  0.2501459144585 1.0
C      1  0.8737660159887  0.5643033309341  0.5731134980128 1.0
C      1  0.5984813774781  0.2597323103032  0.4614315762439 1.0
C      1  0.3102208127315  0.3971281184143  0.7747309739263 1.0
C      1  0.6395499696524  0.3772467192070  0.5458494821615 1.0
C      1  0.5163167686870  0.6776251775667  0.7962515532575 1.0
C      1  0.5596283702363  0.8666693175550  0.5289437899032 1.0
C      1  0.6488760071948  0.7917974472586  0.4196130170481 1.0
C      1  0.6482665339307  0.1785506260576  0.3336064784422 1.0
C      1  0.1926925639664  0.3276723232811  0.4763020531270 1.0
C      1  0.7996601032338  0.5104589108166  0.3526488287643 1.0
C      1  0.7355963052719  0.4813052149398  0.4362722991115 1.0
C      1  0.4859565848246  0.8544301648205  0.5913771147588 1.0
C      1  0.4538168763026  0.4572337875962  0.6519983942344 1.0
C      1  0.4733449192039  0.6209713707982  0.5820120833826 1.0
C      1  0.7778951690068  0.3661668635280  0.2730828803387 1.0
C      1  0.4947684212797  0.5283853212335  0.7969610482997 1.0
END
