TITL C-85605-1613-5 -9.2 3375.00 -1613.91986743 0 0 197 (C1) n - 1
REM
REM Run started: at 2020.12.22 02:00:18 in /rds/project/t2_vol4/rds-t2-cs072/BORA/CARBON/AIRSS/Generating-Clusters/Str-Search/Higher-Symm/C100-200
REM VASP from code version vasp.5.4.4.18Apr17-6-g9f103f2a35 (build Oct 11 2019 16:45:47) gamma-only
REM
REM
REM
REM
REM ./C.cell (533062f00bc710175b3da973d35f2034)
REM AIRSS Version 0.9.1 bugfix July 2018 build 013d7b7c2542+ Fri, 06 Jul 2018 19:26:36 +0100
REM compiler GCC version 4.8.5 20150623 (Red Hat 4.8.5-39)
REM options -cpp -mtune=generic -march=x86-64 -g -O0
REM seed -1322166601 -957427339 582303661 -207941151 1724836926 351663113 790849016 -1197617533 603513560 -1285648386 1938491808 -126148287
REM
REM C.POTCAR (d86ddea03c3ceb6dc662c8ad6801f873)
REM 
CELL 1.54180   15.00000   15.00000   15.00000   90.00000   90.00000   90.00000
LATT -1
SFAC C  
C      1  0.3091951306788  0.7191591908265  0.7658662040103 1.0
C      1  0.4578638445776  0.2067309717074  0.7797555254497 1.0
C      1  0.8367385932616  0.5868858460217  0.7290734539350 1.0
C      1  0.8041777931674  0.6026900582103  0.3113760780574 1.0
C      1  0.2143927528221  0.7101694267155  0.3794814294116 1.0
C      1  0.3835129193374  0.1758427432665  0.3387334335639 1.0
C      1  0.5511752847904  0.6587245068657  0.3540289032025 1.0
C      1  0.2854390624416  0.4926306173951  0.3635436441702 1.0
C      1  0.5808029539231  0.3415582952253  0.3451297068117 1.0
C      1  0.5663732668809  0.7228050606565  0.4207228217342 1.0
C      1  0.2276181508094  0.4642802198825  0.4359694500388 1.0
C      1  0.6448558070053  0.3082884714951  0.4033944305282 1.0
C      1  0.7524457523836  0.4402131307356  0.3875674619512 1.0
C      1  0.4064465305808  0.7572476617618  0.4173246932752 1.0
C      1  0.2781218239887  0.3086580776448  0.4042906687447 1.0
C      1  0.3591991355077  0.4357484426439  0.2371043948184 1.0
C      1  0.5788971534269  0.4351466087964  0.2261095521381 1.0
C      1  0.4444850622461  0.6180339716697  0.2027885889856 1.0
C      1  0.5055353568172  0.3077298549697  0.5360373145313 1.0
C      1  0.6711284586382  0.5893455301738  0.5185747959124 1.0
C      1  0.3699727282599  0.5629447872298  0.5341127245557 1.0
C      1  0.3892173674098  0.7681601165583  0.7928438909371 1.0
C      1  0.3830841613058  0.2437112626208  0.8300259619323 1.0
C      1  0.8469619802531  0.5004490118655  0.7730899094099 1.0
C      1  0.6201304257008  0.5111161952699  0.7123477689477 1.0
C      1  0.4746567549577  0.5875691089419  0.7131563387238 1.0
C      1  0.4846379947654  0.4251415495087  0.7205658932970 1.0
C      1  0.3540130668663  0.4188365479235  0.8950027620583 1.0
C      1  0.7232389086009  0.3862712049737  0.8574251826319 1.0
C      1  0.5658137582289  0.7245234409319  0.8604031708706 1.0
C      1  0.7900080282629  0.4169835519736  0.2322732678924 1.0
C      1  0.3542077723134  0.8262300540205  0.2924795521777 1.0
C      1  0.2587062854978  0.2481553411571  0.2278757149590 1.0
C      1  0.4876777688664  0.0350098076956  0.2942767078844 1.0
C      1  0.8347620261910  0.7805121616942  0.2651141803083 1.0
C      1  0.0383274184653  0.6296342774789  0.3810138561477 1.0
C      1  0.4877624891327  0.2936973517966  0.6247864861089 1.0
C      1  0.7137041024396  0.5848193750810  0.6045869586007 1.0
C      1  0.4080524657859  0.6388943826633  0.5660971674727 1.0
C      1  0.6391941622014  0.2597202460226  0.7462027496979 1.0
C      1  0.6982828457643  0.7196880841596  0.7302743527736 1.0
C      1  0.2653127262275  0.5348469604736  0.7877821007283 1.0
C      1  0.4431435638473  0.2801759660775  0.8962449998138 1.0
C      1  0.8013063754576  0.5310044075471  0.8525094868731 1.0
C      1  0.4022680477388  0.7155685967574  0.8740518492259 1.0
C      1  0.8069935588938  0.4296390912440  0.7233726924557 1.0
C      1  0.4665379906084  0.7818920622223  0.7384956746568 1.0
C      1  0.3293377898761  0.3043108520881  0.7785334632450 1.0
C      1  0.0969148485500  0.4176116780142  0.5805292847820 1.0
C      1  0.7853821255188  0.2235010678498  0.4936554811697 1.0
C      1  0.6042107344203  0.8862992317831  0.5183268905903 1.0
C      1  0.0903984435499  0.3401140146536  0.5512349971785 1.0
C      1  0.8693844903805  0.2547800896710  0.5222616254180 1.0
C      1  0.5991778663649  0.9541020752980  0.5756967670381 1.0
C      1  0.7910095842029  0.6205154410205  0.8097159390688 1.0
C      1  0.3226508747361  0.6634528714620  0.8484596220937 1.0
C      1  0.5202102105759  0.2383651188702  0.8480511680562 1.0
C      1  0.3546956500410  0.1062025723204  0.4827523041050 1.0
C      1  0.9471233916654  0.6113310572076  0.4128549692341 1.0
C      1  0.2292379704465  0.7895543470956  0.5230129242546 1.0
C      1  0.7817025922557  0.3254960413153  0.2408909771708 1.0
C      1  0.4331406073210  0.8703150757188  0.2664755143275 1.0
C      1  0.1779728115311  0.2941536900568  0.2314355981106 1.0
C      1  0.9006948592917  0.4144908186698  0.4488563759426 1.0
C      1  0.3703152960487  0.9087162785859  0.4367732408329 1.0
C      1  0.1713936340429  0.2129540905480  0.4770078242074 1.0
C      1  0.7839195634387  0.7048393999808  0.5288104298047 1.0
C      1  0.2409530221016  0.6194471219134  0.6212669385851 1.0
C      1  0.5501745841429  0.1566323121537  0.5662396353899 1.0
C      1  0.4507895139383  0.7497404475530  0.6514296133599 1.0
C      1  0.3706691797472  0.2945364446561  0.6911575223978 1.0
C      1  0.7791119421887  0.4724853941463  0.6402680002905 1.0
C      1  0.5142045307203  0.5990010902197  0.9319008219580 1.0
C      1  0.5015250398972  0.4347556828539  0.9361923371062 1.0
C      1  0.6499237186274  0.5035412015153  0.9254301772031 1.0
C      1  0.6019789930454  0.4358525667757  0.3226005596755 1.0
C      1  0.4624849429201  0.6261235930611  0.3534201452048 1.0
C      1  0.3513829233449  0.4266496683563  0.3364622727783 1.0
C      1  0.5216887365219  0.2868855019166  0.2721833335475 1.0
C      1  0.6086764219122  0.6581588206607  0.2676176155491 1.0
C      1  0.2606065122555  0.5591531785762  0.2845210635711 1.0
C      1  0.2570394573850  0.4198548117213  0.1640223059272 1.0
C      1  0.6429110917264  0.3460613484432  0.1554354998062 1.0
C      1  0.4877709425988  0.7434469233840  0.1772730004421 1.0
C      1  0.7388968459045  0.1819092399345  0.3028552284525 1.0
C      1  0.5692249781746  0.8905393607716  0.3427109088240 1.0
C      1  0.0781082356084  0.3846115617680  0.3149521205825 1.0
C      1  0.8118192890602  0.5792286025331  0.6281356511719 1.0
C      1  0.3703736228321  0.7131864125900  0.6158414287486 1.0
C      1  0.4464205784372  0.2156309439830  0.6775272872797 1.0
C      1  0.6991729126814  0.1945604711792  0.5167786362916 1.0
C      1  0.6684070121310  0.8139931599181  0.5169952916639 1.0
C      1  0.1426792965321  0.4983239285483  0.5830078705892 1.0
C      1  0.3058893956045  0.5751090576847  0.8672511666547 1.0
C      1  0.6071638245983  0.2686182936613  0.8409606465338 1.0
C      1  0.7219880054391  0.6816380381433  0.8189674430107 1.0
C      1  0.5685829328065  0.4843867272926  0.1042359427874 1.0
C      1  0.4397783624833  0.5732261989421  0.1176005987340 1.0
C      1  0.4095935057716  0.4194485211104  0.1060678271368 1.0
C      1  0.1099322607345  0.2975844480648  0.2985549912948 1.0
C      1  0.7971264833864  0.2563425966096  0.3138476749964 1.0
C      1  0.4839677104329  0.9416783703916  0.3203072054952 1.0
C      1  0.2820149334068  0.7043464667930  0.6641000002669 1.0
C      1  0.4623379878654  0.1400794617818  0.6108945954361 1.0
C      1  0.8536619024293  0.6392032138414  0.5566199592834 1.0
C      1  0.2090280454296  0.3732818421786  0.4152578915062 1.0
C      1  0.7298174071441  0.3524848655802  0.4101800262656 1.0
C      1  0.4941938543460  0.7803776282160  0.4399754910105 1.0
C      1  0.2739477299054  0.5734829296669  0.5452558731816 1.0
C      1  0.5472587129322  0.2253584585348  0.4992377714280 1.0
C      1  0.7118132604614  0.6704618664815  0.4778527814327 1.0
C      1  0.8463312463934  0.4718387476861  0.3993020169216 1.0
C      1  0.3326301381853  0.8278909470082  0.3979591147185 1.0
C      1  0.2500676365091  0.2182114296702  0.4311098253612 1.0
C      1  0.1049717551344  0.5935221977932  0.3285086888489 1.0
C      1  0.5280084450137  0.1190252389847  0.2723535974029 1.0
C      1  0.7422783547541  0.7582825886399  0.2761894211556 1.0
C      1  0.5737934465196  0.1965788122193  0.2568134444958 1.0
C      1  0.6508865414547  0.7532954330974  0.2694294051202 1.0
C      1  0.1570979064959  0.5359436702268  0.2792251692736 1.0
C      1  0.1287452008770  0.6691219514866  0.3791577572944 1.0
C      1  0.4401462927167  0.1116728594125  0.3081721215547 1.0
C      1  0.8094687768684  0.6936843369624  0.2900053238352 1.0
C      1  0.3997547994075  0.1096113746713  0.5540421172190 1.0
C      1  0.9161970454463  0.6298378634773  0.4951737612119 1.0
C      1  0.2342317259205  0.7749611878558  0.6054801005918 1.0
C      1  0.3852261513714  0.6722474101799  0.3798947599045 1.0
C      1  0.3564272799994  0.3334667085377  0.3615096579650 1.0
C      1  0.6845850221160  0.4865903710870  0.3418049457873 1.0
C      1  0.4025873621712  0.7063830173830  0.2014976639933 1.0
C      1  0.3451811179737  0.3665086783276  0.1640235007470 1.0
C      1  0.6512142867407  0.4486384570353  0.1543617657059 1.0
C      1  0.4593674252334  0.6535595371475  0.6435477782556 1.0
C      1  0.4401684883190  0.3550793128588  0.6785132875735 1.0
C      1  0.6944543361757  0.5109054121552  0.6588511133465 1.0
C      1  0.3032765492172  0.5055696477237  0.1917106553009 1.0
C      1  0.5454316901394  0.3490579109117  0.1846995286148 1.0
C      1  0.5429997581941  0.6519851504683  0.1835985960438 1.0
C      1  0.4271137116705  0.5033632560064  0.7301280360075 1.0
C      1  0.5817944752050  0.4242371513265  0.7231453020429 1.0
C      1  0.5715032472204  0.5935042686452  0.7184983224242 1.0
C      1  0.1289508127102  0.4468947086946  0.2601286529700 1.0
C      1  0.6695773017641  0.2104884135680  0.2462814053587 1.0
C      1  0.5886598491079  0.8289777965179  0.2748815995185 1.0
C      1  0.5494033525099  0.7492171964229  0.7704830249106 1.0
C      1  0.3232429740495  0.3930105701893  0.8074574683056 1.0
C      1  0.7407347425969  0.3773927080631  0.7633855920470 1.0
C      1  0.5058795292079  0.8219882693284  0.2219208264662 1.0
C      1  0.1817830822579  0.3887784137287  0.2027622486614 1.0
C      1  0.6998037464129  0.2919774241392  0.2000203147524 1.0
C      1  0.4402418854935  0.4932723381394  0.5188629972653 1.0
C      1  0.4991983514049  0.4064693401554  0.5110883763966 1.0
C      1  0.5944602544797  0.5364597910732  0.5067898388888 1.0
C      1  0.6505488356774  0.7422360645549  0.4601171245061 1.0
C      1  0.2053253577245  0.5135395440791  0.5122104723292 1.0
C      1  0.6329727259588  0.2317980369924  0.4587835475931 1.0
C      1  0.6438602756498  0.6700541825192  0.8773367884421 1.0
C      1  0.3663582929024  0.5121715434130  0.9118425491613 1.0
C      1  0.6418648207066  0.3478203926826  0.8885426799432 1.0
C      1  0.4562362475059  0.5613642436643  0.2833430832336 1.0
C      1  0.4287715959151  0.4688708879371  0.2922361885207 1.0
C      1  0.5226348920705  0.4852112775230  0.2839241153356 1.0
C      1  0.5009806501543  0.4086446026413  0.1125283584130 1.0
C      1  0.5346533500260  0.5728289091655  0.1096159473645 1.0
C      1  0.3745827265568  0.5110036248276  0.1121844733571 1.0
C      1  0.4857249926974  0.6874461698311  0.9025974133274 1.0
C      1  0.4331738309171  0.3681907162854  0.9218888809533 1.0
C      1  0.7361144855576  0.4777364112711  0.8911514922250 1.0
C      1  0.4043750657710  0.2682055878585  0.2981118328244 1.0
C      1  0.7157689592976  0.5583663269320  0.2789554104038 1.0
C      1  0.2925036486126  0.6678456342152  0.3219534756197 1.0
C      1  0.1918715230626  0.5430935208324  0.7394353127914 1.0
C      1  0.6495940317703  0.1981155530396  0.6823929486598 1.0
C      1  0.7350034010086  0.7663777704692  0.6635273832396 1.0
C      1  0.7318934203644  0.4837974853565  0.2036380445135 1.0
C      1  0.3347071961309  0.7380634226721  0.2553720787001 1.0
C      1  0.3428911062319  0.2786902119496  0.2121675770683 1.0
C      1  0.1188072521459  0.3349777210502  0.3924617054357 1.0
C      1  0.8005963623985  0.2836003351554  0.4128179936861 1.0
C      1  0.5357956307792  0.8747331152805  0.4411857314154 1.0
C      1  0.6492299215650  0.3560197938371  0.7228305088821 1.0
C      1  0.6059166186239  0.6836032551989  0.7179427739834 1.0
C      1  0.3373778085843  0.4765144646425  0.7511657448437 1.0
C      1  0.4601858907435  0.5222431440277  0.9346563123461 1.0
C      1  0.5940263197400  0.4236817576138  0.9280048851220 1.0
C      1  0.6109030925683  0.5900441349773  0.9219526572193 1.0
C      1  0.1108515055485  0.2817616921243  0.4804949995363 1.0
C      1  0.8816612641438  0.3299862180341  0.4665720113345 1.0
C      1  0.4529544719480  0.9303347235756  0.4219676191113 1.0
C      1  0.8688107456148  0.5594569351340  0.3660769922175 1.0
C      1  0.2466245232633  0.7837668249937  0.4316704014932 1.0
C      1  0.3243307795184  0.1582506408551  0.4138504012277 1.0
C      1  0.1691938680878  0.5608227099155  0.6539236073804 1.0
C      1  0.6438158205526  0.1660174272795  0.5980188704290 1.0
C      1  0.7437417071588  0.7828916117193  0.5749188729796 1.0
C      1  0.5195813979142  0.4895529384001  0.4565830867007 1.0
C      1  0.5296144001947  0.4865429195979  0.5641628199779 1.0
END
