TITL C-85723-4404-8 -10.081 3375.00 -1580.82948233 0 0 186 (C1) n - 1
REM
REM Run started: at 2020.11.28 11:08:34 in /rds/project/t2_vol4/rds-t2-cs072/BORA/CARBON/AIRSS/Generating-Clusters/Str-Search/Higher-Symm
REM VASP from code version vasp.5.4.4.18Apr17-6-g9f103f2a35 (build Oct 11 2019 16:45:47) gamma-only
REM
REM
REM
REM
REM ./C.cell (e5ae0387ce4d49c7c0135a1433873289)
REM AIRSS Version 0.9.1 bugfix July 2018 build 013d7b7c2542+ Fri, 06 Jul 2018 19:26:36 +0100
REM compiler GCC version 4.8.5 20150623 (Red Hat 4.8.5-39)
REM options -cpp -mtune=generic -march=x86-64 -g -O0
REM seed 1523632893 955951521 -101581782 2068292384 -1589601374 -423457389 909917611 1953651751 -1654581697 -1648615968 202646433 475036682
REM
REM C.POTCAR (d86ddea03c3ceb6dc662c8ad6801f873)
REM 
CELL 1.54180   15.00000   15.00000   15.00000   90.00000   90.00000   90.00000
LATT -1
SFAC C  
C      1  0.3088042106069  0.3152611409795  0.2579229697105 1.0
C      1  0.2593004925516  0.6186183105234  0.2563599194825 1.0
C      1  0.5315428827470  0.7656767819875  0.2494791831085 1.0
C      1  0.7465660351634  0.5427361985016  0.2549679614114 1.0
C      1  0.6120166024065  0.2618747712696  0.2518941215239 1.0
C      1  0.3221397522909  0.3137622293992  0.7499345626913 1.0
C      1  0.2759648944973  0.6189828184971  0.7503916822236 1.0
C      1  0.5496002836691  0.7477315834101  0.7343015809198 1.0
C      1  0.7705244631109  0.5357392650065  0.7408592782118 1.0
C      1  0.6261983869448  0.2566563798241  0.7440681242062 1.0
C      1  0.7069848141723  0.4660653797588  0.4586037200485 1.0
C      1  0.5342421704409  0.2717396172532  0.4546120396392 1.0
C      1  0.3075767650583  0.4022271463005  0.4602316564277 1.0
C      1  0.3472092374061  0.6566987147577  0.4539206638294 1.0
C      1  0.5986825633542  0.7082049181811  0.4435748831255 1.0
C      1  0.7010121432210  0.4711337404542  0.5576284607765 1.0
C      1  0.5346270431830  0.2671263369839  0.5443606881100 1.0
C      1  0.3115899793764  0.4021856297602  0.5500117738444 1.0
C      1  0.3505418613189  0.6569483442599  0.5438650364277 1.0
C      1  0.6074856550785  0.7169943452972  0.5314021242914 1.0
C      1  0.7032956795304  0.4169383718866  0.8161845403200 1.0
C      1  0.4943252110455  0.2870595481726  0.8226514753234 1.0
C      1  0.3069524634101  0.4491336085695  0.8279592983868 1.0
C      1  0.4005028647201  0.6781136749766  0.8235879837433 1.0
C      1  0.6490049935713  0.6600408004717  0.8196535720681 1.0
C      1  0.6843294307123  0.4217888545098  0.1767202436936 1.0
C      1  0.4775228561281  0.2893005679125  0.1766681379851 1.0
C      1  0.2879498347470  0.4485132142014  0.1776622745294 1.0
C      1  0.3787594380339  0.6786751818034  0.1756351461639 1.0
C      1  0.6249093916159  0.6635572812249  0.1766991924634 1.0
C      1  0.4334472515516  0.6656116278092  0.5899180451263 1.0
C      1  0.6404603750109  0.6667497898204  0.6054832610888 1.0
C      1  0.6595243590377  0.3799508286925  0.5883679970604 1.0
C      1  0.4624470769684  0.3156504968461  0.5908105100658 1.0
C      1  0.3341103040875  0.4840174098013  0.5959509006609 1.0
C      1  0.4291165101716  0.6650306431456  0.4044683928388 1.0
C      1  0.6285403712241  0.6243184733461  0.4047466742550 1.0
C      1  0.6516268569862  0.4055611323255  0.4099806264299 1.0
C      1  0.4638565411143  0.3236792469298  0.4105712519125 1.0
C      1  0.3237575616665  0.4820258953915  0.4096197969012 1.0
C      1  0.3128616481450  0.6092019179769  0.1773138557810 1.0
C      1  0.5390898039854  0.7058761399028  0.1747461871461 1.0
C      1  0.6968468252243  0.5172643819856  0.1779373854395 1.0
C      1  0.5715663300526  0.3053360593058  0.1759930441599 1.0
C      1  0.3333471510468  0.3641207959910  0.1789042910543 1.0
C      1  0.3333000036515  0.6095873514174  0.8264002297412 1.0
C      1  0.5611958059836  0.7004417250187  0.8156497943491 1.0
C      1  0.7193863739668  0.5119514817442  0.8180865855273 1.0
C      1  0.5885433733597  0.3018091163940  0.8199736318000 1.0
C      1  0.3512245650519  0.3641054232894  0.8261936779370 1.0
C      1  0.8720536546998  0.5086951034260  0.5696261300078 1.0
C      1  0.6178958376547  0.1190193436383  0.5736571011266 1.0
C      1  0.2037940400585  0.2769277616554  0.5837943675906 1.0
C      1  0.1974138240970  0.7114178239846  0.5823128894186 1.0
C      1  0.6040521974728  0.8770657583864  0.5718345117161 1.0
C      1  0.8640343927596  0.5080825974948  0.4185228858705 1.0
C      1  0.6153911238059  0.1228200743169  0.4178670201778 1.0
C      1  0.2007201063582  0.2785863765598  0.4300346321553 1.0
C      1  0.1909629622416  0.7105275413536  0.4280713868248 1.0
C      1  0.5968378052654  0.8822267160085  0.4164003984429 1.0
C      1  0.4747105280530  0.0741408492025  0.3589181742655 1.0
C      1  0.0945160092502  0.3839616979096  0.3805229675413 1.0
C      1  0.2506109216462  0.8464240599430  0.3685850089960 1.0
C      1  0.7443298643575  0.8414613415759  0.3650709143094 1.0
C      1  0.8914618904734  0.3616563899678  0.3571946454937 1.0
C      1  0.4801949654908  0.0738006468043  0.6380528209898 1.0
C      1  0.1002608080937  0.3820194504028  0.6441269010267 1.0
C      1  0.2616563899374  0.8462728707477  0.6393158916337 1.0
C      1  0.7561808245669  0.8410272051608  0.6232969009657 1.0
C      1  0.8997744552828  0.3579892234446  0.6179240087997 1.0
C      1  0.7881564758043  0.7822573204767  0.4028744213582 1.0
C      1  0.8523387557399  0.2990913943156  0.3947862712946 1.0
C      1  0.4092739318386  0.0983954107878  0.4034815405738 1.0
C      1  0.0841804578962  0.4572478303778  0.4212648756380 1.0
C      1  0.3200957568083  0.8702873092561  0.4070396780896 1.0
C      1  0.8083616472091  0.7851162666969  0.5902099080527 1.0
C      1  0.8617520324299  0.2933487009652  0.5828208456853 1.0
C      1  0.4117166120009  0.0942360567995  0.5961046181354 1.0
C      1  0.1015807098919  0.4553851996663  0.6048109042642 1.0
C      1  0.3290767963993  0.8704003704824  0.5974677044229 1.0
C      1  0.2547597176761  0.6309067672048  0.5563685247390 1.0
C      1  0.5477145423477  0.7957768708199  0.5439444908141 1.0
C      1  0.7768388257769  0.5445769152933  0.5525380735198 1.0
C      1  0.6267675653819  0.2200919070509  0.5499545770827 1.0
C      1  0.2993965336554  0.3021861802179  0.5581323594516 1.0
C      1  0.2500345691655  0.6297649853104  0.4500357985672 1.0
C      1  0.5435696716423  0.7954440107668  0.4395268214589 1.0
C      1  0.7697837246370  0.5419719405690  0.4478252464750 1.0
C      1  0.6246214875861  0.2243127449372  0.4441521733840 1.0
C      1  0.2973667273501  0.3029253803904  0.4519350109670 1.0
C      1  0.6751059485376  0.6956451556941  0.2524610488225 1.0
C      1  0.7266843499670  0.3824819547109  0.2524092690879 1.0
C      1  0.4557454246886  0.2358488870139  0.2535564783004 1.0
C      1  0.2329248470263  0.4549987210691  0.2557677189444 1.0
C      1  0.3672751087597  0.7355207681100  0.2519853384818 1.0
C      1  0.6998105464224  0.6857025226145  0.7447773117856 1.0
C      1  0.7449449351509  0.3766235827071  0.7394528937761 1.0
C      1  0.4685141115773  0.2322389779389  0.7480333465578 1.0
C      1  0.2483219193057  0.4550165852286  0.7526386450582 1.0
C      1  0.3850553944414  0.7347629573206  0.7478093197804 1.0
C      1  0.3724243105928  0.2570583232037  0.3000048634556 1.0
C      1  0.2255501129948  0.5409912944951  0.3006666937559 1.0
C      1  0.4471568428383  0.7744111828440  0.2935638675183 1.0
C      1  0.7333601899044  0.6286176105085  0.2966812411226 1.0
C      1  0.6865775272470  0.3031750422273  0.2948816414391 1.0
C      1  0.3821265079480  0.2527695379887  0.7060075783672 1.0
C      1  0.2398530334062  0.5414451266462  0.7080710192259 1.0
C      1  0.4635694599041  0.7667685717033  0.6986615888724 1.0
C      1  0.7573877800533  0.6223884194621  0.7016643504151 1.0
C      1  0.7016463730783  0.2956234493260  0.6990017272425 1.0
C      1  0.7344855789137  0.6255641233947  0.4006522999159 1.0
C      1  0.6873396710448  0.2957659994914  0.3982067469441 1.0
C      1  0.3759265471579  0.2605554894172  0.4035252711523 1.0
C      1  0.2342217027741  0.5402654161619  0.4041863765836 1.0
C      1  0.4532550130317  0.7731289758679  0.3965686142779 1.0
C      1  0.7490877047956  0.6322440979048  0.6002532622821 1.0
C      1  0.6970447175067  0.2852835432846  0.5943877501368 1.0
C      1  0.3780630913107  0.2555906010180  0.6021372698705 1.0
C      1  0.2440439627029  0.5422115247136  0.6047656107134 1.0
C      1  0.4613947924950  0.7696893996048  0.5949628927483 1.0
C      1  0.5653335556299  0.5554525294867  0.3894199101184 1.0
C      1  0.5713387767436  0.4533709734953  0.3904507682883 1.0
C      1  0.4786953640934  0.4165932908929  0.3938524484719 1.0
C      1  0.4152576515632  0.4956515158396  0.3916435709586 1.0
C      1  0.4694374538990  0.5802342119518  0.3879158009260 1.0
C      1  0.5772294297666  0.5870037160717  0.6145480299384 1.0
C      1  0.5754371120899  0.4216498186327  0.5984546771797 1.0
C      1  0.4808613392406  0.4076929332006  0.6043683763023 1.0
C      1  0.4271549543865  0.4955509147360  0.6096735203263 1.0
C      1  0.4779648345907  0.5862068039854  0.6136535309651 1.0
C      1  0.4182031915490  0.3531870822422  0.1390527960017 1.0
C      1  0.3288825942893  0.5244500189793  0.1385167975623 1.0
C      1  0.4638257294243  0.6624969163265  0.1370916727321 1.0
C      1  0.6349415661069  0.5767379978357  0.1390458629016 1.0
C      1  0.6066560121091  0.3845048693591  0.1379318845795 1.0
C      1  0.4375716459438  0.3524681131192  0.8620394213685 1.0
C      1  0.3502998217655  0.5250162100967  0.8644342092274 1.0
C      1  0.4865109035983  0.6611402210150  0.8594460515520 1.0
C      1  0.6593138389853  0.5728222786117  0.8584791916649 1.0
C      1  0.6261614160404  0.3809816558310  0.8565719653677 1.0
C      1  0.2372106765670  0.7558660990971  0.6565022634800 1.0
C      1  0.6635490487957  0.8395358976577  0.6369398483753 1.0
C      1  0.8714646747928  0.4449395705970  0.6405567036881 1.0
C      1  0.5621954798693  0.1193380443964  0.6525779793397 1.0
C      1  0.1767291297838  0.3276895381541  0.6592857921938 1.0
C      1  0.2260609208723  0.7558349050678  0.3521022526266 1.0
C      1  0.6528262114207  0.8486038819861  0.3422524418280 1.0
C      1  0.8569051055741  0.4492668199918  0.3443885702859 1.0
C      1  0.5551194828606  0.1234835294900  0.3435067915775 1.0
C      1  0.1687582891980  0.3313488854203  0.3572827051094 1.0
C      1  0.4542316331159  0.4272203759225  0.0932241356291 1.0
C      1  0.4101181674836  0.5121692767710  0.0930882016581 1.0
C      1  0.4768912385208  0.5803743390045  0.0928572227245 1.0
C      1  0.5622629466957  0.5378268275250  0.0933280953004 1.0
C      1  0.5481949634984  0.4431924576108  0.0934158381370 1.0
C      1  0.4761556659148  0.4264506247340  0.9056293110174 1.0
C      1  0.4332964024540  0.5119878159119  0.9066202157501 1.0
C      1  0.5004007469417  0.5794222021433  0.9049357032455 1.0
C      1  0.5856929990915  0.5350660832558  0.9032906991923 1.0
C      1  0.5703581288712  0.4408195169168  0.9033462452825 1.0
C      1  0.7825980957868  0.7029834504076  0.4510314514117 1.0
C      1  0.7767817381406  0.2807655555971  0.4453083869776 1.0
C      1  0.3814860577965  0.1708322335939  0.4546843474616 1.0
C      1  0.1553678192614  0.5051766767684  0.4617971857191 1.0
C      1  0.3919148272311  0.8334553564528  0.4524422533024 1.0
C      1  0.7947459388774  0.7044523403237  0.5444023122011 1.0
C      1  0.7818808279175  0.2758293981888  0.5386050755543 1.0
C      1  0.3820421183719  0.1682957274476  0.5479641825114 1.0
C      1  0.1617476030861  0.5054523861230  0.5545521965929 1.0
C      1  0.3960637619416  0.8326052376612  0.5459497800762 1.0
C      1  0.6232600609608  0.7764919986604  0.2853389448002 1.0
C      1  0.7806147291386  0.4571095114217  0.2898931162676 1.0
C      1  0.5430220170278  0.2013376069109  0.2880450386234 1.0
C      1  0.2322425578200  0.3646403904329  0.2946999816781 1.0
C      1  0.2808442201817  0.7076011145284  0.2914329580464 1.0
C      1  0.6385899210264  0.7437335999078  0.6834268162348 1.0
C      1  0.8011217566486  0.4500982182749  0.7036249081570 1.0
C      1  0.5542825465647  0.1966774163254  0.7100962156213 1.0
C      1  0.2443071156360  0.3631142139139  0.7161631245923 1.0
C      1  0.2959359256644  0.7075330798899  0.7136321356795 1.0
C      1  0.9226387417509  0.4998930620775  0.4903786733707 1.0
C      1  0.1574505010658  0.7489973028010  0.5064298822244 1.0
C      1  0.6197765539826  0.0571082246424  0.4951183128330 1.0
C      1  0.1530276908031  0.2582398339358  0.5076416541295 1.0
C      1  0.6089069976489  0.9464278592001  0.4934562887573 1.0
C      1  0.6137728347525  0.5074446118422  0.5918655023794 1.0
END
