TITL C-87289-9130-4 -12.669 3375.00 -2676.87907854 0 0 322 (C1) n - 1
REM
REM Run started: at 2020.11.26 22:39:05 in /rds/project/t2_vol4/rds-t2-cs072/BORA/CARBON/AIRSS/Generating-Clusters/Str-Search/Higher-Symm
REM VASP from code version vasp.5.4.4.18Apr17-6-g9f103f2a35 (build Oct 11 2019 16:45:47) gamma-only
REM
REM
REM
REM
REM ./C.cell (e5ae0387ce4d49c7c0135a1433873289)
REM AIRSS Version 0.9.1 bugfix July 2018 build 013d7b7c2542+ Fri, 06 Jul 2018 19:26:36 +0100
REM compiler GCC version 4.8.5 20150623 (Red Hat 4.8.5-39)
REM options -cpp -mtune=generic -march=x86-64 -g -O0
REM seed 1779070825 -1742483646 1689329351 -549262019 -1065969291 1703567431 547963539 -603729387 -1105768333 -1600131435 -2079248588 -929704653
REM
REM C.POTCAR (d86ddea03c3ceb6dc662c8ad6801f873)
REM 
CELL 1.54180   15.00000   15.00000   15.00000   90.00000   90.00000   90.00000
LATT -1
SFAC C  
C      1  0.7105936933884  0.5286724472804  0.4661840202140 1.0
C      1  0.6266517177689  0.4812966713008  0.3009598462784 1.0
C      1  0.4625181773855  0.5052254220373  0.2748828658792 1.0
C      1  0.2998989547876  0.4414828264737  0.3567081437837 1.0
C      1  0.2716311850871  0.4866043436380  0.5231669866834 1.0
C      1  0.3450493285859  0.4577204448955  0.6978833936368 1.0
C      1  0.5130929228774  0.4877968012569  0.7258003493819 1.0
C      1  0.6403267737324  0.4468017074865  0.6084182074648 1.0
C      1  0.6252248473785  0.5054485525921  0.4101497549609 1.0
C      1  0.5384639494349  0.4372874211494  0.2883061730127 1.0
C      1  0.3947431573259  0.4824240445017  0.3631393861422 1.0
C      1  0.2826373055165  0.4141371926954  0.4566014786161 1.0
C      1  0.3280739537762  0.4970886093158  0.6086709169243 1.0
C      1  0.4407240056657  0.4193117711208  0.7260365220205 1.0
C      1  0.5638788654320  0.5121071857082  0.6416183430476 1.0
C      1  0.7252459250799  0.4837265929432  0.5613993845565 1.0
C      1  0.6937856867238  0.0586921213729  0.4603503897040 1.0
C      1  0.6238096051365  0.0047473961160  0.4059569172111 1.0
C      1  0.5255122604524  0.0461550559088  0.4002323254849 1.0
C      1  0.4443782358083  0.9986017950387  0.3457188441099 1.0
C      1  0.2953009112169  0.0593551541578  0.5431498662766 1.0
C      1  0.3415234741110  0.9982487550087  0.6108729718260 1.0
C      1  0.5494163925825  0.0321000339268  0.6884567358956 1.0
C      1  0.6391378622624  0.0055176244459  0.6542021107654 1.0
C      1  0.5434693677104  0.6831004400121  0.2799770288008 1.0
C      1  0.3473365521769  0.2755038039299  0.3243496220665 1.0
C      1  0.2363925678571  0.7238151467108  0.4712752292059 1.0
C      1  0.2773868452599  0.3035749445698  0.6890170603197 1.0
C      1  0.4301352274506  0.7450532129281  0.7496649620563 1.0
C      1  0.6293685612975  0.2854264361363  0.6824438436261 1.0
C      1  0.6975514380312  0.7114443243982  0.5023441254390 1.0
C      1  0.7207181731293  0.3151064813329  0.3453819949542 1.0
C      1  0.3700421171010  0.7325792927731  0.9002642418414 1.0
C      1  0.7354771025792  0.3004585105747  0.8883040460708 1.0
C      1  0.9362342616706  0.7535086169764  0.6289573818557 1.0
C      1  0.9031590392132  0.2862352183105  0.2794781957878 1.0
C      1  0.6678398559955  0.7832189327535  0.0713028419862 1.0
C      1  0.3294558177721  0.2673543545929  0.0985105182445 1.0
C      1  0.0649391348544  0.8428820681243  0.3708257308818 1.0
C      1  0.0901465835052  0.2803804900516  0.7199931130888 1.0
C      1  0.6235040217090  0.1007802731666  0.2827703507875 1.0
C      1  0.4476051404876  0.8980396387512  0.2433559412277 1.0
C      1  0.3062817720612  0.1133924672321  0.3788896624334 1.0
C      1  0.2246414206261  0.9209896272069  0.5685916535331 1.0
C      1  0.3793372629445  0.0901067852756  0.7327615434004 1.0
C      1  0.5789556624365  0.9307986175477  0.7793987995394 1.0
C      1  0.7520927928327  0.1047870775709  0.6041634995641 1.0
C      1  0.7584374668073  0.9231850890514  0.4238415453911 1.0
C      1  0.8863978742402  0.1604788363475  0.3899546692455 1.0
C      1  0.6823984812218  0.8760628280378  0.2040727902765 1.0
C      1  0.4283179245136  0.1521610972199  0.1454422862276 1.0
C      1  0.1979602429601  0.9331436450527  0.3879404941597 1.0
C      1  0.1113418859501  0.1686655795326  0.6170366307920 1.0
C      1  0.3138889266968  0.8761757213277  0.8377833115259 1.0
C      1  0.6261160851213  0.1754217135866  0.8672097612661 1.0
C      1  0.8281434459573  0.8637625380310  0.6792695332206 1.0
C      1  0.3008020988741  0.3618032124638  0.9386169659713 1.0
C      1  0.6565564629811  0.6198181976646  0.8309911482920 1.0
C      1  0.9311990005986  0.3564056706177  0.6318417905848 1.0
C      1  0.9280478072295  0.6101437319824  0.3216714033959 1.0
C      1  0.6611147025451  0.3352352524761  0.0621900207062 1.0
C      1  0.3206656569255  0.6102302431751  0.0741087467588 1.0
C      1  0.1305870195270  0.3598312400651  0.3133721047212 1.0
C      1  0.1387711688181  0.6071744378078  0.6486951116251 1.0
C      1  0.4665990106048  0.1933597487171  0.4531511559547 1.0
C      1  0.3666107421124  0.8740929865388  0.4767735892538 1.0
C      1  0.4549266598538  0.1311602743112  0.5764422547295 1.0
C      1  0.4770787566394  0.8428830347727  0.5823385095802 1.0
C      1  0.5985496816764  0.2083687553674  0.6256452337967 1.0
C      1  0.6366067708932  0.8579709392571  0.5181179911404 1.0
C      1  0.5623463241954  0.1904807851476  0.4714369213993 1.0
C      1  0.5070467248898  0.8476980797914  0.4115613405158 1.0
C      1  0.4764540792375  0.3924675026877  0.0246379336031 1.0
C      1  0.2321305256019  0.5192380996826  0.1561904376328 1.0
C      1  0.0254443366292  0.4095872772158  0.5138553425934 1.0
C      1  0.1737531354762  0.5361331296242  0.7887917485348 1.0
C      1  0.5560800480211  0.3950479524686  0.9619352226363 1.0
C      1  0.8032264725240  0.5622882622697  0.8185999119589 1.0
C      1  0.9488828727909  0.4005821208793  0.4436024296712 1.0
C      1  0.8402283360114  0.5537854372191  0.1885647992833 1.0
C      1  0.9432344907169  0.6956518588975  0.4596812467850 1.0
C      1  0.7966393724293  0.3019408346075  0.1578211105376 1.0
C      1  0.5167124059966  0.7070061541203  0.0179295074903 1.0
C      1  0.1863953165034  0.2841665923517  0.1709419741855 1.0
C      1  0.0417985120760  0.7002985816225  0.4625076230464 1.0
C      1  0.1766980350383  0.2911527880102  0.8570993840601 1.0
C      1  0.5403663643196  0.6880452892651  0.9253746952410 1.0
C      1  0.8473188726725  0.3204317793431  0.7776005703501 1.0
C      1  0.3385245283829  0.2352510470425  0.8367200108638 1.0
C      1  0.6267274181689  0.7758917134676  0.8193109241218 1.0
C      1  0.8061434738108  0.2620452751068  0.6325923169518 1.0
C      1  0.8156463741403  0.7629594722545  0.3694999861109 1.0
C      1  0.6453760882310  0.2458282381384  0.1960116146010 1.0
C      1  0.3767970849797  0.7462499641397  0.1743633012030 1.0
C      1  0.1737264989573  0.2245791858695  0.3231199792727 1.0
C      1  0.1828039295802  0.7683786357404  0.6707460325943 1.0
C      1  0.3483818680202  0.9467720647403  0.7866180157265 1.0
C      1  0.6072757644581  0.0947328042633  0.8351674316544 1.0
C      1  0.7840035444265  0.9333248282626  0.6440122570577 1.0
C      1  0.8391698592163  0.0851672885114  0.4086458035918 1.0
C      1  0.6921275755174  0.9502178324504  0.2545340793019 1.0
C      1  0.4341917226705  0.0723893467043  0.1897412384220 1.0
C      1  0.2910070964448  0.9505932531310  0.3626971984758 1.0
C      1  0.1537375513258  0.0893874887465  0.5995496191328 1.0
C      1  0.6366154945587  0.2678389625447  0.9012495577125 1.0
C      1  0.8965151310796  0.8028703954796  0.6853049765174 1.0
C      1  0.9288674755374  0.2481924706987  0.3746491983320 1.0
C      1  0.7122209452329  0.8321464562017  0.1245087843813 1.0
C      1  0.4217094544754  0.2331669091097  0.0839662643593 1.0
C      1  0.1225434137186  0.9017925063557  0.3463729655914 1.0
C      1  0.0619451893475  0.2499000315078  0.6302306080475 1.0
C      1  0.3173477293846  0.8069858016284  0.8916745971694 1.0
C      1  0.7202721205825  0.4838339705856  0.1194938085554 1.0
C      1  0.4559745198419  0.5921504330484  0.1457817432958 1.0
C      1  0.1525155886468  0.4530453583378  0.2826889198646 1.0
C      1  0.1533512506120  0.5906161973362  0.5470360142597 1.0
C      1  0.2959527956628  0.4424583827762  0.8289365741052 1.0
C      1  0.5701908369743  0.5659399349501  0.8308737133631 1.0
C      1  0.8815695976136  0.5058424446391  0.6963020823734 1.0
C      1  0.8321277577900  0.6040093791397  0.4423918312906 1.0
C      1  0.8732926657980  0.3066639993063  0.6876015367380 1.0
C      1  0.8786853187420  0.6848988686358  0.3794674084310 1.0
C      1  0.7063804355015  0.2859875660113  0.1311050323597 1.0
C      1  0.3765838746625  0.6574541624576  0.1266173775299 1.0
C      1  0.1377584775241  0.2776485041617  0.2540801262688 1.0
C      1  0.1352726361937  0.6925821456541  0.6717727669657 1.0
C      1  0.2675784280882  0.2857591270511  0.8936964983355 1.0
C      1  0.6223337574147  0.7047599046068  0.8745564469531 1.0
C      1  0.8462642533445  0.4225835532965  0.4655638711377 1.0
C      1  0.7612851636525  0.6091152502011  0.2035904259454 1.0
C      1  0.4833705127231  0.4222116140551  0.1221145563529 1.0
C      1  0.2528588440288  0.5686502590645  0.2331777351754 1.0
C      1  0.1156830538257  0.4316476741523  0.4592741234377 1.0
C      1  0.2523626501635  0.5900711953079  0.7786759173471 1.0
C      1  0.5316469207571  0.3954625328640  0.8633791644816 1.0
C      1  0.7910637247951  0.6201613566247  0.7459998376799 1.0
C      1  0.3866438377579  0.5646289189031  0.4232669743331 1.0
C      1  0.3610726110252  0.3549654770989  0.4812706243494 1.0
C      1  0.3586402317921  0.5786424210211  0.5844200225545 1.0
C      1  0.4822241792986  0.3457520600425  0.6739583783041 1.0
C      1  0.5177189119196  0.5776056065841  0.5957051832260 1.0
C      1  0.5994561570965  0.3801924529311  0.5405210731771 1.0
C      1  0.5642150793267  0.5859531976346  0.4234264306858 1.0
C      1  0.5297017834408  0.3773319555952  0.3723361136606 1.0
C      1  0.5657374615061  0.5470084099317  0.0007676447573 1.0
C      1  0.2097779389001  0.3690861534123  0.1416975947388 1.0
C      1  0.9637442079634  0.5586613328586  0.3882879368075 1.0
C      1  0.1429534038822  0.3790058038774  0.8307072461268 1.0
C      1  0.4642293648698  0.5454967309337  0.9797469339698 1.0
C      1  0.8366100830636  0.4041552391536  0.8260867566538 1.0
C      1  0.9944002622933  0.5713761737211  0.5402344714056 1.0
C      1  0.8482161195944  0.3861591499911  0.1612098820853 1.0
C      1  0.4444104472915  0.4039530700135  0.4192570386489 1.0
C      1  0.3147610821293  0.5750952988946  0.4945442973207 1.0
C      1  0.4428311673011  0.3934409921400  0.5162190301122 1.0
C      1  0.4331621122858  0.6249003044079  0.6245385818427 1.0
C      1  0.5054273220327  0.3636061203419  0.5757013647801 1.0
C      1  0.5302333683874  0.6164900545495  0.5115330484965 1.0
C      1  0.6050157014332  0.4077343930160  0.4387430710950 1.0
C      1  0.4678697246085  0.5974422603991  0.4442128475869 1.0
C      1  0.3660530883592  0.1360160941864  0.2220906192710 1.0
C      1  0.1898219027101  0.8939091562355  0.4780520820138 1.0
C      1  0.1919313138127  0.1468666528766  0.6701860660222 1.0
C      1  0.4196152822295  0.8934548695350  0.8280817822805 1.0
C      1  0.6744132117529  0.1502168008457  0.7853059150581 1.0
C      1  0.7964416963664  0.8560607032267  0.5813505782182 1.0
C      1  0.7996334277157  0.1506243035025  0.3468560406758 1.0
C      1  0.5934481272628  0.8385198864672  0.2129315868629 1.0
C      1  0.3112253198959  0.1592815525612  0.7760843414059 1.0
C      1  0.5624644846698  0.8481356541483  0.8278921692250 1.0
C      1  0.7655693188213  0.1801695197603  0.6694403758987 1.0
C      1  0.8046441085025  0.8345160671605  0.4384494679272 1.0
C      1  0.6826350113005  0.1747814110888  0.2528426469463 1.0
C      1  0.4530520137659  0.8099407204443  0.1901733723083 1.0
C      1  0.2357444940064  0.1522710476938  0.3045866580923 1.0
C      1  0.1730537027344  0.8363500220476  0.5994298565370 1.0
C      1  0.2695738322916  0.3026469211876  0.5915544927594 1.0
C      1  0.4317013065494  0.7061457663816  0.6627542445525 1.0
C      1  0.5517236087028  0.2989581604935  0.7374326393994 1.0
C      1  0.6485241764838  0.6979114136470  0.5899201002271 1.0
C      1  0.6873592345656  0.3486236042705  0.4315478177414 1.0
C      1  0.5947661527897  0.6631857506526  0.3663135703205 1.0
C      1  0.4313175423428  0.2981929528255  0.2898722340887 1.0
C      1  0.2525295739959  0.7398361611502  0.3812760137518 1.0
C      1  0.2042404362990  0.1546782966159  0.7674808521543 1.0
C      1  0.4844053024679  0.8432617964304  0.8917869830185 1.0
C      1  0.7694224190456  0.1754286010987  0.7733913869832 1.0
C      1  0.8651531635747  0.8317018340232  0.5153305502535 1.0
C      1  0.7829196388421  0.1702126597380  0.2536149681605 1.0
C      1  0.5367787286558  0.8138902478203  0.1377182031288 1.0
C      1  0.2700148075193  0.1485076610985  0.2093222849559 1.0
C      1  0.1130570663675  0.8435802506027  0.5139989350924 1.0
C      1  0.7060464785786  0.4196418556946  0.2921128824767 1.0
C      1  0.5103873822678  0.5937714525132  0.2357810368257 1.0
C      1  0.2848338048546  0.3400992274019  0.3354982821083 1.0
C      1  0.2266901951676  0.6259550194778  0.4826792660096 1.0
C      1  0.2948219113203  0.3815181148367  0.7363299235489 1.0
C      1  0.4886408174358  0.5689037000768  0.7725067175170 1.0
C      1  0.6620709892331  0.3830376022128  0.6855501592369 1.0
C      1  0.7515757401025  0.6224498978744  0.4998794404373 1.0
C      1  0.2086076093647  0.7993341121955  0.5138724571796 1.0
C      1  0.2664825823103  0.2077264020671  0.6991547746179 1.0
C      1  0.4727521906782  0.8227267562900  0.7893125564626 1.0
C      1  0.6664659439986  0.1962955339486  0.6969131546133 1.0
C      1  0.7276335620857  0.8086737821742  0.5229231023230 1.0
C      1  0.7256000432991  0.2179665997812  0.3335467060232 1.0
C      1  0.5349242802503  0.7723534344248  0.2447602378461 1.0
C      1  0.3397512726328  0.1801498805619  0.3152882437148 1.0
C      1  0.6831101109013  0.6288448495478  0.6409095462646 1.0
C      1  0.7845062862439  0.3733463569724  0.3996247564232 1.0
C      1  0.6366005929198  0.6415009886338  0.2801545678726 1.0
C      1  0.4339799340534  0.3521222463195  0.2220476807335 1.0
C      1  0.2246243633714  0.6637176534646  0.3361336568030 1.0
C      1  0.1951963080133  0.3440714141132  0.5603100661500 1.0
C      1  0.3751819178967  0.6804370660427  0.8120769525758 1.0
C      1  0.5936084014728  0.3303888520661  0.8222090963797 1.0
C      1  0.9105581346096  0.3772254273261  0.2361645929310 1.0
C      1  0.6252652997457  0.4662573367014  0.9842152938061 1.0
C      1  0.3071447118849  0.3696712243157  0.1019073609050 1.0
C      1  0.9829072442915  0.4609824119691  0.3640501446212 1.0
C      1  0.0925768945915  0.3712444084588  0.7484220311720 1.0
C      1  0.4063136932943  0.4558770529697  0.9793565033221 1.0
C      1  0.7613257642712  0.3936294908939  0.8912969817723 1.0
C      1  0.9939603554475  0.4835629353773  0.5739396158993 1.0
C      1  0.1918228345339  0.3615798662784  0.4624909258432 1.0
C      1  0.2839004236451  0.6764092745333  0.7688765708459 1.0
C      1  0.4381026740053  0.3738977197890  0.8263192197675 1.0
C      1  0.6969286229414  0.6551544345053  0.7382402934973 1.0
C      1  0.7956425500496  0.4102511823030  0.5517128443437 1.0
C      1  0.7263561529863  0.6698575656565  0.2683364822813 1.0
C      1  0.5284792864645  0.3763749222956  0.2032323459698 1.0
C      1  0.2615738289647  0.6594075539783  0.2510343794190 1.0
C      1  0.3723742278279  0.4107249551332  0.8920553771457 1.0
C      1  0.7073040013669  0.4740195697959  0.9179827262672 1.0
C      1  0.9344575417890  0.4510045518835  0.6372142251334 1.0
C      1  0.9379542369849  0.4568852941989  0.2756466321228 1.0
C      1  0.6698278009310  0.4255422679218  0.0627433711966 1.0
C      1  0.3096706272777  0.4362650919706  0.0214041708136 1.0
C      1  0.0815670185161  0.4371965482978  0.3574756526984 1.0
C      1  0.1104955846506  0.4400382299903  0.6828704180736 1.0
C      1  0.9276008275940  0.5986449833960  0.4748248569600 1.0
C      1  0.8128479140093  0.4721447420821  0.1434902377582 1.0
C      1  0.5015404442621  0.6050261015068  0.0553174971333 1.0
C      1  0.1782133122396  0.4478626024372  0.1822071348545 1.0
C      1  0.0672573245652  0.6246724126917  0.5141214569463 1.0
C      1  0.1956450660330  0.4565714143393  0.8382099819891 1.0
C      1  0.5309270753219  0.5888204701474  0.9187992490596 1.0
C      1  0.8565377453038  0.4874675315432  0.7889710376835 1.0
C      1  0.7579401794135  0.5808196544332  0.5961739740816 1.0
C      1  0.7762191106976  0.4495725893151  0.3422134819185 1.0
C      1  0.6138654563234  0.5599279407888  0.2334157338120 1.0
C      1  0.3838222790555  0.4061387999322  0.1597634286995 1.0
C      1  0.2062242268078  0.5903608097071  0.3848852014157 1.0
C      1  0.1540772103471  0.4215088047410  0.6031114931055 1.0
C      1  0.4051006644144  0.5865542756994  0.7998885684919 1.0
C      1  0.6453352909041  0.4041145113021  0.7726960555251 1.0
C      1  0.1241521880600  0.5319205499402  0.7093968386928 1.0
C      1  0.5901130328952  0.3032056237830  0.9923237880718 1.0
C      1  0.7268610314620  0.5549190522904  0.8733419119185 1.0
C      1  0.9571602684563  0.3008778655300  0.4472188627062 1.0
C      1  0.9087443827577  0.5472120995188  0.2501876364583 1.0
C      1  0.4853784168533  0.2868201916885  0.0327231199487 1.0
C      1  0.2788212730622  0.5289106811323  0.0710929226755 1.0
C      1  0.9977144834781  0.3143659354375  0.5624296407035 1.0
C      1  0.7355544734692  0.7351603466355  0.3364682724873 1.0
C      1  0.5755239686019  0.2937343568998  0.2301797294628 1.0
C      1  0.3143666828297  0.7418645868684  0.2422216117934 1.0
C      1  0.1949882558753  0.3112202112938  0.3739106221978 1.0
C      1  0.2687823655570  0.7496748265380  0.7108897269653 1.0
C      1  0.4135294246771  0.2758552784759  0.8028728159899 1.0
C      1  0.6593452553481  0.7505230478524  0.7334315170002 1.0
C      1  0.7641334483250  0.3185807643440  0.5729719432497 1.0
C      1  0.1681161203493  0.4916922144882  0.5322532743486 1.0
C      1  0.3290076700430  0.5276329692864  0.7779747230753 1.0
C      1  0.5757911405980  0.4687814892416  0.8041780912732 1.0
C      1  0.8296057667241  0.5804490191168  0.6682291480569 1.0
C      1  0.8001080792209  0.5102227645968  0.4175837832478 1.0
C      1  0.6872406287497  0.5586518252595  0.1642051088453 1.0
C      1  0.4324769519997  0.4950446619924  0.1741412043770 1.0
C      1  0.2286281042729  0.5121671482852  0.3197773109137 1.0
C      1  0.5746696967473  0.7673100087660  0.0667187593215 1.0
C      1  0.2582664028070  0.2224653023073  0.1500322551082 1.0
C      1  0.0679608225349  0.7892141427988  0.4460510728634 1.0
C      1  0.1462558119336  0.2310214970306  0.7920769510417 1.0
C      1  0.4617171399146  0.7520139808379  0.9368680583340 1.0
C      1  0.7892879438144  0.2555366302479  0.8190839404707 1.0
C      1  0.9166938315487  0.7583800540234  0.5340014764908 1.0
C      1  0.8365535946679  0.2446906678595  0.2248099344051 1.0
C      1  0.6993818149396  0.1260008230993  0.5264896572544 1.0
C      1  0.6572886653410  0.9153828319657  0.4368610930543 1.0
C      1  0.5527789570731  0.1196882132575  0.3359145113916 1.0
C      1  0.4450244774539  0.8937838578788  0.3435951016461 1.0
C      1  0.3161277562609  0.1266452794468  0.4807469022097 1.0
C      1  0.3275244589776  0.9060555714083  0.5663881003022 1.0
C      1  0.4683055949626  0.0949954947105  0.6725699577932 1.0
C      1  0.5818816376989  0.9297028912559  0.6789688756910 1.0
C      1  0.6373421111234  0.2082533911300  0.5319954798658 1.0
C      1  0.6046231917547  0.8286490706330  0.4251624698377 1.0
C      1  0.5293451308275  0.2043463399728  0.3756958471868 1.0
C      1  0.3495369083464  0.8695597113361  0.3747699134017 1.0
C      1  0.3880946213958  0.1882744500673  0.5161448148296 1.0
C      1  0.3883510124309  0.8460679659291  0.6218789150449 1.0
C      1  0.5029993678269  0.1843575934153  0.6494467133233 1.0
C      1  0.5758758625696  0.8512292388325  0.6109583233807 1.0
C      1  0.6524647385777  0.0109929004279  0.3050702071943 1.0
C      1  0.4518962469430  0.9908081568380  0.2404542207260 1.0
C      1  0.3444155550760  0.0233452335175  0.3613782176730 1.0
C      1  0.2118325360956  0.0216845549933  0.5662516678101 1.0
C      1  0.3456269624490  0.0049233595182  0.7058311975048 1.0
C      1  0.5653339063878  0.0207925207755  0.7911809940737 1.0
C      1  0.7283636583096  0.0146483574865  0.6394249569270 1.0
C      1  0.7792182367022  0.0127447625266  0.4416571416733 1.0
C      1  0.5255808669896  0.2854436831652  0.3224413299889 1.0
C      1  0.3096945292695  0.7893058124208  0.3298635011662 1.0
C      1  0.3356708308809  0.2706440465038  0.5281935612470 1.0
C      1  0.3578205050198  0.7774903117987  0.6804934223232 1.0
C      1  0.4676853712961  0.2542281711573  0.7165266380336 1.0
C      1  0.6229819382176  0.7696915636233  0.6500803752101 1.0
C      1  0.6769855509390  0.3028011992821  0.5218343137136 1.0
C      1  0.6532591223118  0.7375768566733  0.4038077213956 1.0
C      1  0.4576477730907  0.8541433057872  0.4897000310757 1.0
C      1  0.5078347297103  0.1079229919672  0.4849733359127 1.0
END
