TITL C-87289-9130-5 -7.64 3375.00 -1322.51288911 0 0 162 (C1) n - 1
REM
REM Run started: at 2020.11.27 00:04:03 in /rds/project/t2_vol4/rds-t2-cs072/BORA/CARBON/AIRSS/Generating-Clusters/Str-Search/Higher-Symm
REM VASP from code version vasp.5.4.4.18Apr17-6-g9f103f2a35 (build Oct 11 2019 16:45:47) gamma-only
REM
REM
REM
REM
REM ./C.cell (e5ae0387ce4d49c7c0135a1433873289)
REM AIRSS Version 0.9.1 bugfix July 2018 build 013d7b7c2542+ Fri, 06 Jul 2018 19:26:36 +0100
REM compiler GCC version 4.8.5 20150623 (Red Hat 4.8.5-39)
REM options -cpp -mtune=generic -march=x86-64 -g -O0
REM seed -1846097445 239020363 1432437537 -151589175 -1094039818 -181401377 -2061201381 1776469215 -365518435 -635362966 1279777291 1304976114
REM
REM C.POTCAR (d86ddea03c3ceb6dc662c8ad6801f873)
REM 
CELL 1.54180   15.00000   15.00000   15.00000   90.00000   90.00000   90.00000
LATT -1
SFAC C  
C      1  0.8083027797049  0.6093587948824  0.2226904151921 1.0
C      1  0.5173348826507  0.4374273501964  0.3433727418324 1.0
C      1  0.8556548256111  0.2924076047060  0.6083055593410 1.0
C      1  0.2912574729985  0.2521047747383  0.4673402885386 1.0
C      1  0.3697777196911  0.7524766392058  0.6326459502543 1.0
C      1  0.7196561511067  0.6328470545626  0.7144646727407 1.0
C      1  0.3942859410422  0.4335215012281  0.8516178229676 1.0
C      1  0.7334734395456  0.6021316442316  0.6153095625543 1.0
C      1  0.0950206661065  0.5347844188684  0.5006277475121 1.0
C      1  0.6442843674952  0.2642648722309  0.6691495232524 1.0
C      1  0.3741406639906  0.8921018398666  0.3941595425821 1.0
C      1  0.5162647179075  0.5131875696704  0.4083419233429 1.0
C      1  0.3117861990143  0.8399273085909  0.4076641987907 1.0
C      1  0.4528280446861  0.3373201250573  0.7339805404691 1.0
C      1  0.6298224241620  0.4149977314905  0.0892178283482 1.0
C      1  0.3841296770526  0.5938801640170  0.5006869149165 1.0
C      1  0.4331883612808  0.7268432039260  0.8582916884862 1.0
C      1  0.4323204066429  0.7470708888964  0.2096261526207 1.0
C      1  0.7348885834708  0.3118358143684  0.4799117897885 1.0
C      1  0.2310228900984  0.4439212194048  0.7464731020877 1.0
C      1  0.5044744105869  0.5366811935848  0.6093259491750 1.0
C      1  0.5456405453755  0.4088823820340  0.0742476977122 1.0
C      1  0.5493345504470  0.5160663689653  0.8775296404365 1.0
C      1  0.4510696493859  0.7064620863300  0.7737517802801 1.0
C      1  0.6808126613000  0.6739299711608  0.5704581519969 1.0
C      1  0.2275608685359  0.7521242886593  0.5257876675324 1.0
C      1  0.5311779403750  0.7449248815271  0.2089109368049 1.0
C      1  0.4186377398251  0.5558959319047  0.5856228038889 1.0
C      1  0.5356954754667  0.6056286961440  0.3606449603762 1.0
C      1  0.3948923601249  0.6622975069534  0.1878018589426 1.0
C      1  0.3284809752661  0.3826375536425  0.5291894818285 1.0
C      1  0.8159440429261  0.4558088360226  0.7170731283883 1.0
C      1  0.4319101303609  0.6817096465708  0.4880326583704 1.0
C      1  0.4215532782128  0.3416067445870  0.8215995903944 1.0
C      1  0.3907158525541  0.1057465392228  0.5808906352889 1.0
C      1  0.1986984169468  0.5323184471437  0.7365107828163 1.0
C      1  0.5015763703981  0.6800636950507  0.4276670162616 1.0
C      1  0.2198493868316  0.5590321682901  0.3526158272699 1.0
C      1  0.3431167328242  0.5046303884499  0.2115065482692 1.0
C      1  0.1584863236631  0.4121778297096  0.5988253885006 1.0
C      1  0.3592388909712  0.1042064508699  0.5045431443376 1.0
C      1  0.3377206141918  0.3413487071210  0.4356205287000 1.0
C      1  0.3719349664252  0.7104387703652  0.7200263392749 1.0
C      1  0.6755268447185  0.5143526237041  0.5786817752490 1.0
C      1  0.4162450270785  0.5399824726150  0.4235693529767 1.0
C      1  0.4121162193168  0.3935516429390  0.6701589654629 1.0
C      1  0.4609072011836  0.4091853576031  0.1130045752028 1.0
C      1  0.5177424192874  0.1599960985159  0.3922297705713 1.0
C      1  0.8174826786813  0.5337658439735  0.2770121346187 1.0
C      1  0.4706901343631  0.4805809327506  0.8743608360618 1.0
C      1  0.6049339496516  0.1680108145263  0.4352130735018 1.0
C      1  0.7093929426472  0.3382210597852  0.6397869261532 1.0
C      1  0.3898050317661  0.5762485373095  0.3442944932638 1.0
C      1  0.8843509723553  0.5553320180399  0.5949415388919 1.0
C      1  0.6038370393495  0.3476814368172  0.2502302158159 1.0
C      1  0.5216393471269  0.8830372968485  0.4773285943506 1.0
C      1  0.6907460507053  0.7650346824843  0.6069426298833 1.0
C      1  0.7168110190040  0.2632079130124  0.3216728841903 1.0
C      1  0.6144195970291  0.8210172647266  0.3505089247478 1.0
C      1  0.7270003677070  0.7407615642591  0.5099106618976 1.0
C      1  0.5370648170154  0.5181956045937  0.6988890172651 1.0
C      1  0.4846405733317  0.3498258418528  0.5233551240507 1.0
C      1  0.5552652648491  0.5931041660764  0.7513686585488 1.0
C      1  0.6969848654567  0.6835023061276  0.3596310399903 1.0
C      1  0.5534537494418  0.8791600056393  0.3885191898716 1.0
C      1  0.2770261601798  0.7563981175052  0.6078069907955 1.0
C      1  0.4730954387635  0.5772575524651  0.2865815871024 1.0
C      1  0.6298768441476  0.6356395785822  0.2377194033114 1.0
C      1  0.7814661384834  0.4074138076652  0.3597329067420 1.0
C      1  0.7481990653097  0.3909379117883  0.2031242205171 1.0
C      1  0.7801863087391  0.3593515943926  0.7199245025831 1.0
C      1  0.3230989224007  0.5997787315143  0.2179576348318 1.0
C      1  0.3164906614477  0.3904038344405  0.3488019965906 1.0
C      1  0.5730169613570  0.7265042240415  0.4751339008230 1.0
C      1  0.7758683840782  0.6865964551555  0.2130516929297 1.0
C      1  0.1341774734468  0.6246514172411  0.4864998164434 1.0
C      1  0.5078280689169  0.2497619420624  0.7383041027376 1.0
C      1  0.5822219205109  0.5542583288903  0.5524928534593 1.0
C      1  0.4712306521489  0.6002568554304  0.1831780107132 1.0
C      1  0.6900237196060  0.7143369871251  0.2567037863754 1.0
C      1  0.1681860305126  0.5632423178989  0.6452397654712 1.0
C      1  0.3436794460890  0.5306246325301  0.6352416406664 1.0
C      1  0.4198014581615  0.2426540968608  0.7886232692189 1.0
C      1  0.1557708583507  0.6630379927514  0.6375637141223 1.0
C      1  0.1205556173360  0.4988318810248  0.5834238857576 1.0
C      1  0.5787574601905  0.3652782136532  0.5401180985773 1.0
C      1  0.5546930328274  0.6543264301343  0.1833965282201 1.0
C      1  0.3444245685720  0.1732320495345  0.4363885575100 1.0
C      1  0.4385236893550  0.4910240992667  0.1728300734335 1.0
C      1  0.7136918264283  0.3957812609709  0.7908456465719 1.0
C      1  0.5099200506545  0.1857881472951  0.6633424240035 1.0
C      1  0.7985501488224  0.4394749139975  0.2685945573091 1.0
C      1  0.5324764103819  0.7011921983206  0.6225481948913 1.0
C      1  0.3205301727271  0.4784743653141  0.7909493836521 1.0
C      1  0.2626594024235  0.5606975189587  0.5955195441573 1.0
C      1  0.7476822607390  0.4862863618638  0.7777991464890 1.0
C      1  0.6277297989423  0.6159262665795  0.3272783810407 1.0
C      1  0.5640611650787  0.2051975284773  0.3207425412042 1.0
C      1  0.4262926447025  0.1437131046272  0.6598451599733 1.0
C      1  0.7994930679470  0.6745218351940  0.4857594535535 1.0
C      1  0.6121376303417  0.7826887553880  0.2610163824387 1.0
C      1  0.3183922371876  0.4378352281125  0.2800086587290 1.0
C      1  0.7656830716618  0.4838631225291  0.4166244986467 1.0
C      1  0.5930828045988  0.7909151846150  0.6207698916417 1.0
C      1  0.2199733551803  0.6132628119727  0.4370702593463 1.0
C      1  0.5895081072109  0.4373900472622  0.7051466188927 1.0
C      1  0.7741152527478  0.3137830965898  0.5618009892048 1.0
C      1  0.3836119849697  0.2723214126928  0.1873838896297 1.0
C      1  0.2814997256706  0.1973110130030  0.6959568596777 1.0
C      1  0.3618326104762  0.2216625394461  0.2560721774927 1.0
C      1  0.6923023000083  0.3188997774920  0.2432122471187 1.0
C      1  0.8026415391984  0.5567273393796  0.3707629629578 1.0
C      1  0.6937386109301  0.7274952939275  0.7044044383048 1.0
C      1  0.2841507078261  0.5902768157581  0.5113844786538 1.0
C      1  0.3621837505413  0.4661036191952  0.7012911148160 1.0
C      1  0.5298475853303  0.8074615324776  0.5393545742656 1.0
C      1  0.2589316095294  0.6861847186143  0.3816949839185 1.0
C      1  0.6394845393506  0.4170810420313  0.6197521669426 1.0
C      1  0.4928537344917  0.3478829433298  0.3577387723001 1.0
C      1  0.6872015298433  0.4976697605943  0.4774048790468 1.0
C      1  0.6551341173935  0.1961952487345  0.3498101500402 1.0
C      1  0.2279049080972  0.7059441691865  0.6770167282924 1.0
C      1  0.4434317426906  0.3130354177874  0.4340245243349 1.0
C      1  0.5353566956953  0.6861908260369  0.7232543476492 1.0
C      1  0.6374745891612  0.3013491052655  0.4982483243426 1.0
C      1  0.2893810200404  0.6666743509896  0.7428818665634 1.0
C      1  0.4506154875565  0.7422606557356  0.5706120825262 1.0
C      1  0.4098027179182  0.3776978588960  0.5753313493790 1.0
C      1  0.8498851070118  0.2919324227525  0.6925943165659 1.0
C      1  0.5890684063576  0.6561410711449  0.5524930686947 1.0
C      1  0.7601699228620  0.3197271653971  0.3856475849022 1.0
C      1  0.4635930738049  0.9051188541066  0.4090497894216 1.0
C      1  0.0972920053283  0.4858381833807  0.4185254316355 1.0
C      1  0.5423627279087  0.2944476029192  0.2991226973289 1.0
C      1  0.7016201577715  0.5688927185873  0.7864153232916 1.0
C      1  0.2957997629158  0.6140502924492  0.3141064487126 1.0
C      1  0.6112984694275  0.2112985880343  0.5193932497116 1.0
C      1  0.6005466675265  0.2858788852005  0.7484973416660 1.0
C      1  0.6098732301162  0.5678747434298  0.8283493429212 1.0
C      1  0.1435825285361  0.5085394078830  0.3507575525406 1.0
C      1  0.1500041951785  0.6944041236347  0.5452055066328 1.0
C      1  0.2458354616013  0.2609961414362  0.5481544724321 1.0
C      1  0.4988242259190  0.4853198046309  0.2522315354851 1.0
C      1  0.5819103373899  0.4417923605020  0.2678949147574 1.0
C      1  0.4356883996531  0.2110702860424  0.4112436720069 1.0
C      1  0.3692240468508  0.1892642715352  0.3376056016121 1.0
C      1  0.6239364500194  0.3761705101807  0.7775043421209 1.0
C      1  0.2410499016817  0.3589215746057  0.5757989680383 1.0
C      1  0.3672466277626  0.1833461994567  0.7305411225641 1.0
C      1  0.2136011625951  0.3904685923918  0.6683283201482 1.0
C      1  0.6579528571392  0.7530131131281  0.4249675284149 1.0
C      1  0.2614739337339  0.7655278335349  0.4316178975202 1.0
C      1  0.7113369866558  0.4144056067718  0.1213951171602 1.0
C      1  0.5901034524399  0.2042732388268  0.6130683763217 1.0
C      1  0.4116285406136  0.3333786189394  0.1345237568922 1.0
C      1  0.2411407010683  0.2035493446295  0.6225870583387 1.0
C      1  0.8214369552555  0.6133848045056  0.5620932547950 1.0
C      1  0.6067610055968  0.7595520644406  0.7202175053421 1.0
C      1  0.8664996244615  0.4986457968955  0.6562403309697 1.0
C      1  0.7819984418157  0.6460147724152  0.4001084595107 1.0
C      1  0.2705573919628  0.5786810180270  0.7788394801899 1.0
C      1  0.5941191362935  0.5082784589403  0.4681167773927 1.0
END
