TITL C-8780-8989-3 -8.101 3375.00 -1542.60661566 0 0 188 (C1) n - 1
REM
REM Run started: at 2020.12.20 16:37:04 in /gpfs/home/chem/mssmkc/CARBON/AIRSS/Generating-Clusters/Str-Search/Higher-Symm/C100-200
REM VASP from code version vasp.5.4.4.18Apr17-6-g9f103f2a35 (build Oct 11 2019 16:45:47) gamma-only
REM
REM
REM
REM
REM ./C.cell (533062f00bc710175b3da973d35f2034)
REM AIRSS Version 0.9.1 bugfix July 2018 build 013d7b7c2542+ Fri, 06 Jul 2018 19:26:36 +0100
REM compiler GCC version 6.3.0
REM options -cpp -iprefix /gpfs/warwick/csc/orac/software/Core/GCCcore/6.3.0/bin/../lib/gcc/x86_64-pc-linux-gnu/6.3.0/ -mtune=generic -march=x86-64 -g -O0
REM seed 1607330744 -1506571658 642497646 -655382404 1691673016 -1820764118 -1847670396 -212784332 -1707141465 865766418 -1756139183 280082339
REM
REM C.POTCAR (d86ddea03c3ceb6dc662c8ad6801f873)
REM 
CELL 1.54180   15.00000   15.00000   15.00000   90.00000   90.00000   90.00000
LATT -1
SFAC C  
C      1  0.7132014096998  0.6460465055198  0.2010028777721 1.0
C      1  0.6027520207180  0.7444734632734  0.1974398909323 1.0
C      1  0.4516274654249  0.7744135065642  0.2042049385966 1.0
C      1  0.3169400721528  0.7072842828620  0.2242539476597 1.0
C      1  0.2593244505802  0.5746474035999  0.2660856084512 1.0
C      1  0.2361646919746  0.4311610248833  0.2300431594644 1.0
C      1  0.3151374593245  0.3054778481548  0.2180584878005 1.0
C      1  0.4503607779079  0.2407658486497  0.2052456558041 1.0
C      1  0.5995716638559  0.2604083875056  0.1976628320225 1.0
C      1  0.7053629191149  0.3663168510363  0.2198510815829 1.0
C      1  0.7574749478540  0.5051765588658  0.1921023818872 1.0
C      1  0.0166996352716  0.6019374644441  0.5630964305884 1.0
C      1  0.0063960583313  0.3659932733467  0.6090713276626 1.0
C      1  0.2704183886345  0.0609822200846  0.5593312759784 1.0
C      1  0.3648178068552  0.0496745936366  0.5285862033306 1.0
C      1  0.7811987463970  0.0102510276153  0.5798207477892 1.0
C      1  0.9150701058750  0.3458725559039  0.5995684406950 1.0
C      1  0.9477620617580  0.5656282869019  0.5253875319861 1.0
C      1  0.8563693298617  0.8466311465040  0.5790722220568 1.0
C      1  0.7888562091363  0.9153368936620  0.5731400843239 1.0
C      1  0.4036941452767  0.9760061944937  0.4999224084265 1.0
C      1  0.2287408248213  0.9746887189919  0.5703891596163 1.0
C      1  0.6300648454189  0.8426676020096  0.5617543555010 1.0
C      1  0.4493449865808  0.8868827335017  0.6184393288657 1.0
C      1  0.2862502525768  0.8090784495048  0.5816230284869 1.0
C      1  0.1767237642810  0.6409894080483  0.6141902854580 1.0
C      1  0.1803897938115  0.3941423917113  0.6037612121697 1.0
C      1  0.2774270119320  0.2332261914917  0.5883125496337 1.0
C      1  0.4382937921684  0.1510124064983  0.6336219450610 1.0
C      1  0.6577908871942  0.1357535270672  0.5693940577163 1.0
C      1  0.8089509331578  0.2382725229577  0.5446297871296 1.0
C      1  0.8363030671428  0.4953552232439  0.6205722066577 1.0
C      1  0.7960670422556  0.6910088469422  0.5594300358136 1.0
C      1  0.5401991403423  0.6028475405486  0.3551022015971 1.0
C      1  0.4694030463485  0.6502270692155  0.2898192883956 1.0
C      1  0.3881395803539  0.6261593637310  0.3490832248281 1.0
C      1  0.3220535161126  0.5563634461585  0.3516139637229 1.0
C      1  0.4040813477628  0.4968309250748  0.3933374145376 1.0
C      1  0.4216672180946  0.4139848674870  0.3377036510792 1.0
C      1  0.4992066996004  0.3625131785597  0.3419646141972 1.0
C      1  0.5923448105993  0.3559150686552  0.3409337604445 1.0
C      1  0.6773747919652  0.3944134665907  0.3162469642077 1.0
C      1  0.6703488553619  0.4817247513442  0.3576204540010 1.0
C      1  0.6068439042949  0.5408816098170  0.3809472394250 1.0
C      1  0.3441416797682  0.6306706931588  0.8006564204467 1.0
C      1  0.3085578409391  0.5277116366825  0.7939792045727 1.0
C      1  0.3472054698577  0.4325058064196  0.8122324696091 1.0
C      1  0.3883667964947  0.3358020888085  0.8067704181280 1.0
C      1  0.4793282771884  0.3148049915276  0.8468166884702 1.0
C      1  0.5655963551713  0.3457732704396  0.8704855289009 1.0
C      1  0.6221755315876  0.4223008986341  0.8870420140992 1.0
C      1  0.6323131804384  0.5175679630392  0.8941973835788 1.0
C      1  0.5940385867446  0.6072815836953  0.8863208661747 1.0
C      1  0.5188663073486  0.6607206771201  0.8670401148175 1.0
C      1  0.4264760867968  0.6670495030786  0.8427454534151 1.0
C      1  0.6876090413149  0.7263194146950  0.2402138328016 1.0
C      1  0.5394411235492  0.8064525043261  0.2301403893545 1.0
C      1  0.3692808920866  0.7858400243239  0.2462011376049 1.0
C      1  0.2509613704468  0.6754154049640  0.2812530683204 1.0
C      1  0.2012717363021  0.4965635779586  0.2850366648447 1.0
C      1  0.2444028938651  0.3429329692591  0.2644821793838 1.0
C      1  0.3675077754274  0.2343345286777  0.2533296646745 1.0
C      1  0.5315366362700  0.2006140263151  0.2337115377367 1.0
C      1  0.6859862697281  0.2667900650208  0.2301191251699 1.0
C      1  0.7866529200357  0.4248979631533  0.2252815655903 1.0
C      1  0.7775307672367  0.5888656792796  0.2355945570327 1.0
C      1  0.6870295627158  0.5060678772349  0.6889950068882 1.0
C      1  0.6142703560822  0.5703652232350  0.6829108511816 1.0
C      1  0.5235768607582  0.5692671355665  0.6620237668070 1.0
C      1  0.4805968506834  0.6525070239399  0.6308573189256 1.0
C      1  0.3952601305901  0.6237914165161  0.6632777689455 1.0
C      1  0.4262454982386  0.5354872593001  0.6586879774454 1.0
C      1  0.3839565819989  0.4625901507470  0.6162426764761 1.0
C      1  0.4357958658046  0.3866311635848  0.6086377603177 1.0
C      1  0.5179793100328  0.3774413551276  0.6504178518162 1.0
C      1  0.5953010202393  0.3788855877922  0.6776194030386 1.0
C      1  0.6828227899834  0.4119166935991  0.6864304527277 1.0
C      1  0.7505321057403  0.6736425620020  0.4806215765951 1.0
C      1  0.5865217614242  0.8009725300025  0.4810601147183 1.0
C      1  0.4820424452009  0.8270290514352  0.4679897843119 1.0
C      1  0.3270340145642  0.7819974462506  0.5028692151371 1.0
C      1  0.2269548151900  0.6317739841596  0.5309674498849 1.0
C      1  0.2428787408381  0.3896464420253  0.5203740939556 1.0
C      1  0.3054394596965  0.2985743753308  0.5140635022606 1.0
C      1  0.4605104099970  0.1799074400774  0.4805569578462 1.0
C      1  0.6537109950437  0.1834826935189  0.4779671908992 1.0
C      1  0.7456946028890  0.2334496532341  0.4671694056860 1.0
C      1  0.8134620711441  0.4884316884745  0.4592954185184 1.0
C      1  0.4248598275301  0.2079263721930  0.7062179593837 1.0
C      1  0.6021534283413  0.1679608621171  0.6521364225356 1.0
C      1  0.7391651944433  0.2800952547289  0.6098898931227 1.0
C      1  0.8415059456595  0.4027248664649  0.6362337814657 1.0
C      1  0.7488037591796  0.6394354309710  0.6327067109364 1.0
C      1  0.6227250088880  0.7382280371804  0.6874498349799 1.0
C      1  0.5053562392987  0.8487757214148  0.6776272812717 1.0
C      1  0.3306389125837  0.7724559033567  0.6691254925275 1.0
C      1  0.2324614291872  0.6184276327282  0.6868525383011 1.0
C      1  0.2114334863003  0.4481908297953  0.6863348010419 1.0
C      1  0.2853057925076  0.2823267459790  0.6788819490333 1.0
C      1  0.3650260901553  0.3441176205583  0.9155725045794 1.0
C      1  0.4513132415591  0.3161299159699  0.9404972919916 1.0
C      1  0.5415525423934  0.3426401387935  0.9689924712647 1.0
C      1  0.5945265692171  0.4184382174380  0.9829757318482 1.0
C      1  0.6071418444724  0.5144734773929  0.9903650934353 1.0
C      1  0.5648386636526  0.6012474831188  0.9818796854895 1.0
C      1  0.4898464421514  0.6565941037643  0.9654198624882 1.0
C      1  0.3981474315548  0.6615789798478  0.9348738753530 1.0
C      1  0.3157823894079  0.6172579668175  0.9060770122455 1.0
C      1  0.2944837682825  0.5276007638030  0.8955107319743 1.0
C      1  0.3250494273164  0.4333754933587  0.9013347591883 1.0
C      1  0.7640283830944  0.2598815654566  0.3732520553135 1.0
C      1  0.8328722428814  0.5075506467991  0.3631018902349 1.0
C      1  0.7649937101799  0.6756968142305  0.3792030674257 1.0
C      1  0.6213874521434  0.7825294048155  0.3772512428583 1.0
C      1  0.4646725054478  0.8232179112401  0.3692922307541 1.0
C      1  0.3013054578354  0.7915176965959  0.4012179495200 1.0
C      1  0.2140690477047  0.6546638433207  0.4360904143949 1.0
C      1  0.2055851445502  0.4024473100951  0.4229640347969 1.0
C      1  0.3137355313322  0.2771562766627  0.4068288486061 1.0
C      1  0.4570811515395  0.1849923171859  0.3786353315071 1.0
C      1  0.6260926763650  0.1823311564764  0.3663352623076 1.0
C      1  0.7081377824502  0.8802612270938  0.5608210211951 1.0
C      1  0.4501585180067  0.9047285478374  0.5220158498710 1.0
C      1  0.2398580528829  0.8929445998260  0.5780271538630 1.0
C      1  0.0877065414006  0.6246218207940  0.6028835217153 1.0
C      1  0.0867659359162  0.3766029750345  0.6000045971754 1.0
C      1  0.2527851864418  0.1479596147207  0.5776916620299 1.0
C      1  0.4226668294967  0.1267696031454  0.5419701805747 1.0
C      1  0.7220752662230  0.0670757776888  0.5781961341198 1.0
C      1  0.8902971487088  0.2730973394035  0.5503088774896 1.0
C      1  0.8705052877719  0.5210837321981  0.5317928865882 1.0
C      1  0.8538719638911  0.7641562542924  0.5712725512374 1.0
C      1  0.5128109501899  0.1712364538544  0.6809251138940 1.0
C      1  0.6758949423478  0.2122632233899  0.6353581669131 1.0
C      1  0.7602553464406  0.3613188525436  0.6617701066919 1.0
C      1  0.7664152801509  0.5477627744432  0.6542539090738 1.0
C      1  0.6615526563450  0.6586298428721  0.6685355131702 1.0
C      1  0.5927326961424  0.8152475376925  0.6554755627416 1.0
C      1  0.4080634399481  0.8219205023316  0.6758343452794 1.0
C      1  0.3184190464393  0.6720658788385  0.7029675617336 1.0
C      1  0.2372205399464  0.5307459339174  0.7241535325039 1.0
C      1  0.2310623455429  0.3575132006669  0.6822868698708 1.0
C      1  0.3624344524113  0.2709173346269  0.7355977005613 1.0
C      1  0.8045787937147  0.5975169233880  0.3276044722842 1.0
C      1  0.7063727254441  0.7390546416235  0.3332573161155 1.0
C      1  0.5516538333409  0.8358405728284  0.3173131401100 1.0
C      1  0.3662274753582  0.8216790473345  0.3383266832329 1.0
C      1  0.2405897610417  0.7171485370733  0.3718115436334 1.0
C      1  0.1900784554714  0.4844137356367  0.3805424102716 1.0
C      1  0.2444322328298  0.3353947604335  0.3616876247898 1.0
C      1  0.3669371040337  0.2122669946195  0.3440487904207 1.0
C      1  0.5381593433455  0.1590639637807  0.3179519677429 1.0
C      1  0.7067799745497  0.2192118088328  0.3123334090491 1.0
C      1  0.8242565485550  0.4269968578553  0.3143417969787 1.0
C      1  0.6630814326679  0.5045031437373  0.1575032751056 1.0
C      1  0.6368548941905  0.5986304939590  0.1595513548876 1.0
C      1  0.5650618060290  0.6646163585900  0.1596343220969 1.0
C      1  0.4646186720319  0.6732657541230  0.1858114030886 1.0
C      1  0.3670769340657  0.6375129779581  0.1730586126532 1.0
C      1  0.3233698234181  0.5542234733460  0.1892849227611 1.0
C      1  0.3170704468967  0.4568162164507  0.1781342609113 1.0
C      1  0.3700908679269  0.3718649131370  0.1712554395855 1.0
C      1  0.4603710811580  0.3277843945061  0.1624660512038 1.0
C      1  0.5598813957696  0.3442637849835  0.1614225939150 1.0
C      1  0.6310320780729  0.4111615173957  0.1663807046621 1.0
C      1  0.7666584120829  0.3607239049528  0.3689590219541 1.0
C      1  0.7116859285025  0.4853554217577  0.4509583726426 1.0
C      1  0.6439878664095  0.5537062254241  0.4711263132367 1.0
C      1  0.5652476310008  0.6946081769011  0.3964554116298 1.0
C      1  0.4785570483033  0.7223698190369  0.3644043532603 1.0
C      1  0.4184632931510  0.6744286426239  0.4259442056660 1.0
C      1  0.2454963118482  0.5604744735836  0.4175984378476 1.0
C      1  0.3744757431549  0.4270012312876  0.4631090534970 1.0
C      1  0.3471380405863  0.3701033588495  0.3858821660849 1.0
C      1  0.4948498817310  0.2798982865763  0.3947241545545 1.0
C      1  0.5929796379074  0.2762199884548  0.3934720374773 1.0
C      1  0.5769019758815  0.6998452512363  0.4978112438790 1.0
C      1  0.4927116572025  0.6947026296630  0.5537783537980 1.0
C      1  0.4199357031677  0.7409615146589  0.5017478967885 1.0
C      1  0.2721588332861  0.5518191073238  0.5121626068389 1.0
C      1  0.3156458097124  0.4670607888432  0.5386236760444 1.0
C      1  0.4115739356131  0.3399854444269  0.5266880862966 1.0
C      1  0.4864404891109  0.2774241262394  0.4944899058852 1.0
C      1  0.6094714472810  0.2781852122666  0.4914122034117 1.0
C      1  0.7048803182611  0.3175785690727  0.5149521581798 1.0
C      1  0.7516991593652  0.3962048897499  0.4650335031077 1.0
C      1  0.6585120882276  0.6398478239999  0.5041951750299 1.0
C      1  0.4586079964145  0.5804905832071  0.4129030444537 1.0
END
