TITL C-8780-8989-34 -6.019 3375.00 -1031.71079054 0 0 127 (C1) n - 1
REM
REM Run started: at 2020.12.21 17:51:04 in /gpfs/home/chem/mssmkc/CARBON/AIRSS/Generating-Clusters/Str-Search/Higher-Symm/C100-200
REM VASP from code version vasp.5.4.4.18Apr17-6-g9f103f2a35 (build Oct 11 2019 16:45:47) gamma-only
REM
REM
REM
REM
REM ./C.cell (533062f00bc710175b3da973d35f2034)
REM AIRSS Version 0.9.1 bugfix July 2018 build 013d7b7c2542+ Fri, 06 Jul 2018 19:26:36 +0100
REM compiler GCC version 6.3.0
REM options -cpp -iprefix /gpfs/warwick/csc/orac/software/Core/GCCcore/6.3.0/bin/../lib/gcc/x86_64-pc-linux-gnu/6.3.0/ -mtune=generic -march=x86-64 -g -O0
REM seed -942698256 -1554471712 -625736432 1291863951 563028961 -1971572269 -390399846 1766205746 140963064 -1598685133 -1807600671 -1595556942
REM
REM C.POTCAR (d86ddea03c3ceb6dc662c8ad6801f873)
REM 
CELL 1.54180   15.00000   15.00000   15.00000   90.00000   90.00000   90.00000
LATT -1
SFAC C  
C      1  0.3624463994967  0.4230974415110  0.8050580410739 1.0
C      1  0.7540425715787  0.3762495585906  0.4466515100699 1.0
C      1  0.3164519867289  0.4231754951064  0.2562068681461 1.0
C      1  0.5423122954288  0.6901637028973  0.5175273404534 1.0
C      1  0.5123983091134  0.6782347911661  0.4341169309947 1.0
C      1  0.4564286532162  0.6559924706102  0.5046162468083 1.0
C      1  0.8132346105885  0.5626534422400  0.6735707856089 1.0
C      1  0.5067570703263  0.5547996760543  0.1523635299838 1.0
C      1  0.2287574295568  0.6012405659500  0.7002158703175 1.0
C      1  0.7670876593943  0.7647241094376  0.4692103623811 1.0
C      1  0.2967138812423  0.7466296387828  0.3146731960389 1.0
C      1  0.3932782778044  0.7110624811543  0.7004710968602 1.0
C      1  0.5781919815734  0.3518174049559  0.2012546998215 1.0
C      1  0.2121516459463  0.3596525242775  0.6038300593912 1.0
C      1  0.6958611001850  0.3462663845160  0.7105073420841 1.0
C      1  0.6225718016976  0.2300772357043  0.6171853982698 1.0
C      1  0.5531606019760  0.2628957587142  0.3360979944132 1.0
C      1  0.3332851847241  0.2334879111481  0.5469944981688 1.0
C      1  0.6972717029658  0.6507349287968  0.5635353965421 1.0
C      1  0.4378980836127  0.6451970577011  0.2985801904722 1.0
C      1  0.3762788020417  0.6244440118598  0.6444497168754 1.0
C      1  0.5555615933110  0.8598406029890  0.4587252448892 1.0
C      1  0.4599101067439  0.8558106116834  0.4574736010456 1.0
C      1  0.5059221436671  0.8545520160598  0.5392515715843 1.0
C      1  0.3341429844499  0.5443918568712  0.5342550242313 1.0
C      1  0.5957220955589  0.5368452975756  0.6395939599128 1.0
C      1  0.5493189508229  0.5683423478727  0.3364374873686 1.0
C      1  0.3125090173477  0.7671790998260  0.5656714465835 1.0
C      1  0.6281589864099  0.7384812222675  0.6548359164228 1.0
C      1  0.5970287793482  0.7246674201074  0.2928200800636 1.0
C      1  0.5437603724164  0.1772428887959  0.5984962563115 1.0
C      1  0.6025677912331  0.2108923085296  0.4103678439573 1.0
C      1  0.3621515641771  0.1761431049116  0.4703937231788 1.0
C      1  0.5981522826368  0.7043431683862  0.2035630205002 1.0
C      1  0.2538301024149  0.7178898781510  0.6183655788767 1.0
C      1  0.7333820308423  0.7081854034288  0.6457335415473 1.0
C      1  0.4883038398746  0.3938472545688  0.2383952728312 1.0
C      1  0.2441857770090  0.4110252807039  0.6831427505420 1.0
C      1  0.7264754671089  0.3987272963687  0.6273220743205 1.0
C      1  0.7190198969382  0.8447100497952  0.4820068079887 1.0
C      1  0.3713069487771  0.8020142505802  0.3239221605296 1.0
C      1  0.3939138414266  0.7790303177217  0.6265884429178 1.0
C      1  0.2967841757101  0.3959784390670  0.7584799072077 1.0
C      1  0.7498656226218  0.3332675771622  0.5517875479638 1.0
C      1  0.3859760726095  0.3891552190738  0.2210263645215 1.0
C      1  0.4823015349230  0.7039953330131  0.7443681136193 1.0
C      1  0.7395751661498  0.7122841162136  0.3873306965512 1.0
C      1  0.2631962067574  0.7144687272740  0.3997151493188 1.0
C      1  0.4626996768978  0.2039130347695  0.6485242819272 1.0
C      1  0.6799175184924  0.2360371392380  0.4535639331973 1.0
C      1  0.3896009303329  0.2190176921172  0.3896463032993 1.0
C      1  0.6617026783788  0.7611455206233  0.3574634524033 1.0
C      1  0.3101808371890  0.7725793417250  0.4662090642714 1.0
C      1  0.5386750048042  0.7621879462827  0.6922830961132 1.0
C      1  0.1571699619998  0.4316817620802  0.4581604124338 1.0
C      1  0.6130505784682  0.4193215701274  0.8332730955304 1.0
C      1  0.7227735582551  0.4422648390458  0.2150462414465 1.0
C      1  0.4820552783115  0.8111504375899  0.6231307353739 1.0
C      1  0.6424037075530  0.8309808487763  0.4260127550123 1.0
C      1  0.3809534311194  0.8214526763201  0.4181699608843 1.0
C      1  0.3511653931902  0.3057206314912  0.3831962630254 1.0
C      1  0.4604298443948  0.2923854679368  0.6879089429613 1.0
C      1  0.7254554991610  0.2962955363569  0.3972952853072 1.0
C      1  0.6420991700377  0.4132829178169  0.1706613450479 1.0
C      1  0.1520174344210  0.4055653888597  0.5506176697658 1.0
C      1  0.6934628184183  0.3942952521431  0.7895145625452 1.0
C      1  0.4042377438978  0.4821147243924  0.3800030527345 1.0
C      1  0.4295244678262  0.4555955162136  0.6494944926524 1.0
C      1  0.6546903241660  0.5181907713527  0.4735966280034 1.0
C      1  0.5894640512098  0.5159899789769  0.4067237325613 1.0
C      1  0.3737257355623  0.4833880660098  0.4673781756292 1.0
C      1  0.5196365641420  0.4715736891275  0.6345182344412 1.0
C      1  0.3571938611537  0.5231480164905  0.6393857923371 1.0
C      1  0.6730053809139  0.5550154031281  0.5662035165728 1.0
C      1  0.4484596586177  0.5441560385327  0.3128287951192 1.0
C      1  0.2547948892295  0.5095330182380  0.6607277922063 1.0
C      1  0.7381782973982  0.5042034805468  0.6428805912462 1.0
C      1  0.4859624039604  0.4963538245035  0.2281739204211 1.0
C      1  0.6643050597197  0.4205295350217  0.4712404677224 1.0
C      1  0.4201137626625  0.3794601340544  0.3852147429680 1.0
C      1  0.4098077187295  0.3567258157650  0.6416376656411 1.0
C      1  0.3718448301648  0.3315061492756  0.5540487802963 1.0
C      1  0.6505809401123  0.3943492215465  0.5639984572581 1.0
C      1  0.5112391374709  0.3613127681507  0.3460833426766 1.0
C      1  0.2715944654088  0.3113199020001  0.5367696790011 1.0
C      1  0.6211034852600  0.2860677599018  0.6983975143364 1.0
C      1  0.6196402400465  0.2940995468588  0.2658023575439 1.0
C      1  0.3848194126733  0.6260497719681  0.5488704657041 1.0
C      1  0.6150365460452  0.7040551271662  0.5718587602625 1.0
C      1  0.5272978162785  0.6697267718122  0.3402865428787 1.0
C      1  0.5356209999277  0.3149988692599  0.7444671525519 1.0
C      1  0.7072710574668  0.3156885072254  0.3071218177372 1.0
C      1  0.2684927733244  0.3300205769154  0.4307689337509 1.0
C      1  0.2487351848433  0.4571895998795  0.3167140733096 1.0
C      1  0.4506451836751  0.4491043041779  0.8206613803333 1.0
C      1  0.7873053345701  0.4446502299057  0.3724743128579 1.0
C      1  0.6601847683667  0.5238813978637  0.7062009080371 1.0
C      1  0.5803689359067  0.5490059082623  0.2379967352527 1.0
C      1  0.2238442019172  0.5494756646453  0.5673889410533 1.0
C      1  0.5706203446293  0.4174472959624  0.4156707615536 1.0
C      1  0.4174822855819  0.3943069722092  0.4879942939411 1.0
C      1  0.5581222974425  0.4003349715646  0.5792958039556 1.0
C      1  0.7888533110132  0.6422471243077  0.6860809592966 1.0
C      1  0.5459071746626  0.6323822136162  0.1819893042930 1.0
C      1  0.2011048275262  0.6348966934829  0.6162549711693 1.0
C      1  0.4772510817618  0.1942959202531  0.3614891993604 1.0
C      1  0.3864372741479  0.1716705506856  0.6076494120067 1.0
C      1  0.6927647824487  0.2528299089572  0.5484004817545 1.0
C      1  0.4157794956989  0.1238462468258  0.5278267003762 1.0
C      1  0.5109546457876  0.1284064965627  0.5191470316865 1.0
C      1  0.5334079027126  0.1538788345216  0.4305069511779 1.0
C      1  0.6532841851214  0.5011326493449  0.1985184552086 1.0
C      1  0.1564653939987  0.4958178249446  0.5230721605516 1.0
C      1  0.6652997656359  0.4856527399188  0.7909624978850 1.0
C      1  0.2197427256646  0.4005955166282  0.3927312260483 1.0
C      1  0.5280020905743  0.3867996352336  0.8097685290780 1.0
C      1  0.7544660841542  0.4018582648851  0.2932713302298 1.0
C      1  0.4709064989102  0.5440110054426  0.8179187149922 1.0
C      1  0.7857066916412  0.5400654168125  0.3774506416361 1.0
C      1  0.2365525040892  0.5503840588265  0.3395446778314 1.0
C      1  0.3790737124089  0.7118390569837  0.2847964184291 1.0
C      1  0.3000383514963  0.6754305019115  0.6949411526567 1.0
C      1  0.7665798105346  0.7148619947978  0.5474949264571 1.0
C      1  0.4895203087968  0.6215856551792  0.7930509884801 1.0
C      1  0.7679397336267  0.6227324020624  0.3732637499177 1.0
C      1  0.2372610156615  0.6231457664666  0.3823511153904 1.0
C      1  0.5141507497157  0.4025036089718  0.4987076294324 1.0
END
