TITL C-8780-8989-32 -9.556 3375.00 -1719.77054730 0 0 200 (C1) n - 1
REM
REM Run started: at 2020.12.21 16:39:42 in /gpfs/home/chem/mssmkc/CARBON/AIRSS/Generating-Clusters/Str-Search/Higher-Symm/C100-200
REM VASP from code version vasp.5.4.4.18Apr17-6-g9f103f2a35 (build Oct 11 2019 16:45:47) gamma-only
REM
REM
REM
REM
REM ./C.cell (533062f00bc710175b3da973d35f2034)
REM AIRSS Version 0.9.1 bugfix July 2018 build 013d7b7c2542+ Fri, 06 Jul 2018 19:26:36 +0100
REM compiler GCC version 6.3.0
REM options -cpp -iprefix /gpfs/warwick/csc/orac/software/Core/GCCcore/6.3.0/bin/../lib/gcc/x86_64-pc-linux-gnu/6.3.0/ -mtune=generic -march=x86-64 -g -O0
REM seed 1504470286 2093492118 -532144736 -1250002824 -288892693 -1747266785 -702264453 -883398982 506949949 625167226 86797701 1302803832
REM
REM C.POTCAR (d86ddea03c3ceb6dc662c8ad6801f873)
REM 
CELL 1.54180   15.00000   15.00000   15.00000   90.00000   90.00000   90.00000
LATT -1
SFAC C  
C      1  0.8619001248215  0.4511164661266  0.3835905685468 1.0
C      1  0.4589305880323  0.3833341222469  0.8466337435239 1.0
C      1  0.3861297329954  0.8468607195923  0.4527357916684 1.0
C      1  0.8392727409206  0.5474760598815  0.6161048435278 1.0
C      1  0.1396917150684  0.4540144662761  0.6334977510237 1.0
C      1  0.1296054022711  0.5525773404083  0.3669575061622 1.0
C      1  0.4489846843482  0.6230761402493  0.1375746210135 1.0
C      1  0.5554039595085  0.3775735469608  0.1550821374822 1.0
C      1  0.5483830265625  0.6221386932551  0.8667095914941 1.0
C      1  0.3800844976021  0.1448986608795  0.5502104671387 1.0
C      1  0.6242854024004  0.8459250626958  0.5490541454097 1.0
C      1  0.6284939898870  0.1586366554019  0.4527275508131 1.0
C      1  0.1407835401988  0.4529700529196  0.3693506035054 1.0
C      1  0.5542933926274  0.3837027184165  0.8472238554410 1.0
C      1  0.6242047139138  0.8457575708603  0.4527842766167 1.0
C      1  0.1286666847126  0.5537314277408  0.6357447522772 1.0
C      1  0.8597972650205  0.4480971127736  0.6200200772750 1.0
C      1  0.8611064038848  0.5479614428156  0.3828675346094 1.0
C      1  0.5499522352458  0.6212768448909  0.1392215685113 1.0
C      1  0.4611343030911  0.3802429216248  0.1555983391567 1.0
C      1  0.4469193948893  0.6242726980732  0.8668616639915 1.0
C      1  0.6230299695351  0.1574920956747  0.5529113679074 1.0
C      1  0.3861490709625  0.8463474515846  0.5483400564444 1.0
C      1  0.3763195550695  0.1408675561371  0.4560224214660 1.0
C      1  0.6086897436069  0.6553985674345  0.5517023606973 1.0
C      1  0.7334026876406  0.5488821939948  0.6026635633148 1.0
C      1  0.5297009527419  0.6053890341314  0.6973713656118 1.0
C      1  0.6140338361197  0.3239385376726  0.4454384143693 1.0
C      1  0.3854028075897  0.6183198379029  0.4575573746939 1.0
C      1  0.4235766950437  0.3547104208573  0.5003692708954 1.0
C      1  0.6529913675690  0.4705583547804  0.3626997220274 1.0
C      1  0.3181641834239  0.5634778328366  0.4104484779803 1.0
C      1  0.2924765867385  0.4781057708165  0.5489323713401 1.0
C      1  0.5190986478358  0.4182405146390  0.3169680592621 1.0
C      1  0.4338465562138  0.6079017604969  0.3167255708420 1.0
C      1  0.4385467798797  0.4078141240796  0.6663330498606 1.0
C      1  0.3862321466462  0.6176477775628  0.5472210696190 1.0
C      1  0.3178960075433  0.5628604199562  0.5929675968710 1.0
C      1  0.4347048129168  0.6009528580881  0.6868502823787 1.0
C      1  0.4193580326353  0.3362675903383  0.4088881762330 1.0
C      1  0.6060579861176  0.6593345038759  0.4554633576580 1.0
C      1  0.6499646466989  0.3246658103881  0.5365256171667 1.0
C      1  0.2939019869614  0.4777514867109  0.4528681522738 1.0
C      1  0.6954514988869  0.5513525058523  0.3751348180679 1.0
C      1  0.6760373843135  0.4726202360491  0.6043793199165 1.0
C      1  0.4352841237976  0.4054387863461  0.3383212317145 1.0
C      1  0.5279915836094  0.6139446472733  0.3085687105444 1.0
C      1  0.5269357190977  0.4262823341427  0.6727109572443 1.0
C      1  0.7063476970476  0.4110970764918  0.8171688001741 1.0
C      1  0.4133469147767  0.8131917982851  0.7009160923960 1.0
C      1  0.8273510271892  0.7016715974162  0.4083825481382 1.0
C      1  0.7206577511234  0.5960361107547  0.1768727769224 1.0
C      1  0.3111156002416  0.4128567767271  0.2056609570855 1.0
C      1  0.2961984652478  0.5960842961833  0.8257691049229 1.0
C      1  0.4114297868344  0.1902889620879  0.3016578981592 1.0
C      1  0.5973897505422  0.8149874373809  0.2999717022837 1.0
C      1  0.5926520128987  0.1777826593531  0.7044775219609 1.0
C      1  0.8303669122049  0.2947027415241  0.5933532973281 1.0
C      1  0.1897927812781  0.6991292306822  0.5922315436913 1.0
C      1  0.1784699885826  0.2908314675008  0.4033404376806 1.0
C      1  0.3086803116647  0.4151649627858  0.7988620785816 1.0
C      1  0.5962863509633  0.8130923934669  0.7014041005263 1.0
C      1  0.1899156214702  0.6985710781586  0.4095154344876 1.0
C      1  0.2991591633383  0.5943351672509  0.1790505718988 1.0
C      1  0.7120025396251  0.4062414704321  0.1903003810542 1.0
C      1  0.7196923573761  0.5976161647083  0.8299351393956 1.0
C      1  0.6048189119917  0.1768481377013  0.2929488316757 1.0
C      1  0.4137894248108  0.8141654064812  0.3002559393299 1.0
C      1  0.4110639102504  0.1836313286456  0.7010411553955 1.0
C      1  0.1792279444337  0.2930870764107  0.5987042766146 1.0
C      1  0.8274649871613  0.7023985754806  0.5934600543766 1.0
C      1  0.8300968117309  0.2976844361693  0.4097068456812 1.0
C      1  0.3621822074289  0.5450510234804  0.6844210417578 1.0
C      1  0.5373890193847  0.6583560545275  0.3940439903014 1.0
C      1  0.6719103988432  0.4135830666681  0.5299121887952 1.0
C      1  0.3770467196518  0.4601608654843  0.2800989127427 1.0
C      1  0.5801739293732  0.6113191049042  0.2324646659887 1.0
C      1  0.6027116058219  0.4571683503777  0.6562137696193 1.0
C      1  0.6467631577053  0.2508343614350  0.5895232697044 1.0
C      1  0.4456812097387  0.6499082481352  0.6048478861579 1.0
C      1  0.4302207018403  0.2534376760886  0.3779764549026 1.0
C      1  0.6827704243718  0.6198938770308  0.4197714828280 1.0
C      1  0.2261912882732  0.4341023407161  0.4162174505027 1.0
C      1  0.2442188417834  0.6208460646014  0.5512477887503 1.0
C      1  0.5790096225674  0.6060752376958  0.7748493044344 1.0
C      1  0.4428713591578  0.6540786023550  0.4007152490348 1.0
C      1  0.2239529262581  0.4357885475908  0.5850224869573 1.0
C      1  0.5964022314899  0.4484136263029  0.2872967625933 1.0
C      1  0.3619887633423  0.5490466459211  0.3181339555297 1.0
C      1  0.3753960983068  0.4567493554351  0.7266198822897 1.0
C      1  0.4200035960329  0.3739700039463  0.5804206971916 1.0
C      1  0.5400617097062  0.6533433491382  0.6144051517443 1.0
C      1  0.5843091317554  0.2462670371747  0.4183021255291 1.0
C      1  0.2442231211166  0.6204786012614  0.4517708791011 1.0
C      1  0.6418810847587  0.4161043318688  0.4361502606699 1.0
C      1  0.6873387475828  0.6179361796963  0.5788017728404 1.0
C      1  0.1726337344006  0.5967443206852  0.2907373908798 1.0
C      1  0.6022747954120  0.2961859212753  0.1804767637068 1.0
C      1  0.2993609624108  0.1815984268518  0.5935106365711 1.0
C      1  0.1741337294240  0.4052594565058  0.7142076755785 1.0
C      1  0.8299406085323  0.5956657256969  0.7070593759807 1.0
C      1  0.8293785061591  0.4075931757162  0.3014044823315 1.0
C      1  0.6011690697598  0.6976989814126  0.8179827943910 1.0
C      1  0.4129069195727  0.3021128608493  0.8163925677936 1.0
C      1  0.4082220163387  0.7054405257289  0.1761290436560 1.0
C      1  0.3034359112709  0.8174651788537  0.4092084747777 1.0
C      1  0.7178762962445  0.1754381390075  0.4062470254720 1.0
C      1  0.7069380309782  0.8154505252807  0.5934373239803 1.0
C      1  0.8323037289046  0.5934726307757  0.2989592766976 1.0
C      1  0.4153857188191  0.2987059607803  0.1835866591245 1.0
C      1  0.7163677451492  0.1744653780965  0.5936570822735 1.0
C      1  0.8253675121344  0.4083768204371  0.7012796241895 1.0
C      1  0.1713988111870  0.5982860165342  0.7118824049566 1.0
C      1  0.1763972842521  0.4038121516067  0.2895849213232 1.0
C      1  0.4069086965499  0.7057401540918  0.8262107554210 1.0
C      1  0.5967592319213  0.3007522388914  0.8153650742890 1.0
C      1  0.6029573741244  0.6996713132171  0.1839729665010 1.0
C      1  0.7071251644503  0.8149696519563  0.4084084404405 1.0
C      1  0.2946948967186  0.1729630467020  0.4072560352641 1.0
C      1  0.3034222517175  0.8172658338466  0.5919662391976 1.0
C      1  0.7923802026232  0.2203540772261  0.5481304528772 1.0
C      1  0.2224295564289  0.5508390192053  0.7814589700031 1.0
C      1  0.5531365958891  0.7735066506754  0.2278349522821 1.0
C      1  0.7799039878589  0.7716717097146  0.4536058046951 1.0
C      1  0.2244698165158  0.2230511808805  0.4522256358431 1.0
C      1  0.2280025072307  0.7798697856119  0.5472167284827 1.0
C      1  0.2238454964909  0.4533922362717  0.2234954085213 1.0
C      1  0.7863008680634  0.5487287194451  0.2271561825111 1.0
C      1  0.7793624591709  0.4548441627190  0.7726197313694 1.0
C      1  0.5505061185470  0.2274195913723  0.7732542701575 1.0
C      1  0.4567037026869  0.7710753103966  0.7751822190339 1.0
C      1  0.4617881719835  0.2258020290544  0.2237994212357 1.0
C      1  0.2273974324481  0.2263724396369  0.5491869739310 1.0
C      1  0.7848769690857  0.5503062704882  0.7786455189221 1.0
C      1  0.4577860262136  0.7724203273351  0.2258842388357 1.0
C      1  0.2282188100702  0.7795438483744  0.4540869062327 1.0
C      1  0.7885585507360  0.2218090238193  0.4523247535587 1.0
C      1  0.7800880636730  0.7725733837276  0.5483426373424 1.0
C      1  0.7840942759462  0.4524664973118  0.2311432132941 1.0
C      1  0.2241259775033  0.5487911427290  0.2216468373296 1.0
C      1  0.2213074596470  0.4551339998782  0.7793812627260 1.0
C      1  0.4560700315069  0.2285806871503  0.7717606792120 1.0
C      1  0.5519716591650  0.7707150727036  0.7727235355983 1.0
C      1  0.5570086947260  0.2229347067369  0.2227157166054 1.0
C      1  0.6255308586818  0.4527699105056  0.8487392507253 1.0
C      1  0.4573182077250  0.8440042003225  0.6189580311819 1.0
C      1  0.8610091189651  0.6204076534055  0.4529750775626 1.0
C      1  0.6272923753149  0.5525454539615  0.1662250915277 1.0
C      1  0.3957680249532  0.4582813630392  0.1739146793609 1.0
C      1  0.3812942379551  0.5559398573873  0.8605394807673 1.0
C      1  0.4524233859740  0.1576794373537  0.3896268694678 1.0
C      1  0.5537563045384  0.8465899012203  0.3822656406513 1.0
C      1  0.5488426136386  0.1423052921329  0.6248718535805 1.0
C      1  0.8601136937313  0.3789956889484  0.5502611686651 1.0
C      1  0.1396220810941  0.6144768616299  0.5556088118594 1.0
C      1  0.1526036538922  0.3785018274288  0.4487790712478 1.0
C      1  0.3927320624532  0.4598576175715  0.8324660543080 1.0
C      1  0.5532241904931  0.8453411213435  0.6190670765730 1.0
C      1  0.1398214501833  0.6139549044087  0.4468324033732 1.0
C      1  0.3840626051102  0.5542215837973  0.1440438540380 1.0
C      1  0.6211691355047  0.4516719678871  0.1855717479790 1.0
C      1  0.6275061362252  0.5517261270660  0.8466736336147 1.0
C      1  0.5559568123512  0.1602056511360  0.3807214998939 1.0
C      1  0.4574738933356  0.8452639689795  0.3820658923903 1.0
C      1  0.4533460006955  0.1465828195291  0.6205802225769 1.0
C      1  0.1514292872170  0.3795723298494  0.5527743901265 1.0
C      1  0.8602491796643  0.6223421820599  0.5478377665504 1.0
C      1  0.8616527577890  0.3791329015009  0.4530935224088 1.0
C      1  0.6945906226272  0.3146417702295  0.2024633039052 1.0
C      1  0.3192351992782  0.2025018160967  0.6836764327600 1.0
C      1  0.2006155344710  0.6848981616751  0.3128458776368 1.0
C      1  0.7005353577690  0.6876585818602  0.8092318806756 1.0
C      1  0.3229258679326  0.3192801149543  0.7948711838444 1.0
C      1  0.3167243390817  0.6874825362996  0.1960826167557 1.0
C      1  0.3215365426126  0.7958501522112  0.3180217742927 1.0
C      1  0.6979236091790  0.1934801352032  0.3137668761218 1.0
C      1  0.6899714926620  0.7954244835486  0.6847109751143 1.0
C      1  0.1988926901779  0.3135057447769  0.6894286503674 1.0
C      1  0.8124293783241  0.6861333331514  0.6880554317578 1.0
C      1  0.8088155690568  0.3156576242001  0.3181817837660 1.0
C      1  0.3245580089642  0.3163786269344  0.2092015170905 1.0
C      1  0.6824949346620  0.2107713565021  0.6788396453679 1.0
C      1  0.8135997162079  0.6857067334665  0.3152153817740 1.0
C      1  0.3151946454646  0.6882483477790  0.8063898805200 1.0
C      1  0.6876124500595  0.3196632025676  0.7971253618478 1.0
C      1  0.7020606700787  0.6872234840832  0.1942679303211 1.0
C      1  0.6910082549611  0.7961128543651  0.3171818273228 1.0
C      1  0.3134126787678  0.1940157100966  0.3157452910652 1.0
C      1  0.3213223553631  0.7957543706053  0.6833000497220 1.0
C      1  0.8063689464117  0.3157909066303  0.6845206695742 1.0
C      1  0.1998309099733  0.6860845509895  0.6891246334233 1.0
C      1  0.1979892991290  0.3112828356420  0.3124285540107 1.0
C      1  0.7440848895618  0.2659640164664  0.2691391437985 1.0
C      1  0.2724530962514  0.2693954420585  0.7322965179786 1.0
C      1  0.2714132031543  0.7315264948815  0.7331803510975 1.0
C      1  0.7441363428133  0.7326577167817  0.2676260739720 1.0
C      1  0.7425130493066  0.7332379518296  0.7357488939557 1.0
C      1  0.2720346245038  0.7310060451055  0.2686108063780 1.0
C      1  0.2705237072567  0.2652902463891  0.2683418046308 1.0
C      1  0.7354846295372  0.2747842852646  0.7297300580080 1.0
END
