TITL C-8780-8989-49 -6.823 3375.00 -1196.57187728 0 0 144 (C2) n - 1
REM
REM Run started: at 2020.12.22 04:09:08 in /gpfs/home/chem/mssmkc/CARBON/AIRSS/Generating-Clusters/Str-Search/Higher-Symm/C100-200
REM VASP from code version vasp.5.4.4.18Apr17-6-g9f103f2a35 (build Oct 11 2019 16:45:47) gamma-only
REM
REM
REM
REM
REM ./C.cell (533062f00bc710175b3da973d35f2034)
REM AIRSS Version 0.9.1 bugfix July 2018 build 013d7b7c2542+ Fri, 06 Jul 2018 19:26:36 +0100
REM compiler GCC version 6.3.0
REM options -cpp -iprefix /gpfs/warwick/csc/orac/software/Core/GCCcore/6.3.0/bin/../lib/gcc/x86_64-pc-linux-gnu/6.3.0/ -mtune=generic -march=x86-64 -g -O0
REM seed -174535238 -557414993 295233563 -92192530 -872432308 -168179203 -949885755 80494735 1341579005 -768648288 710117279 1257926569
REM
REM C.POTCAR (d86ddea03c3ceb6dc662c8ad6801f873)
REM 
CELL 1.54180   15.00000   15.00000   15.00000   90.00000   90.00000   90.00000
LATT -1
SFAC C  
C      1  0.5136312109866  0.4567587637145  0.6480718137901 1.0
C      1  0.4863674430515  0.4567537790443  0.3519313177582 1.0
C      1  0.3491152100893  0.5660688055339  0.1977349367331 1.0
C      1  0.6508826247266  0.5660724181935  0.8022643369375 1.0
C      1  0.1778032942486  0.5582394990430  0.6154627006437 1.0
C      1  0.8221900089705  0.5582429618070  0.3845367676875 1.0
C      1  0.3074298894578  0.2457004377920  0.7291716766495 1.0
C      1  0.6925702746367  0.2457057031607  0.2708317325260 1.0
C      1  0.7013226223509  0.3590023610331  0.6673846002913 1.0
C      1  0.2986759775305  0.3589955483017  0.3326142766049 1.0
C      1  0.3909534511806  0.2052715176867  0.7192921008949 1.0
C      1  0.6090492870542  0.2052717940871  0.2807058846083 1.0
C      1  0.5101639092951  0.6630802576835  0.5447740133321 1.0
C      1  0.4898351496965  0.6630782536427  0.4552245766728 1.0
C      1  0.2242181222521  0.5390540857984  0.6965719912936 1.0
C      1  0.7757811816430  0.5390560296710  0.3034207508667 1.0
C      1  0.4210463354497  0.4441300672818  0.6864154380729 1.0
C      1  0.5789560105944  0.4441325585379  0.3135878466040 1.0
C      1  0.2410066857051  0.4304512682047  0.2877103702269 1.0
C      1  0.7589934406040  0.4304551990437  0.7122909375500 1.0
C      1  0.3111076579977  0.2011574545698  0.5217475303071 1.0
C      1  0.6888938877524  0.2011591124812  0.4782546072161 1.0
C      1  0.7520461440965  0.7729089110242  0.4931724032574 1.0
C      1  0.2479550367465  0.7729037880301  0.5068254791964 1.0
C      1  0.8099001510947  0.5554959131098  0.6162202536532 1.0
C      1  0.1901047994492  0.5554948849948  0.3837817053450 1.0
C      1  0.7228266219415  0.3033363884356  0.5887305000716 1.0
C      1  0.2771746682472  0.3033329678301  0.4112715484074 1.0
C      1  0.6136648859326  0.8346373327917  0.4706685383520 1.0
C      1  0.3863326124835  0.8346385676753  0.5293247708612 1.0
C      1  0.6098932944570  0.5555820238804  0.4812134330620 1.0
C      1  0.3901061623153  0.5555826086548  0.5187876740732 1.0
C      1  0.5251933735327  0.1527475833287  0.6694999652490 1.0
C      1  0.4748108325096  0.1527443445129  0.3304982615605 1.0
C      1  0.3631042775326  0.7396564566944  0.7248649365412 1.0
C      1  0.6368961118534  0.7396587453701  0.2751271088395 1.0
C      1  0.3191740825558  0.2967752070527  0.2423228132390 1.0
C      1  0.6808271380921  0.2967761166541  0.7576774218663 1.0
C      1  0.4552658044904  0.5923839174041  0.5789825886430 1.0
C      1  0.5447347012176  0.5923822169158  0.4210183787965 1.0
C      1  0.5729361175618  0.1532160740736  0.3539177440433 1.0
C      1  0.4270690367925  0.1532146031134  0.6460814777441 1.0
C      1  0.5431969491169  0.7304958739875  0.2598436698004 1.0
C      1  0.4568017536024  0.7304976941500  0.7401508195391 1.0
C      1  0.2742703990287  0.5860647339970  0.2496151395818 1.0
C      1  0.7257296442994  0.5860683414408  0.7503835015078 1.0
C      1  0.5820316468666  0.2054907854748  0.5980241044296 1.0
C      1  0.4179683726324  0.2054917352130  0.4019738478362 1.0
C      1  0.6825510433799  0.6437698873018  0.6096108952818 1.0
C      1  0.3174477231701  0.6437667324035  0.3903884174225 1.0
C      1  0.3437069925252  0.6530876099978  0.7646567407678 1.0
C      1  0.6562931746889  0.6530905107513  0.2353399546506 1.0
C      1  0.4614272167371  0.7605745627131  0.2987729945777 1.0
C      1  0.5385695294899  0.7605798499292  0.7012249510403 1.0
C      1  0.5638709862288  0.3965806282558  0.4881653094764 1.0
C      1  0.4361265172147  0.3965819455698  0.5118365449301 1.0
C      1  0.5927387343490  0.6428519435872  0.8060121063099 1.0
C      1  0.4072585999982  0.6428498720838  0.1939856315849 1.0
C      1  0.7837650323168  0.6465219807284  0.5819237099227 1.0
C      1  0.2162319173034  0.6465211746809  0.4180806330589 1.0
C      1  0.3883464409644  0.7085792535327  0.2555117639078 1.0
C      1  0.6116498271648  0.7085866615600  0.7444852060051 1.0
C      1  0.2450725782459  0.3367486009326  0.4932959342142 1.0
C      1  0.7549296254442  0.3367508798583  0.5067067392148 1.0
C      1  0.7428506839701  0.3646033350462  0.7710668979658 1.0
C      1  0.2571504793799  0.3646009165744  0.2289336326867 1.0
C      1  0.2800498942469  0.3159511958585  0.7903046896266 1.0
C      1  0.7199512364072  0.3159547250030  0.2096979887617 1.0
C      1  0.1868870990558  0.6520125240914  0.5935914067027 1.0
C      1  0.8131056059336  0.6520142635655  0.4064085283579 1.0
C      1  0.2581846170297  0.2706948918147  0.5634909957117 1.0
C      1  0.7418190950188  0.2706970970438  0.4365120992629 1.0
C      1  0.5221582117572  0.8332973108988  0.4548033627218 1.0
C      1  0.4778374149894  0.8332999725568  0.5451899352478 1.0
C      1  0.7771547435652  0.5243458163646  0.6991696480518 1.0
C      1  0.2228459967308  0.5243435870189  0.3008288138072 1.0
C      1  0.6083933359829  0.1646563065001  0.4430922594444 1.0
C      1  0.3916113787702  0.1646561017224  0.5569077747395 1.0
C      1  0.3933713370416  0.3453540920194  0.2896930008609 1.0
C      1  0.6066313533795  0.3453559124314  0.7103079066350 1.0
C      1  0.8187065785332  0.4957095566826  0.4551476476054 1.0
C      1  0.1812910249259  0.4956975400271  0.5448509590035 1.0
C      1  0.7377569490686  0.4497284567326  0.3088747304842 1.0
C      1  0.2622437427858  0.4497253233837  0.6911251609639 1.0
C      1  0.2863894161935  0.7905052765591  0.4201451044134 1.0
C      1  0.7136076670768  0.7905100723319  0.5798532551303 1.0
C      1  0.4879826744066  0.5888732355075  0.1887299854871 1.0
C      1  0.5120173758737  0.5888738712427  0.8112693631242 1.0
C      1  0.6551761096970  0.4498376961790  0.3624899350539 1.0
C      1  0.3448258670829  0.4498331407953  0.6375145091290 1.0
C      1  0.5417269129270  0.2955614929806  0.6431693808587 1.0
C      1  0.4582768999110  0.2955598510023  0.3568315250897 1.0
C      1  0.7019510578980  0.7617574844489  0.3409963760037 1.0
C      1  0.2980443768817  0.7617567112642  0.6590005099868 1.0
C      1  0.2337409458219  0.6913162154499  0.6664507488239 1.0
C      1  0.7662547476455  0.6913179211576  0.3335492522651 1.0
C      1  0.7496538377811  0.4340188387973  0.4940419363159 1.0
C      1  0.2503486995901  0.4340173878036  0.5059602719796 1.0
C      1  0.3032938959112  0.6735288426189  0.2931267793648 1.0
C      1  0.6967062878440  0.6735366225303  0.7068748962160 1.0
C      1  0.4003264596153  0.6081060144839  0.4317145758615 1.0
C      1  0.5996741724000  0.6081099131223  0.5682887700679 1.0
C      1  0.5448568041906  0.1735671543148  0.5097732589368 1.0
C      1  0.4551501071656  0.1735677177799  0.4902266667214 1.0
C      1  0.6793244751477  0.3579196227056  0.1342371339241 1.0
C      1  0.3206786075778  0.3579157959171  0.8657629145761 1.0
C      1  0.3543012466266  0.4606136994262  0.5363788475981 1.0
C      1  0.6456973274962  0.4606166273150  0.4636239723024 1.0
C      1  0.5477604897346  0.4098948186797  0.2305110083035 1.0
C      1  0.4522396143967  0.4098964173774  0.7694915637426 1.0
C      1  0.2019398598619  0.6896798822126  0.5087239184332 1.0
C      1  0.7980567258104  0.6896816242421  0.4912759402602 1.0
C      1  0.7423964376433  0.2844895210026  0.3449015443385 1.0
C      1  0.2576042009412  0.2844863513257  0.6551034144312 1.0
C      1  0.7369620096778  0.6209507260906  0.2719920834300 1.0
C      1  0.2630405423227  0.6209470818969  0.7280033178994 1.0
C      1  0.6767594017351  0.2210801323352  0.5706966431244 1.0
C      1  0.3232403243442  0.2210806421073  0.4293054702309 1.0
C      1  0.4499731776050  0.4269797218857  0.2563030298039 1.0
C      1  0.5500305487352  0.4269781995418  0.7436987948044 1.0
C      1  0.4705556686829  0.5482066822454  0.3825280048891 1.0
C      1  0.5294441053643  0.5482119108500  0.6174753913718 1.0
C      1  0.7460832764676  0.7216862023445  0.6384613296261 1.0
C      1  0.2539139885389  0.7216817812330  0.3615373203799 1.0
C      1  0.7624992144231  0.3618334496478  0.2856444749252 1.0
C      1  0.2375042778177  0.3618304309633  0.7143562892547 1.0
C      1  0.3995868501262  0.3761467448947  0.8356216283731 1.0
C      1  0.6004132128812  0.3761463739132  0.1643795788945 1.0
C      1  0.8126681231014  0.4952240037420  0.5441026838592 1.0
C      1  0.1873353586821  0.4952187451053  0.4559056814542 1.0
C      1  0.3722422244782  0.8263080782617  0.4315248073336 1.0
C      1  0.6277500703540  0.8263085138875  0.5684720376075 1.0
C      1  0.4548704216321  0.8107491862177  0.3838961978073 1.0
C      1  0.5451228919305  0.8107512025225  0.6161013281373 1.0
C      1  0.6936461389852  0.8044024979068  0.4243146131301 1.0
C      1  0.3063529860399  0.8044014263871  0.5756833556016 1.0
C      1  0.5608228721574  0.6418758827364  0.2140073040239 1.0
C      1  0.4391769191902  0.6418758254088  0.7859917274932 1.0
C      1  0.5190313472305  0.2333504727212  0.2995265349106 1.0
C      1  0.4809710411827  0.2333507709536  0.7004743484135 1.0
C      1  0.5148871043122  0.3794840966523  0.5765982836723 1.0
C      1  0.4851159551031  0.3794841175419  0.4234034115797 1.0
C      1  0.5721096554844  0.5092747228287  0.7982660846469 1.0
C      1  0.4278919787476  0.5092738452597  0.2017376208121 1.0
END
