TITL C-8780-8989-44 -5.04 3375.00 -895.47622424 0 0 105 (Cs) n - 1
REM
REM Run started: at 2020.12.21 23:43:10 in /gpfs/home/chem/mssmkc/CARBON/AIRSS/Generating-Clusters/Str-Search/Higher-Symm/C100-200
REM VASP from code version vasp.5.4.4.18Apr17-6-g9f103f2a35 (build Oct 11 2019 16:45:47) gamma-only
REM
REM
REM
REM
REM ./C.cell (533062f00bc710175b3da973d35f2034)
REM AIRSS Version 0.9.1 bugfix July 2018 build 013d7b7c2542+ Fri, 06 Jul 2018 19:26:36 +0100
REM compiler GCC version 6.3.0
REM options -cpp -iprefix /gpfs/warwick/csc/orac/software/Core/GCCcore/6.3.0/bin/../lib/gcc/x86_64-pc-linux-gnu/6.3.0/ -mtune=generic -march=x86-64 -g -O0
REM seed -1863248488 1536328525 -583909009 -651608827 1522826745 1651973079 490374608 567334201 -1160667801 -127074472 541719643 -1986135633
REM
REM C.POTCAR (d86ddea03c3ceb6dc662c8ad6801f873)
REM 
CELL 1.54180   15.00000   15.00000   15.00000   90.00000   90.00000   90.00000
LATT -1
SFAC C  
C      1  0.3395912278981  0.4537421241780  0.7593813088330 1.0
C      1  0.6177973865498  0.3841613637661  0.7610570498503 1.0
C      1  0.5374293193403  0.6619137336356  0.7603794784539 1.0
C      1  0.3370943877652  0.4517928782624  0.2356701687213 1.0
C      1  0.6247730449392  0.3834558403355  0.2268433880600 1.0
C      1  0.5421262958248  0.6590772039083  0.2324392137940 1.0
C      1  0.3395898719372  0.5462553235306  0.7593814622363 1.0
C      1  0.6177946871882  0.6158346727422  0.7610578838716 1.0
C      1  0.5374314612560  0.3380823356351  0.7603779075515 1.0
C      1  0.3370935049057  0.5482108829986  0.2356708060802 1.0
C      1  0.6247715450538  0.6165469717946  0.2268438084870 1.0
C      1  0.5421279466126  0.3409260768064  0.2324391578121 1.0
C      1  0.7395004671376  0.5478347419215  0.6464609616953 1.0
C      1  0.3350271827624  0.6864774148526  0.6456663353613 1.0
C      1  0.4178556485749  0.2650550041987  0.6461048304742 1.0
C      1  0.7475305929962  0.5476275177513  0.3457248987552 1.0
C      1  0.3330606662918  0.6815520961303  0.3461742260653 1.0
C      1  0.4191697478228  0.2759831270274  0.3485994851730 1.0
C      1  0.7395020228404  0.4521658860635  0.6464610087786 1.0
C      1  0.3350292242737  0.3135206524728  0.6456630804017 1.0
C      1  0.4178532820004  0.7349422162597  0.6461083369986 1.0
C      1  0.7475314625498  0.4523746983568  0.3457250369418 1.0
C      1  0.3330643366115  0.3184500855956  0.3461720240582 1.0
C      1  0.4191670424878  0.7240180343488  0.3486019778824 1.0
C      1  0.3941263120142  0.4016195319460  0.8161599149852 1.0
C      1  0.6352318534657  0.4588903623433  0.8170928800562 1.0
C      1  0.4648752899170  0.6402500244066  0.8168914792485 1.0
C      1  0.4002398250096  0.4051234460169  0.1841185381172 1.0
C      1  0.6409934031200  0.4586690361770  0.1713805114386 1.0
C      1  0.4691796397844  0.6391014506598  0.1764730781178 1.0
C      1  0.3941249076402  0.5983787841117  0.8161606517451 1.0
C      1  0.6352291947374  0.5411050344145  0.8170929322739 1.0
C      1  0.4648792600968  0.3597499753838  0.8168897844712 1.0
C      1  0.4002379603066  0.5948835905890  0.1841206347725 1.0
C      1  0.6409917276974  0.5413369915496  0.1713797614210 1.0
C      1  0.4691809364440  0.3609036526933  0.1764742574904 1.0
C      1  0.3048574567053  0.5931891554874  0.3114558086530 1.0
C      1  0.5101168711207  0.3174093987611  0.3276720418751 1.0
C      1  0.6661654879195  0.6036053224217  0.3194756632908 1.0
C      1  0.3281762876394  0.5873211729329  0.6679177828967 1.0
C      1  0.5073656621320  0.3076195729048  0.6687900640610 1.0
C      1  0.6582493556801  0.6050985301932  0.6695327418337 1.0
C      1  0.3048589126568  0.4068126257242  0.3114547468110 1.0
C      1  0.5101132921137  0.6825916317169  0.3276736096066 1.0
C      1  0.6661677478984  0.3963962018708  0.3194754652666 1.0
C      1  0.3281778582075  0.4126762286864  0.6679162499214 1.0
C      1  0.5073638413936  0.6923777551857  0.6687914187524 1.0
C      1  0.6582508142508  0.3948999136160  0.6695306967913 1.0
C      1  0.7315287568172  0.6704384651132  0.4475349975007 1.0
C      1  0.2345203262170  0.6129876108922  0.4490345816154 1.0
C      1  0.5313340873233  0.2188987546813  0.4481319067709 1.0
C      1  0.7293780043876  0.6710670762444  0.5459368607270 1.0
C      1  0.2345810397903  0.6135734575921  0.5447243646661 1.0
C      1  0.5310452534203  0.2138589709229  0.5458443265813 1.0
C      1  0.7315308006272  0.3295633834714  0.4475337791070 1.0
C      1  0.2345218799728  0.3870110727680  0.4490318331921 1.0
C      1  0.5313309306788  0.7811004364320  0.4481351631210 1.0
C      1  0.7293812737783  0.3289338129209  0.5459367975229 1.0
C      1  0.2345833045143  0.3864244134000  0.5447208256610 1.0
C      1  0.5310421381028  0.7861404360931  0.5458476871402 1.0
C      1  0.5142143775309  0.5919858280314  0.3798786745551 1.0
C      1  0.4632706081846  0.4494122940085  0.4498234521532 1.0
C      1  0.5905913190738  0.4538577644666  0.3571471338541 1.0
C      1  0.4976568310575  0.6016135686882  0.6127367441286 1.0
C      1  0.4115966807955  0.4505431032619  0.6125546257922 1.0
C      1  0.5824653470384  0.4492920049005  0.6176621079307 1.0
C      1  0.5142170876204  0.4080135125426  0.3798794606482 1.0
C      1  0.4632682471569  0.5505861595797  0.4498220532033 1.0
C      1  0.5905900695691  0.5461428241073  0.3571465510104 1.0
C      1  0.4976594043362  0.3983855061088  0.6127375064137 1.0
C      1  0.4115958938738  0.5494559994000  0.6125537538824 1.0
C      1  0.5824625972300  0.5507043611470  0.6176612243799 1.0
C      1  0.5799502431241  0.7285309638670  0.3872015526137 1.0
C      1  0.2529060484873  0.4525415684892  0.3799750242976 1.0
C      1  0.6639068623400  0.3154937473026  0.3844133041491 1.0
C      1  0.5782053379116  0.7343468107872  0.6084943311885 1.0
C      1  0.2555390829038  0.4533388165013  0.6091473548540 1.0
C      1  0.6602296019192  0.3133674514624  0.6081903780973 1.0
C      1  0.5799533558196  0.2714698091557  0.3871992654299 1.0
C      1  0.2529061561218  0.5474582104079  0.3799749659702 1.0
C      1  0.6639043058861  0.6845069150843  0.3844132167659 1.0
C      1  0.5782095345967  0.2656512410959  0.6084921259627 1.0
C      1  0.2555380426433  0.5466588836031  0.6091485249871 1.0
C      1  0.6602271571007  0.6866327931261  0.6081923167041 1.0
C      1  0.2754042585221  0.3018971513357  0.5734662592065 1.0
C      1  0.7805121098583  0.4067687982799  0.5741162593065 1.0
C      1  0.4373962426820  0.7914962996554  0.5727082451393 1.0
C      1  0.2761098749566  0.3037575318172  0.4213758361074 1.0
C      1  0.7839758298993  0.4072210840550  0.4209092882481 1.0
C      1  0.4380466313929  0.7833585495111  0.4201949637908 1.0
C      1  0.2754004917296  0.6981014849011  0.5734700489080 1.0
C      1  0.7805099506568  0.5932328618233  0.5741156611384 1.0
C      1  0.4373980419588  0.2085024458091  0.5727039229430 1.0
C      1  0.2761065526614  0.6962423019999  0.4213798197897 1.0
C      1  0.7839739586237  0.5927822370370  0.4209090476635 1.0
C      1  0.4380489729113  0.2166409919761  0.4201912053799 1.0
C      1  0.2989899499383  0.7500895538211  0.4966667805149 1.0
C      1  0.8163418993307  0.5468516289590  0.4981947530251 1.0
C      1  0.2989924770520  0.2499108026892  0.4966623597653 1.0
C      1  0.8163430162007  0.4531509800776  0.4981951875039 1.0
C      1  0.3803291792659  0.7959685257252  0.4957321519243 1.0
C      1  0.3803329592153  0.2040296954046  0.4957281829931 1.0
C      1  0.4416617688975  0.5933954069961  0.5307813823378 1.0
C      1  0.6155537171542  0.4999996095612  0.5400233161846 1.0
C      1  0.4416645755699  0.4066037585440  0.5307836053179 1.0
END
