TITL C-8780-8989-26 -5.743 3375.00 -1011.37093663 0 0 125 (C1) n - 1
REM
REM Run started: at 2020.12.21 10:54:55 in /gpfs/home/chem/mssmkc/CARBON/AIRSS/Generating-Clusters/Str-Search/Higher-Symm/C100-200
REM VASP from code version vasp.5.4.4.18Apr17-6-g9f103f2a35 (build Oct 11 2019 16:45:47) gamma-only
REM
REM
REM
REM
REM ./C.cell (533062f00bc710175b3da973d35f2034)
REM AIRSS Version 0.9.1 bugfix July 2018 build 013d7b7c2542+ Fri, 06 Jul 2018 19:26:36 +0100
REM compiler GCC version 6.3.0
REM options -cpp -iprefix /gpfs/warwick/csc/orac/software/Core/GCCcore/6.3.0/bin/../lib/gcc/x86_64-pc-linux-gnu/6.3.0/ -mtune=generic -march=x86-64 -g -O0
REM seed -1805801329 -1254555527 -1926099629 -926056805 1387884420 1780748872 -114027901 -131208124 -623187774 -2080526778 439935708 317933636
REM
REM C.POTCAR (d86ddea03c3ceb6dc662c8ad6801f873)
REM 
CELL 1.54180   15.00000   15.00000   15.00000   90.00000   90.00000   90.00000
LATT -1
SFAC C  
C      1  0.5320330404482  0.3062219848920  0.5702819533059 1.0
C      1  0.5860256278904  0.7145642053707  0.5826657171870 1.0
C      1  0.3723339088530  0.5815693816487  0.6346810342681 1.0
C      1  0.3813690901332  0.4292000515422  0.6236578715212 1.0
C      1  0.7838555682538  0.6293303188994  0.3456599598957 1.0
C      1  0.7112354111488  0.3929630798274  0.4247183020191 1.0
C      1  0.6100485991464  0.6954772276218  0.6714087380330 1.0
C      1  0.5988625819560  0.2617133841541  0.6336462402727 1.0
C      1  0.4974889542606  0.4069659958652  0.1790819356940 1.0
C      1  0.4971030197442  0.5788488032626  0.1805845298517 1.0
C      1  0.3271744932919  0.7131189255523  0.3953828050524 1.0
C      1  0.3272126722789  0.2867072896288  0.4025058583586 1.0
C      1  0.6216905850280  0.4238648101916  0.6040620841112 1.0
C      1  0.6295209447975  0.5671311360792  0.5914350439603 1.0
C      1  0.5444417650329  0.6290223240757  0.8052707822113 1.0
C      1  0.5857567029886  0.3379450800282  0.7506780665626 1.0
C      1  0.6093167431768  0.1701737263606  0.4808995934294 1.0
C      1  0.6200403197450  0.8584360242515  0.4653680291999 1.0
C      1  0.5890620277079  0.6300016832301  0.5244077321890 1.0
C      1  0.5771086135610  0.3856479773083  0.5168142086955 1.0
C      1  0.4536405581994  0.7359622015988  0.7219476225283 1.0
C      1  0.4544282165001  0.2548734393974  0.7153342384935 1.0
C      1  0.7834439287037  0.6540067327903  0.5188551254454 1.0
C      1  0.7898524739615  0.3735672464655  0.5755229346709 1.0
C      1  0.4536969154844  0.2013685780567  0.4740986752252 1.0
C      1  0.4676098394544  0.7705242285989  0.4690026979986 1.0
C      1  0.2455839530491  0.5883786988052  0.2586519996509 1.0
C      1  0.2556915402635  0.3970780304523  0.2612058433240 1.0
C      1  0.8005862165754  0.5456338532263  0.2953066397766 1.0
C      1  0.7599607770999  0.4079676066793  0.3291733335941 1.0
C      1  0.4902425291464  0.6024974674597  0.5278728841422 1.0
C      1  0.4881895749512  0.4275393870256  0.5086973571239 1.0
C      1  0.3730449895348  0.2512038440159  0.4780696182038 1.0
C      1  0.3782210791919  0.7438978062062  0.4734850657398 1.0
C      1  0.5520215674643  0.3357304233419  0.2048840218905 1.0
C      1  0.5510512189291  0.6520290069392  0.2070173905488 1.0
C      1  0.2928086478890  0.6511072308036  0.6269486781866 1.0
C      1  0.3048859379536  0.3628677923343  0.6304779105381 1.0
C      1  0.7984195916925  0.6036832030403  0.4419649917821 1.0
C      1  0.7634110496505  0.4454224296820  0.5094085047256 1.0
C      1  0.6524323609712  0.3438718932657  0.6656570744622 1.0
C      1  0.6850008856720  0.6245894694321  0.6533747062423 1.0
C      1  0.5896123400248  0.1824648012923  0.5697441413661 1.0
C      1  0.5729628346394  0.8631510647037  0.5357422701688 1.0
C      1  0.3780758523896  0.6715710288556  0.3272753458061 1.0
C      1  0.3812440346853  0.3155970175511  0.3263462320311 1.0
C      1  0.4220160299720  0.2261291249766  0.6334127266524 1.0
C      1  0.4414570782287  0.7476745736923  0.6235639254148 1.0
C      1  0.1974466733472  0.6217021201545  0.3392664540432 1.0
C      1  0.2127435242147  0.3856366849129  0.3430262748982 1.0
C      1  0.4218063530568  0.3332809433811  0.7623537368346 1.0
C      1  0.3683514866942  0.7167028139018  0.7550266463227 1.0
C      1  0.6178401599980  0.2057820240718  0.3928227280723 1.0
C      1  0.6106830420085  0.8096655268870  0.3838889919320 1.0
C      1  0.4603280443233  0.3626918942640  0.3638883766702 1.0
C      1  0.4593621218970  0.6223001071883  0.3603377258167 1.0
C      1  0.3444219076911  0.3555116589692  0.2480112229700 1.0
C      1  0.3428688376192  0.6167154899292  0.2553609814079 1.0
C      1  0.2956023967444  0.6953133801007  0.7174096129594 1.0
C      1  0.3389979507578  0.3675176719657  0.7416015937531 1.0
C      1  0.3600426660715  0.7174297441888  0.5692513392770 1.0
C      1  0.3658533100546  0.2898978963502  0.5754520199971 1.0
C      1  0.2274270818647  0.4122873731296  0.5758948117638 1.0
C      1  0.2223857014516  0.6013644235369  0.5712861463756 1.0
C      1  0.3997916469891  0.4077326403024  0.1851347927164 1.0
C      1  0.4001801652324  0.5739526983962  0.1836831878292 1.0
C      1  0.7484480834662  0.3421638561267  0.6401405806182 1.0
C      1  0.7535984989702  0.6636833957657  0.5946782717222 1.0
C      1  0.7355614300926  0.3195185949635  0.3610161857928 1.0
C      1  0.7381946418531  0.7063691935714  0.3249350923718 1.0
C      1  0.5145518371072  0.7823297867715  0.5593085082869 1.0
C      1  0.4896812062504  0.2016818897697  0.5645379170562 1.0
C      1  0.5891069053167  0.6900491814226  0.2753217915270 1.0
C      1  0.5933481860783  0.3117719747756  0.2791905319109 1.0
C      1  0.2154584761646  0.3901993780362  0.4869582353885 1.0
C      1  0.2062562212520  0.6233766757642  0.4834374898193 1.0
C      1  0.5288153897638  0.5423949482214  0.8082597096123 1.0
C      1  0.5076472060595  0.3968563855674  0.7816062498081 1.0
C      1  0.4426848573442  0.4446471049702  0.4211098679187 1.0
C      1  0.4421301570526  0.5841726165518  0.4457195045413 1.0
C      1  0.5323709786096  0.1775401004608  0.4216790986874 1.0
C      1  0.5308251878828  0.7621083798482  0.3969154976747 1.0
C      1  0.5507622595670  0.2585583331068  0.7198309605041 1.0
C      1  0.5420849371356  0.6966527646279  0.7432058003926 1.0
C      1  0.6631467316008  0.7534236356942  0.3158629382090 1.0
C      1  0.6638467417513  0.2628843293540  0.3319348454810 1.0
C      1  0.6127683896286  0.4096815762597  0.4247195577573 1.0
C      1  0.6068076288322  0.6126278931289  0.4273650393189 1.0
C      1  0.5516957533622  0.3583932410865  0.3563365811450 1.0
C      1  0.5465912671534  0.6688614735550  0.3661343367568 1.0
C      1  0.1906181345103  0.5549786948745  0.4147553674359 1.0
C      1  0.2016754133978  0.4573824989890  0.4129025034211 1.0
C      1  0.4332219382344  0.6498100950708  0.5936789619619 1.0
C      1  0.4451219382314  0.3628820222519  0.5754093632867 1.0
C      1  0.2430075122844  0.3280581775630  0.4131009015280 1.0
C      1  0.2339497037157  0.6824918899537  0.4031524587135 1.0
C      1  0.7221934042862  0.4829921470883  0.2679078810316 1.0
C      1  0.3303026701829  0.4642018586623  0.7644356262992 1.0
C      1  0.4860058411590  0.5095637768114  0.5624429105676 1.0
C      1  0.5546717410281  0.4996695756647  0.6356434027476 1.0
C      1  0.2012631658176  0.5071018529376  0.6082779527439 1.0
C      1  0.6310974752776  0.4942552501810  0.2182547266578 1.0
C      1  0.7327412741253  0.5331914395017  0.6776357654303 1.0
C      1  0.1956789179560  0.5091331834511  0.6990074979556 1.0
C      1  0.8236297152739  0.4790868196594  0.3589842845362 1.0
C      1  0.5915635181213  0.5171317495494  0.3905578408612 1.0
C      1  0.2886840583461  0.5141171530893  0.4034601587030 1.0
C      1  0.3999174110117  0.5026740329067  0.7037737926540 1.0
C      1  0.3134266321460  0.5326956093615  0.3109736833208 1.0
C      1  0.6968725096301  0.4892124832407  0.5842104443240 1.0
C      1  0.5144963529579  0.4388925726585  0.9494241602094 1.0
C      1  0.7342891172149  0.4918857821600  0.7672020399044 1.0
C      1  0.3687721717142  0.5122048714647  0.4622556216934 1.0
C      1  0.3561499449259  0.4905067424551  0.1736024558256 1.0
C      1  0.8189745671781  0.5254311373882  0.7252855754203 1.0
C      1  0.2468125759612  0.4982146327105  0.7657458492541 1.0
C      1  0.8181917750473  0.4872738593607  0.8124718613271 1.0
C      1  0.3812790563737  0.5079620637880  0.5648597598718 1.0
C      1  0.5435433451675  0.4924886947602  0.1743444709769 1.0
C      1  0.4911966653393  0.5234949432443  0.3801207593429 1.0
C      1  0.8160658898696  0.5103428476650  0.4492343272190 1.0
C      1  0.5211284772237  0.4610179705996  0.8645481040541 1.0
C      1  0.5004329287489  0.4907518168737  0.7248144861214 1.0
C      1  0.2717456210725  0.4899136253645  0.2290722713654 1.0
C      1  0.6371672024376  0.5120650371892  0.3040988557419 1.0
END
