TITL C-8780-8989-53 -4.983 3375.00 -848.36070536 0 0 103 (C1) n - 1
REM
REM Run started: at 2020.12.22 06:57:34 in /gpfs/home/chem/mssmkc/CARBON/AIRSS/Generating-Clusters/Str-Search/Higher-Symm/C100-200
REM VASP from code version vasp.5.4.4.18Apr17-6-g9f103f2a35 (build Oct 11 2019 16:45:47) gamma-only
REM
REM
REM
REM
REM ./C.cell (533062f00bc710175b3da973d35f2034)
REM AIRSS Version 0.9.1 bugfix July 2018 build 013d7b7c2542+ Fri, 06 Jul 2018 19:26:36 +0100
REM compiler GCC version 6.3.0
REM options -cpp -iprefix /gpfs/warwick/csc/orac/software/Core/GCCcore/6.3.0/bin/../lib/gcc/x86_64-pc-linux-gnu/6.3.0/ -mtune=generic -march=x86-64 -g -O0
REM seed -1614843902 793219570 -229754186 1662968150 746311024 -188887322 1219514030 1743666336 1240709871 -1147725145 -953505890 68402879
REM
REM C.POTCAR (d86ddea03c3ceb6dc662c8ad6801f873)
REM 
CELL 1.54180   15.00000   15.00000   15.00000   90.00000   90.00000   90.00000
LATT -1
SFAC C  
C      1  0.3325355573180  0.2228513038024  0.4542218341938 1.0
C      1  0.3324206596225  0.2184652705422  0.5520727067188 1.0
C      1  0.2855343122564  0.4289724306915  0.3186791696300 1.0
C      1  0.3141289481555  0.4191741193127  0.6909016301476 1.0
C      1  0.6495819553594  0.8516141777334  0.5984457155392 1.0
C      1  0.6502265978477  0.8458780042088  0.4026603599634 1.0
C      1  0.4099187935962  0.1755092243877  0.7401526816468 1.0
C      1  0.4042986242895  0.1955913195810  0.2637471863165 1.0
C      1  0.7795350024634  0.6447471114570  0.5519547065999 1.0
C      1  0.7835516573695  0.6436549257095  0.4531456076023 1.0
C      1  0.3863441333653  0.3046140187897  0.2595054023450 1.0
C      1  0.3863461422684  0.2828418018824  0.7482166461056 1.0
C      1  0.2872166673404  0.2905507967178  0.4043764220743 1.0
C      1  0.2856456288901  0.2802243491160  0.6079963605967 1.0
C      1  0.7364089087388  0.7029112903410  0.3883781113651 1.0
C      1  0.7344911753875  0.7078601702793  0.6139169129218 1.0
C      1  0.5202915056883  0.5392652051857  0.1592327109175 1.0
C      1  0.5050901831818  0.5417162533580  0.8256337691832 1.0
C      1  0.3276668683649  0.4977676745134  0.2598775072059 1.0
C      1  0.3878111633916  0.4849956924129  0.7193775520576 1.0
C      1  0.5169306212388  0.6854146464329  0.2381513846594 1.0
C      1  0.5245210943215  0.6981346463757  0.7693537918777 1.0
C      1  0.4554284157210  0.7516397004265  0.6190918597945 1.0
C      1  0.4640155204348  0.7392724258015  0.3894802837189 1.0
C      1  0.4849628929333  0.8222428810747  0.5503154461768 1.0
C      1  0.4883368527266  0.8158682767228  0.4528599425624 1.0
C      1  0.6807269685118  0.4690817578191  0.3099586789488 1.0
C      1  0.6498453894411  0.4792567988094  0.6814622105433 1.0
C      1  0.6675156309382  0.3015995394547  0.3282753904067 1.0
C      1  0.6544344806744  0.3128682982742  0.6759827039879 1.0
C      1  0.5932867836370  0.6736326193494  0.3022632991795 1.0
C      1  0.5920579303508  0.6906301446421  0.7020391978081 1.0
C      1  0.2443801273981  0.4777408389984  0.3956364063667 1.0
C      1  0.2558392475987  0.4707616499462  0.6280747826505 1.0
C      1  0.5445881517795  0.6997635878970  0.6210246051155 1.0
C      1  0.5515284767266  0.6862823000932  0.3842895338526 1.0
C      1  0.4418885139951  0.7227540384717  0.2855791462371 1.0
C      1  0.4443961382851  0.7320681753155  0.7251391439062 1.0
C      1  0.5780510025579  0.6671914769560  0.5445360823762 1.0
C      1  0.5848502312679  0.6592535994264  0.4638017032449 1.0
C      1  0.4902532719778  0.3162465488557  0.2567860878483 1.0
C      1  0.4840485896674  0.3051704485780  0.7491240326517 1.0
C      1  0.6899759533789  0.6462950340378  0.3179785141813 1.0
C      1  0.6831196707981  0.6552384567835  0.6838796954963 1.0
C      1  0.7545370039484  0.4821285442139  0.5493124239326 1.0
C      1  0.7625221162871  0.4806545846287  0.4552308515493 1.0
C      1  0.6737984416271  0.4499609040247  0.5876384884542 1.0
C      1  0.6890506686744  0.4453502729781  0.4061552742529 1.0
C      1  0.2072031610313  0.4264776303977  0.4632694583865 1.0
C      1  0.2097545470313  0.4240979979272  0.5641659128889 1.0
C      1  0.2243194707916  0.3284468586365  0.5577399573910 1.0
C      1  0.2234191677288  0.3328156150382  0.4605940244117 1.0
C      1  0.6042396369882  0.4502932436791  0.4440483262704 1.0
C      1  0.5974916336178  0.4498477280852  0.5359552891401 1.0
C      1  0.6495103150910  0.2533709209506  0.3950767876822 1.0
C      1  0.6448479858682  0.2610894848527  0.6101900302548 1.0
C      1  0.3765323202249  0.6892228740524  0.4049890628196 1.0
C      1  0.3642135006586  0.7008506996574  0.6112646834193 1.0
C      1  0.3907407691701  0.5329379872027  0.6314705109879 1.0
C      1  0.4027960609629  0.5141209911767  0.3108832311830 1.0
C      1  0.5166429453124  0.6235165176835  0.8255787764227 1.0
C      1  0.5133132545557  0.6223355454944  0.1704475773323 1.0
C      1  0.4800936203138  0.2320936348396  0.3098445339455 1.0
C      1  0.4836300681718  0.2191213471937  0.6970887760661 1.0
C      1  0.3621484680344  0.2303247144877  0.1931944851413 1.0
C      1  0.3633592934566  0.2037657319345  0.8100009164825 1.0
C      1  0.3723960361276  0.6762954339536  0.7055052100644 1.0
C      1  0.3636408649278  0.6719868994275  0.3145381740291 1.0
C      1  0.4253878312229  0.1875779492431  0.5504076202841 1.0
C      1  0.4251906096223  0.1915430605335  0.4541489159280 1.0
C      1  0.5502813376330  0.4966512388494  0.6739526028247 1.0
C      1  0.5849588970383  0.4930589470365  0.3001376345915 1.0
C      1  0.4888233986804  0.4742520657109  0.7537346796201 1.0
C      1  0.5420027759395  0.4698720728842  0.2154514462482 1.0
C      1  0.5841244608095  0.2226483553207  0.4525121706355 1.0
C      1  0.5835438376375  0.2226556951223  0.5521710915060 1.0
C      1  0.4508354569993  0.5101249120331  0.3888583649441 1.0
C      1  0.4444173344258  0.5215861790125  0.5554237216498 1.0
C      1  0.5758932685525  0.8619611437555  0.4509537225943 1.0
C      1  0.5748996225675  0.8654905901924  0.5495246706436 1.0
C      1  0.7097875899595  0.5661295278525  0.6774144929383 1.0
C      1  0.7310410296166  0.5612261122525  0.3218966555963 1.0
C      1  0.3146582259705  0.6404358623811  0.5606976599458 1.0
C      1  0.3364020617486  0.6167264957183  0.4646856370962 1.0
C      1  0.5003650826966  0.2031410469538  0.6009967882379 1.0
C      1  0.4993919165404  0.2088450652540  0.4035648493437 1.0
C      1  0.6283208100706  0.3860912697426  0.7255896664701 1.0
C      1  0.6538443889743  0.3704738287043  0.2696681472043 1.0
C      1  0.7135623052589  0.7905081280625  0.3951087155372 1.0
C      1  0.7130069262904  0.7957149243112  0.6045424203392 1.0
C      1  0.7843797895006  0.5599803197773  0.4069429316371 1.0
C      1  0.7707027975896  0.5615333291073  0.5984052664485 1.0
C      1  0.3245109570461  0.3271182693482  0.6854394759151 1.0
C      1  0.3175776548358  0.3404704766049  0.3261207734504 1.0
C      1  0.5334228560420  0.3806558365894  0.7577428484112 1.0
C      1  0.5573633826864  0.3735098641828  0.2303153985263 1.0
C      1  0.3487837792454  0.5821430743981  0.7101343690970 1.0
C      1  0.3175505037750  0.5847062470098  0.3098224850980 1.0
C      1  0.2958878556425  0.5624187193379  0.6244024413003 1.0
C      1  0.2777034091402  0.5670732479192  0.3963576732070 1.0
C      1  0.5255982881879  0.4840295090602  0.5854314115708 1.0
C      1  0.5422313482957  0.4835987723379  0.3809327133879 1.0
C      1  0.4142857179011  0.5459268703191  0.4705117585411 1.0
END
