TITL C-87758-3113-7 -5.362 3375.00 -932.23325442 0 0 115 (C1) n - 1
REM
REM Run started: at 2020.12.31 11:36:08 in /rds/project/t2_vol4/rds-t2-cs072/BORA/CARBON/AIRSS/Generating-Clusters/Str-Search/Higher-Symm/C100-200
REM VASP from code version vasp.5.4.4.18Apr17-6-g9f103f2a35 (build Oct 11 2019 16:45:47) gamma-only
REM
REM
REM
REM
REM ./C.cell (533062f00bc710175b3da973d35f2034)
REM AIRSS Version 0.9.1 bugfix July 2018 build 013d7b7c2542+ Fri, 06 Jul 2018 19:26:36 +0100
REM compiler GCC version 4.8.5 20150623 (Red Hat 4.8.5-39)
REM options -cpp -mtune=generic -march=x86-64 -g -O0
REM seed 1551006307 148465413 2076394832 -1814847291 -1069937801 293927477 -10087163 685372759 1743447403 214111430 92437754 -1390888706
REM
REM C.POTCAR (d86ddea03c3ceb6dc662c8ad6801f873)
REM 
CELL 1.54180   15.00000   15.00000   15.00000   90.00000   90.00000   90.00000
LATT -1
SFAC C  
C      1  0.3067137648901  0.2708977176700  0.5693064062144 1.0
C      1  0.2963028798079  0.6660200859025  0.6748547141401 1.0
C      1  0.3092531517985  0.5570244083294  0.2669722295953 1.0
C      1  0.3761622061799  0.1878902503589  0.5880161167039 1.0
C      1  0.3666783300670  0.7248054222403  0.7267399857777 1.0
C      1  0.3751580827817  0.5818535718096  0.1816233083834 1.0
C      1  0.3869030754673  0.3152860400320  0.6174086186326 1.0
C      1  0.3720828087589  0.7092272188294  0.5918938816476 1.0
C      1  0.3891377833728  0.4913314359736  0.2745122580351 1.0
C      1  0.7095866897032  0.4781798860188  0.7138855491623 1.0
C      1  0.7137210702146  0.6901487230442  0.4150803659099 1.0
C      1  0.7060180899383  0.3272743981610  0.3680583870937 1.0
C      1  0.5200126380257  0.5573870531898  0.4836675183611 1.0
C      1  0.5173818176938  0.4589409308044  0.4616321809912 1.0
C      1  0.5186953385785  0.4891904096682  0.5560013910557 1.0
C      1  0.3718013203606  0.5259636579901  0.7442820094218 1.0
C      1  0.3783145916289  0.6997805494996  0.3479794783805 1.0
C      1  0.3695221764420  0.2739063680278  0.4057880057770 1.0
C      1  0.6858612544831  0.6527341922627  0.7176859860201 1.0
C      1  0.6913143922048  0.6113547571818  0.2594202951131 1.0
C      1  0.6932149994637  0.2397437893444  0.5183278118135 1.0
C      1  0.5976058812224  0.5689659219048  0.7869434754616 1.0
C      1  0.6060010698682  0.7146504800324  0.2975043156478 1.0
C      1  0.5994774106952  0.2178895078106  0.4161898398364 1.0
C      1  0.3612759190827  0.4101676151913  0.4944284060229 1.0
C      1  0.3656560268294  0.5480073247991  0.5814057346001 1.0
C      1  0.3738348187206  0.5542842405770  0.4166634115921 1.0
C      1  0.4033420327406  0.6333291598699  0.5488900735170 1.0
C      1  0.4101218490141  0.4812216087408  0.3608510890950 1.0
C      1  0.3999443785093  0.3971261090937  0.5842564875327 1.0
C      1  0.2397931229927  0.3106631296544  0.6310016876213 1.0
C      1  0.2699566183228  0.7035995562517  0.5893565795792 1.0
C      1  0.2408182813218  0.4857807741966  0.2836380463614 1.0
C      1  0.6078190670813  0.4342087254543  0.4310546063739 1.0
C      1  0.6100452619379  0.4765654322540  0.5915771715145 1.0
C      1  0.6119032754124  0.5923962259192  0.4766716262037 1.0
C      1  0.4892260043388  0.2687422294969  0.1706713249031 1.0
C      1  0.4972057812618  0.3223009719732  0.8625055808549 1.0
C      1  0.5169363298862  0.9197028281427  0.4777700378576 1.0
C      1  0.7846349764363  0.6348264986588  0.5598054743895 1.0
C      1  0.7810029207637  0.4807419235798  0.3479510781873 1.0
C      1  0.7853249447165  0.3951535830172  0.5790618600461 1.0
C      1  0.5439361680664  0.3322986478826  0.7914297277101 1.0
C      1  0.5469042619087  0.8425675608971  0.4975866895257 1.0
C      1  0.5355317466567  0.3294490325784  0.2097325263879 1.0
C      1  0.3543705428457  0.5525443328005  0.8351262072965 1.0
C      1  0.3636844485424  0.7629244098343  0.2774121842454 1.0
C      1  0.3590577645980  0.1806594875000  0.3902848078203 1.0
C      1  0.4355202958824  0.1389674450585  0.5308543176479 1.0
C      1  0.4263354569701  0.6993030786752  0.7965113461365 1.0
C      1  0.4352295925214  0.6559905213603  0.1697506193186 1.0
C      1  0.7696705295406  0.3977130057939  0.3896645333960 1.0
C      1  0.7734245412724  0.4672057533358  0.6384257956275 1.0
C      1  0.7725838857264  0.6297412997691  0.4671798102665 1.0
C      1  0.6963014815015  0.6868811050139  0.3253141207564 1.0
C      1  0.6907510672090  0.2539366284653  0.4196016375524 1.0
C      1  0.6884756169807  0.5594799895076  0.7524934418028 1.0
C      1  0.5189956533820  0.7173356381837  0.7645174204808 1.0
C      1  0.5286777664981  0.6213564821759  0.1759349049648 1.0
C      1  0.5288528650645  0.1608546514154  0.5577966973598 1.0
C      1  0.7366058804720  0.5192131061491  0.2675720818932 1.0
C      1  0.7450981864367  0.3006029896363  0.5905358381490 1.0
C      1  0.7360363939957  0.6890116665148  0.6317488467468 1.0
C      1  0.6547843799078  0.4112504718882  0.5180007064371 1.0
C      1  0.6525716568497  0.5664909162412  0.5733803693260 1.0
C      1  0.6531626778179  0.5272322514765  0.4089464105266 1.0
C      1  0.6084933068208  0.3607454371591  0.3540694642366 1.0
C      1  0.6130319787060  0.4451725351094  0.6926563076715 1.0
C      1  0.6162428332220  0.6963295507443  0.4528079128072 1.0
C      1  0.5959339119883  0.6663883709963  0.7778009394247 1.0
C      1  0.6045214406638  0.6582571096355  0.2181442898336 1.0
C      1  0.6039270649319  0.1777671194546  0.5037217695959 1.0
C      1  0.2340624234225  0.6756391176353  0.5107103400919 1.0
C      1  0.2308190232639  0.4237734933523  0.3392888021306 1.0
C      1  0.2313070465626  0.3888805583697  0.6605797333387 1.0
C      1  0.4547749526484  0.5021077177643  0.7101240951979 1.0
C      1  0.4601611200870  0.6861478796646  0.3912425885113 1.0
C      1  0.4528197488416  0.3162150561659  0.3985509851625 1.0
C      1  0.5454248724751  0.5047249928034  0.7426215672907 1.0
C      1  0.5517760371547  0.7105274913435  0.3739236307663 1.0
C      1  0.5436119521691  0.2866385211945  0.3840096012091 1.0
C      1  0.1897879291420  0.4928872663265  0.5615372776993 1.0
C      1  0.2324053995606  0.5340227284047  0.4824498056434 1.0
C      1  0.1805052352734  0.4468703949520  0.4809585607999 1.0
C      1  0.5767320058055  0.3909648938106  0.2637849556003 1.0
C      1  0.5839579068021  0.3512719423543  0.7109981151972 1.0
C      1  0.5801916534003  0.7603760285397  0.5232700508818 1.0
C      1  0.4320692167757  0.2384851847708  0.6478797057471 1.0
C      1  0.4183903998107  0.7649504771657  0.6565706629870 1.0
C      1  0.4304235791274  0.5034481909295  0.1904926454075 1.0
C      1  0.4053579308328  0.7333756353029  0.2104064069495 1.0
C      1  0.4039102127741  0.1339391403716  0.4438474778313 1.0
C      1  0.3977274029985  0.6246555365329  0.8426627336220 1.0
C      1  0.6514934023172  0.3204182306763  0.5655313667928 1.0
C      1  0.6412863272095  0.6539321237906  0.6255589963088 1.0
C      1  0.6454330391084  0.5325826309753  0.3064631183897 1.0
C      1  0.5108794790439  0.7546088694467  0.6753763963159 1.0
C      1  0.5236891975577  0.5259138615622  0.1864905643590 1.0
C      1  0.5254702409115  0.2221399825739  0.6313967917081 1.0
C      1  0.7533840400967  0.5499653682054  0.5901616230461 1.0
C      1  0.7553057087556  0.5299646622919  0.4339137064614 1.0
C      1  0.7570886632083  0.4302730013340  0.4870546025328 1.0
C      1  0.5832004292101  0.4830572870300  0.2467640081700 1.0
C      1  0.5874902072459  0.2932244707000  0.6380757248215 1.0
C      1  0.5739886786263  0.7257941222696  0.6097906683627 1.0
C      1  0.2395777051498  0.6255669637673  0.4368382603775 1.0
C      1  0.2208258826854  0.3808929510189  0.4252781516759 1.0
C      1  0.2292299322579  0.4828432928330  0.6458092506971 1.0
C      1  0.4397106987978  0.4125131042634  0.4226313385494 1.0
C      1  0.4400062655648  0.4805213321142  0.6135319908626 1.0
C      1  0.4443468973500  0.6159075482347  0.4613967133141 1.0
C      1  0.3065314107527  0.5538187168442  0.6693101189052 1.0
C      1  0.3148779485349  0.6190634160749  0.3609181308320 1.0
C      1  0.3039100357092  0.3259218768247  0.4668952077741 1.0
C      1  0.3287724309833  0.5076106312042  0.4935742973059 1.0
END
