TITL C-87758-3113-6 -7.921 3375.00 -1361.35067767 0 0 162 (C1) n - 1
REM
REM Run started: at 2020.12.31 11:03:42 in /rds/project/t2_vol4/rds-t2-cs072/BORA/CARBON/AIRSS/Generating-Clusters/Str-Search/Higher-Symm/C100-200
REM VASP from code version vasp.5.4.4.18Apr17-6-g9f103f2a35 (build Oct 11 2019 16:45:47) gamma-only
REM
REM
REM
REM
REM ./C.cell (533062f00bc710175b3da973d35f2034)
REM AIRSS Version 0.9.1 bugfix July 2018 build 013d7b7c2542+ Fri, 06 Jul 2018 19:26:36 +0100
REM compiler GCC version 4.8.5 20150623 (Red Hat 4.8.5-39)
REM options -cpp -mtune=generic -march=x86-64 -g -O0
REM seed -126954073 1010938891 641488193 -1794387824 420067895 -702265912 141852344 1602072681 1120462051 -1292899714 -828419837 1145960088
REM
REM C.POTCAR (d86ddea03c3ceb6dc662c8ad6801f873)
REM 
CELL 1.54180   15.00000   15.00000   15.00000   90.00000   90.00000   90.00000
LATT -1
SFAC C  
C      1  0.7172942830731  0.3255637632606  0.7532515111053 1.0
C      1  0.7175585452929  0.1943538731970  0.5204425733271 1.0
C      1  0.7191357941617  0.2931114563999  0.2716418743755 1.0
C      1  0.7198723951711  0.5485743169356  0.1944973643127 1.0
C      1  0.7193033331237  0.7680502389595  0.3479096965719 1.0
C      1  0.7185391725144  0.7859029682462  0.6145681894971 1.0
C      1  0.7179287577511  0.5893413287773  0.7954693974488 1.0
C      1  0.1834492697636  0.3679426236117  0.6653733088084 1.0
C      1  0.1839216040113  0.2896621126504  0.4995033460855 1.0
C      1  0.1853115676082  0.3709747162211  0.3345055245697 1.0
C      1  0.1836071748799  0.5497472933233  0.2947523645925 1.0
C      1  0.1831592040909  0.6925239375453  0.4100789753071 1.0
C      1  0.1838301523612  0.6908232704171  0.5938604249786 1.0
C      1  0.1829786484133  0.5466609259267  0.7073070069880 1.0
C      1  0.4738634455761  0.7494919236514  0.2998152930350 1.0
C      1  0.4727208415898  0.8160462406134  0.5723926878959 1.0
C      1  0.4717862690439  0.6422361670018  0.7931642703663 1.0
C      1  0.4712745063497  0.3614237445986  0.7931469670300 1.0
C      1  0.4721552125630  0.1883432234004  0.5723215961932 1.0
C      1  0.4750590748627  0.2478065946437  0.3009147919212 1.0
C      1  0.4762131325778  0.5020195798088  0.1785279222624 1.0
C      1  0.2038926650960  0.2715392725484  0.6570602671780 1.0
C      1  0.2060919466603  0.2363092733919  0.4192112994442 1.0
C      1  0.2052242108936  0.4004983471885  0.2422618828785 1.0
C      1  0.2050130076491  0.6401019174138  0.2604757386286 1.0
C      1  0.2043861677021  0.7754829731742  0.4594893487963 1.0
C      1  0.2039813938057  0.7040358440719  0.6897087621785 1.0
C      1  0.2040389925857  0.4802518540182  0.7774593010708 1.0
C      1  0.7978045878103  0.2528198790534  0.3967474097871 1.0
C      1  0.8000590234685  0.4261417713527  0.2397771645463 1.0
C      1  0.7989125308295  0.6558536992025  0.2805862791115 1.0
C      1  0.7984030702850  0.7684963645952  0.4851261242819 1.0
C      1  0.7977313375547  0.6793530607761  0.7008486925745 1.0
C      1  0.7972584971399  0.4553370883531  0.7653659625584 1.0
C      1  0.7972656460663  0.2657065575158  0.6297595113615 1.0
C      1  0.4858081573293  0.6382157870563  0.6108835921257 1.0
C      1  0.4851382484240  0.5019940912286  0.6774524280354 1.0
C      1  0.4854574465768  0.3657633690365  0.6107007370214 1.0
C      1  0.4917045796043  0.3352615845450  0.4615607396860 1.0
C      1  0.4649303079855  0.4197342724471  0.3328092987987 1.0
C      1  0.4950052819860  0.5719518116492  0.3470062013828 1.0
C      1  0.4882611057052  0.6700930548507  0.4628335193867 1.0
C      1  0.2644386937916  0.2273133115677  0.7158685878003 1.0
C      1  0.2660735232907  0.1621834503822  0.4211096989955 1.0
C      1  0.2664470065882  0.3535736573087  0.1864713050937 1.0
C      1  0.2657393077014  0.6546451290006  0.1887428256948 1.0
C      1  0.2656346535829  0.8406050493107  0.4264193950726 1.0
C      1  0.2645246203585  0.7710695987819  0.7201970678451 1.0
C      1  0.2644725716531  0.4984355531692  0.8488376886217 1.0
C      1  0.8592261556371  0.6139726690470  0.5260152555597 1.0
C      1  0.8587118249119  0.5509737082478  0.6056139599780 1.0
C      1  0.8584682557682  0.4497598010405  0.6054184155380 1.0
C      1  0.8586715300355  0.3869612205441  0.5256269098169 1.0
C      1  0.8596472110414  0.4094405150718  0.4262250349282 1.0
C      1  0.8607720606098  0.5005972449115  0.3817113900480 1.0
C      1  0.8601446108904  0.5916834247492  0.4266129634768 1.0
C      1  0.1749872262774  0.5289666217145  0.3909774116590 1.0
C      1  0.1747746555130  0.6042969315452  0.4537567444346 1.0
C      1  0.1749009720581  0.6019159966527  0.5519088261893 1.0
C      1  0.1746762157712  0.5237697573858  0.6115598493661 1.0
C      1  0.1748360995619  0.4285911133119  0.5877668707881 1.0
C      1  0.1752285357442  0.3880571289844  0.4983457190254 1.0
C      1  0.1754253639056  0.4328171854086  0.4107771231563 1.0
C      1  0.3437466366814  0.7647962640156  0.7714354278191 1.0
C      1  0.3437279266833  0.4547798187038  0.8767236246689 1.0
C      1  0.3450677511176  0.1803990046026  0.6985355615173 1.0
C      1  0.3460558543786  0.1453609450465  0.3731218496944 1.0
C      1  0.3471405491413  0.3814690040024  0.1454373603794 1.0
C      1  0.3453505657271  0.7056131148941  0.1837794833450 1.0
C      1  0.3450396798022  0.8765406074315  0.4638641743987 1.0
C      1  0.4965476663961  0.4977893697650  0.2767582831842 1.0
C      1  0.4971743903080  0.6755681837331  0.3598049435906 1.0
C      1  0.4933406569404  0.7228361341516  0.5513908889316 1.0
C      1  0.4920454277932  0.6007162273001  0.7072814284766 1.0
C      1  0.4913648613029  0.4031089748281  0.7072285649843 1.0
C      1  0.4938532118934  0.2814903564886  0.5513449998843 1.0
C      1  0.4944640027435  0.3270342178868  0.3590812952164 1.0
C      1  0.4126108847916  0.3986957627582  0.4777556903863 1.0
C      1  0.4072855167608  0.4522995911903  0.3992656990216 1.0
C      1  0.4157535624966  0.5464515262728  0.4061836262689 1.0
C      1  0.4107752822552  0.6046061653464  0.4761246111246 1.0
C      1  0.4081781239063  0.5852419105971  0.5697556052376 1.0
C      1  0.4074003596759  0.5032342004177  0.6101640210177 1.0
C      1  0.4088736797721  0.4178591665350  0.5668050363597 1.0
C      1  0.3986711119336  0.7581982258517  0.2353297299298 1.0
C      1  0.3975406594695  0.8709901468707  0.5375499520299 1.0
C      1  0.3962579189326  0.7036612193957  0.8137807600761 1.0
C      1  0.3966921105721  0.3836179466617  0.8556116798464 1.0
C      1  0.3982067327547  0.1540100780844  0.6297402644205 1.0
C      1  0.3993293049640  0.1843862312087  0.3107845650373 1.0
C      1  0.4001744844150  0.4548097579861  0.1356622494865 1.0
C      1  0.6320686671657  0.2020710724777  0.4816567090056 1.0
C      1  0.6341103621044  0.3277694552228  0.2511656693674 1.0
C      1  0.6343186123547  0.5846307400014  0.2112200774103 1.0
C      1  0.6338850468539  0.7794407538718  0.3860055434021 1.0
C      1  0.6329777958822  0.7637832414550  0.6472061698760 1.0
C      1  0.6323082103394  0.5500636710744  0.7982469281655 1.0
C      1  0.6317236870123  0.2993140968138  0.7239930997022 1.0
C      1  0.3963023893816  0.2433757700734  0.2406450090493 1.0
C      1  0.3976137327750  0.5461307879876  0.1365634389226 1.0
C      1  0.3961929924106  0.8114131750951  0.3092722014154 1.0
C      1  0.3952129060275  0.8484136741864  0.6262690230083 1.0
C      1  0.3942460918907  0.6209327794412  0.8523024064657 1.0
C      1  0.3934656914269  0.3027153489882  0.8135573141812 1.0
C      1  0.3943858336081  0.1353137911844  0.5404326144333 1.0
C      1  0.5820492623739  0.5531125375350  0.4059124894712 1.0
C      1  0.5667577924826  0.6060873155519  0.4807590932122 1.0
C      1  0.5646637002109  0.5844146817432  0.5695856574234 1.0
C      1  0.5647135506679  0.5019449561247  0.6106703131330 1.0
C      1  0.5639757692321  0.4191711187650  0.5707190520907 1.0
C      1  0.5732490503722  0.3960471255036  0.4823082662581 1.0
C      1  0.6179550984076  0.4499301803699  0.4231625634674 1.0
C      1  0.3417032184609  0.1286215941766  0.4667670962295 1.0
C      1  0.3436768320491  0.2985826616146  0.1914296293053 1.0
C      1  0.3433228607927  0.6184516482345  0.1475186940157 1.0
C      1  0.3431535667569  0.8488444061859  0.3730403198998 1.0
C      1  0.3418735149684  0.8192281764840  0.6937773611199 1.0
C      1  0.3411817388008  0.5492566477718  0.8714161876369 1.0
C      1  0.3407305035133  0.2428665912848  0.7694985811597 1.0
C      1  0.5718245457795  0.2757259730954  0.3165235896718 1.0
C      1  0.5731750203355  0.4989079387548  0.2085073224950 1.0
C      1  0.5729210626237  0.7290276095196  0.3183553909584 1.0
C      1  0.5715990862903  0.7860107590519  0.5658397379550 1.0
C      1  0.5708251486613  0.6280246612725  0.7652874539480 1.0
C      1  0.5701609965733  0.3738751188864  0.7646716126449 1.0
C      1  0.5709760168492  0.2170639017825  0.5651217830408 1.0
C      1  0.7175647488172  0.4114769920470  0.7952467525242 1.0
C      1  0.7176300671325  0.2151941455762  0.6138180812509 1.0
C      1  0.7180010387915  0.2345443266037  0.3472467448241 1.0
C      1  0.7205387404674  0.4528915705492  0.1932708204602 1.0
C      1  0.7193458636541  0.7085029991508  0.2729287341052 1.0
C      1  0.7187538494695  0.8073519626553  0.5213873912637 1.0
C      1  0.7180686017473  0.6754407701429  0.7538134253424 1.0
C      1  0.8376978139087  0.6657760361816  0.3680593072849 1.0
C      1  0.8369027313415  0.7060989910765  0.5473268454385 1.0
C      1  0.8362880023260  0.5919242876273  0.6909415875879 1.0
C      1  0.8358818837365  0.4086606620958  0.6906371492689 1.0
C      1  0.8361716270162  0.2948738952190  0.5467318259140 1.0
C      1  0.8371097553254  0.3355334115016  0.3673677246143 1.0
C      1  0.8392738549559  0.5006760612829  0.2865224180194 1.0
C      1  0.1873931752902  0.6309022122815  0.7417790251369 1.0
C      1  0.1887989716203  0.3937297144970  0.7525475968546 1.0
C      1  0.1879098411016  0.2372390598113  0.5739863397918 1.0
C      1  0.1920641016225  0.2803464814725  0.3406256559907 1.0
C      1  0.1878761685883  0.4888336258927  0.2271840153316 1.0
C      1  0.1885845387338  0.7069648040073  0.3204551979839 1.0
C      1  0.1891139529407  0.7701706146082  0.5492761470808 1.0
C      1  0.7988101794572  0.7486866295095  0.3974657029662 1.0
C      1  0.7979868206669  0.7350920621724  0.6303947941569 1.0
C      1  0.7974395153016  0.5451851870442  0.7654777940852 1.0
C      1  0.7970043247238  0.3213769828355  0.7003136646820 1.0
C      1  0.7973922413870  0.2328564369324  0.4843493046320 1.0
C      1  0.7990068103863  0.3453884891595  0.2795284642049 1.0
C      1  0.7997472615521  0.5754031948723  0.2404175831102 1.0
C      1  0.6325445592372  0.2251663276674  0.3855330461637 1.0
C      1  0.6350902811187  0.4158698505261  0.2081117098493 1.0
C      1  0.6340131588661  0.6741314384952  0.2532359463606 1.0
C      1  0.6332669389315  0.8011837522796  0.4824818362535 1.0
C      1  0.6326152805415  0.7023212808245  0.7248465901867 1.0
C      1  0.6321029970885  0.4510814875093  0.7981393583704 1.0
C      1  0.6321864427170  0.2378215109346  0.6465240217496 1.0
C      1  0.6659885057650  0.5073054905544  0.3792813306922 1.0
END
