TITL C-87758-3113-5 -7.486 3375.00 -1345.01946949 0 0 163 (C1) n - 1
REM
REM Run started: at 2020.12.31 10:20:37 in /rds/project/t2_vol4/rds-t2-cs072/BORA/CARBON/AIRSS/Generating-Clusters/Str-Search/Higher-Symm/C100-200
REM VASP from code version vasp.5.4.4.18Apr17-6-g9f103f2a35 (build Oct 11 2019 16:45:47) gamma-only
REM
REM
REM
REM
REM ./C.cell (533062f00bc710175b3da973d35f2034)
REM AIRSS Version 0.9.1 bugfix July 2018 build 013d7b7c2542+ Fri, 06 Jul 2018 19:26:36 +0100
REM compiler GCC version 4.8.5 20150623 (Red Hat 4.8.5-39)
REM options -cpp -mtune=generic -march=x86-64 -g -O0
REM seed 1473404116 1025662463 -1513390858 1002086429 -1408028985 1593077704 693734635 1808508512 -1225304915 1608374787 -860218800 -727780312
REM
REM C.POTCAR (d86ddea03c3ceb6dc662c8ad6801f873)
REM 
CELL 1.54180   15.00000   15.00000   15.00000   90.00000   90.00000   90.00000
LATT -1
SFAC C  
C      1  0.5820285420921  0.4050664233335  0.7419294541992 1.0
C      1  0.6262682592760  0.4842314692528  0.7384571176620 1.0
C      1  0.5768422884799  0.5615625232086  0.7195926506066 1.0
C      1  0.5135797898419  0.5856678434272  0.6553035324619 1.0
C      1  0.4589952726822  0.6111209762688  0.7275274036003 1.0
C      1  0.3764698911769  0.5809859054694  0.7578512786082 1.0
C      1  0.3605622201792  0.4922841794296  0.7565494467586 1.0
C      1  0.4104299229120  0.4134571109504  0.7502022548907 1.0
C      1  0.4927316973170  0.3781752564524  0.7428978913913 1.0
C      1  0.4424973157213  0.6414041415049  0.9155254755559 1.0
C      1  0.3707526839969  0.5768543690972  0.9100486977882 1.0
C      1  0.3559734409959  0.4820914792944  0.9082072806770 1.0
C      1  0.4080435539055  0.3993401158645  0.9022012937432 1.0
C      1  0.4995785277396  0.3658482222342  0.8969188982489 1.0
C      1  0.5920037803513  0.3965071364792  0.8909914798013 1.0
C      1  0.6422866783719  0.4791134222641  0.8893506875603 1.0
C      1  0.6207599535360  0.5663332388451  0.9141543114543 1.0
C      1  0.5405142691732  0.6283510175393  0.8948822521005 1.0
C      1  0.6466644065380  0.7161290694114  0.7043537723758 1.0
C      1  0.4156128312139  0.7720481562160  0.7095720270461 1.0
C      1  0.2496020021477  0.6619925086930  0.7004867025146 1.0
C      1  0.2101198724785  0.4573384916693  0.6948189491324 1.0
C      1  0.3069070568859  0.2858627548850  0.6893805038860 1.0
C      1  0.4922745450979  0.2108650289534  0.6886131992202 1.0
C      1  0.6755165223462  0.2653080982481  0.6864148035131 1.0
C      1  0.7909897782463  0.4288957561014  0.6882046937123 1.0
C      1  0.7176000743582  0.6393821575275  0.7080519252682 1.0
C      1  0.7057970179681  0.4948862130107  0.8052862253575 1.0
C      1  0.6818200549500  0.6321448221010  0.8732901126172 1.0
C      1  0.6124122984628  0.7020449515740  0.8712481907955 1.0
C      1  0.3956939386673  0.7057258622211  0.8579974103483 1.0
C      1  0.3272697403050  0.6336567662213  0.8335501781161 1.0
C      1  0.2968050714623  0.4546436684699  0.8284364511061 1.0
C      1  0.3508127023636  0.3660390656293  0.8236941548597 1.0
C      1  0.5125240153462  0.3036675335355  0.8155257430036 1.0
C      1  0.6116581969261  0.3354211900422  0.8119357015106 1.0
C      1  0.7296324434883  0.6115220523392  0.6187686236912 1.0
C      1  0.6144284766335  0.7252950126687  0.6198460367889 1.0
C      1  0.4292894196186  0.7440172456642  0.6254707026434 1.0
C      1  0.2795346352580  0.6428224939824  0.6174442438404 1.0
C      1  0.2384402281060  0.4649889316818  0.6099989251436 1.0
C      1  0.3240634782344  0.3030254193536  0.6031773801896 1.0
C      1  0.4886090255506  0.2375567110604  0.6031722828452 1.0
C      1  0.6606104130734  0.2885727999943  0.6015332315982 1.0
C      1  0.7591261266651  0.4316742734348  0.6043324196716 1.0
C      1  0.2327412587083  0.2746112915467  0.4338402815814 1.0
C      1  0.4465919608729  0.1715062641069  0.3999898100818 1.0
C      1  0.6703422906125  0.1845452521489  0.4436104233410 1.0
C      1  0.8055419250022  0.3760605075761  0.4006605012498 1.0
C      1  0.8443401112590  0.6022256145728  0.4528082251651 1.0
C      1  0.6746792728129  0.7679168102670  0.4127411431518 1.0
C      1  0.4625457246801  0.8459697306862  0.4673122481644 1.0
C      1  0.2599625430843  0.7253900052814  0.4253478514941 1.0
C      1  0.1898664994360  0.5134799406431  0.4139794910997 1.0
C      1  0.7399258828559  0.5233643424934  0.5639127911958 1.0
C      1  0.6720722441591  0.6705863468607  0.5572633093999 1.0
C      1  0.5197174508280  0.7283977420180  0.5789235625077 1.0
C      1  0.3567145202259  0.6934657958218  0.5688248906502 1.0
C      1  0.2622446089514  0.5554657547899  0.5634397979145 1.0
C      1  0.2845969772887  0.3873806011252  0.5572464187184 1.0
C      1  0.4081071902549  0.2725066825715  0.5494296338480 1.0
C      1  0.5713561504887  0.2733749896986  0.5540509410085 1.0
C      1  0.7094414093232  0.3619267591161  0.5487984688480 1.0
C      1  0.5245912016776  0.7837650264624  0.4954789668343 1.0
C      1  0.3224881184875  0.7540008948480  0.4925873694637 1.0
C      1  0.2055235791611  0.5770411320294  0.4813555073866 1.0
C      1  0.2278599267844  0.3574196236757  0.4782906355194 1.0
C      1  0.3868753545560  0.2084828662227  0.4679092206773 1.0
C      1  0.5894928381915  0.2186065340830  0.4736268495538 1.0
C      1  0.7649503111937  0.3252189371379  0.4685031045390 1.0
C      1  0.7991143697661  0.5284214383942  0.4844326382747 1.0
C      1  0.7203110240546  0.7200715012372  0.4802299911740 1.0
C      1  0.2880434428638  0.5903192749309  0.3057534900657 1.0
C      1  0.2694323306533  0.4328394380864  0.2656154603297 1.0
C      1  0.3606515094407  0.3044273307716  0.2584928541561 1.0
C      1  0.5224829443820  0.2657674814202  0.3061779590607 1.0
C      1  0.6443604408154  0.3557267940989  0.2792440898908 1.0
C      1  0.7286062317363  0.4816667262644  0.3199220154609 1.0
C      1  0.6691709874207  0.6226400597823  0.2956959523034 1.0
C      1  0.5531266959097  0.7198232141899  0.3264448750757 1.0
C      1  0.4066512117598  0.6830247558754  0.2894142152931 1.0
C      1  0.4453456168770  0.3720267532436  0.5277732027630 1.0
C      1  0.5420683741539  0.3689064042862  0.5293262908954 1.0
C      1  0.6210546375937  0.4204298071587  0.5256229086070 1.0
C      1  0.6430306446981  0.5127556795066  0.5318959463421 1.0
C      1  0.6030554910936  0.5962530549538  0.5279738658758 1.0
C      1  0.5102318049532  0.6208847312938  0.5612832027988 1.0
C      1  0.4121976206105  0.6094637994044  0.5350863098906 1.0
C      1  0.3611900632097  0.5319739653299  0.5348298713136 1.0
C      1  0.3746462489551  0.4353637988033  0.5311955161280 1.0
C      1  0.2344004965016  0.5246905354368  0.2421171131459 1.0
C      1  0.2831386168111  0.2496521026993  0.2911466539169 1.0
C      1  0.4401423086123  0.2371538962841  0.2475609040175 1.0
C      1  0.6107092341603  0.2688602531123  0.2481969043016 1.0
C      1  0.7319865319484  0.3965178407582  0.2592622353129 1.0
C      1  0.7442268648456  0.5675606605305  0.2620446437010 1.0
C      1  0.6399513323732  0.7113802265020  0.2674650040381 1.0
C      1  0.4741913123169  0.7521157194308  0.2668992594108 1.0
C      1  0.3120938508131  0.6819225945366  0.2662695947965 1.0
C      1  0.4850563330447  0.6476349407507  0.1219099473365 1.0
C      1  0.4017980281567  0.6093606690496  0.1238355716498 1.0
C      1  0.3612795130139  0.5189429428796  0.1261077485938 1.0
C      1  0.3853190688133  0.4241437798270  0.1381539289507 1.0
C      1  0.4634127865822  0.3688110826252  0.1239658062813 1.0
C      1  0.5620182959400  0.3794328364487  0.1165940945650 1.0
C      1  0.6260785220526  0.4447746134837  0.1181132691812 1.0
C      1  0.6333315867873  0.5451311826565  0.1223516047517 1.0
C      1  0.5817854553932  0.6210914128708  0.1233152825784 1.0
C      1  0.8627378798911  0.5585243725366  0.3666285026278 1.0
C      1  0.7983035430907  0.6990505980837  0.3453331409806 1.0
C      1  0.5058604173230  0.8587924427999  0.3813296154387 1.0
C      1  0.3555122483417  0.8242515948781  0.3576950755154 1.0
C      1  0.1429131277613  0.6464726932730  0.3515544419594 1.0
C      1  0.2071466589685  0.3833231053800  0.3260458996702 1.0
C      1  0.3133323553022  0.1747618330742  0.3354912072232 1.0
C      1  0.6296887086714  0.1556909214849  0.3580115463105 1.0
C      1  0.7560260233186  0.2429101781885  0.3329086498169 1.0
C      1  0.2117535039239  0.4616172661812  0.7804684375455 1.0
C      1  0.3155442205052  0.2912746317427  0.7740320128789 1.0
C      1  0.4871971741343  0.2197743235447  0.7736025772914 1.0
C      1  0.6784948322480  0.2782479420728  0.7707897687691 1.0
C      1  0.7825396293697  0.4425164395287  0.7711260088603 1.0
C      1  0.7234543092879  0.5961801688265  0.7971937645333 1.0
C      1  0.5895246259566  0.7146724858102  0.7822000379919 1.0
C      1  0.4136786684240  0.7682863834435  0.7952112860581 1.0
C      1  0.2429755325110  0.6583192445180  0.7860092861109 1.0
C      1  0.4038332068731  0.1614321386718  0.3149603446969 1.0
C      1  0.6747393308481  0.2027265380587  0.2925065699284 1.0
C      1  0.7874073678325  0.3308761005799  0.3145646874041 1.0
C      1  0.8247120295180  0.6137738091064  0.3028479585541 1.0
C      1  0.7149991388998  0.7455977217823  0.3270029077017 1.0
C      1  0.4430349221004  0.8353510376264  0.3160073041472 1.0
C      1  0.2883640546670  0.7579291870214  0.3360817058400 1.0
C      1  0.1905567741516  0.5654162352928  0.3247163912314 1.0
C      1  0.2148277967141  0.2940465281478  0.3378181835487 1.0
C      1  0.8034055852282  0.6892550432959  0.4410706386162 1.0
C      1  0.5771180241926  0.7842275308530  0.4078795829935 1.0
C      1  0.3685112222699  0.8263441626877  0.4551993817765 1.0
C      1  0.1947767125007  0.6592027163851  0.4341364705916 1.0
C      1  0.1962208416952  0.4222627513533  0.4134644213048 1.0
C      1  0.2999392125492  0.2042404772052  0.4308566531273 1.0
C      1  0.5396599068949  0.1979352021695  0.3885766455966 1.0
C      1  0.7482084541535  0.2374885785660  0.4298133286472 1.0
C      1  0.8039324385986  0.4752399559370  0.3968468432642 1.0
C      1  0.5100182572030  0.7279296350212  0.1744690207215 1.0
C      1  0.3162039972162  0.6487032952322  0.1649189222493 1.0
C      1  0.2799204671495  0.5599172074857  0.1625220675198 1.0
C      1  0.3271578766655  0.3804253191870  0.2001691915899 1.0
C      1  0.4779362018905  0.2743892623677  0.1584158082488 1.0
C      1  0.5710029351969  0.2874669649581  0.1569041717859 1.0
C      1  0.7154541622963  0.4388369825051  0.1662709819710 1.0
C      1  0.7184711444313  0.5318725062409  0.1714325534936 1.0
C      1  0.6008402845311  0.7057576082334  0.1744466146905 1.0
C      1  0.5848081671083  0.4063967284265  0.3290226569785 1.0
C      1  0.6318483753706  0.4860924424084  0.3475986357432 1.0
C      1  0.6063250642174  0.5748776721398  0.3463255503797 1.0
C      1  0.5287672252669  0.6255780946474  0.3520855157303 1.0
C      1  0.4378210214935  0.6090082348113  0.3370220466053 1.0
C      1  0.3672801044726  0.5434178582309  0.3365855328313 1.0
C      1  0.3559716939556  0.4519979458029  0.3238174220085 1.0
C      1  0.4086229657139  0.3752255870481  0.3237384043842 1.0
C      1  0.5002996338961  0.3595065306767  0.3315236705719 1.0
C      1  0.5345214030583  0.6301041741664  0.7882370904173 1.0
END
