TITL C-8780-8989-12 -4.746 3375.00 -846.86227912 0 0 102 (C1) n - 1
REM
REM Run started: at 2020.12.20 23:15:37 in /gpfs/home/chem/mssmkc/CARBON/AIRSS/Generating-Clusters/Str-Search/Higher-Symm/C100-200
REM VASP from code version vasp.5.4.4.18Apr17-6-g9f103f2a35 (build Oct 11 2019 16:45:47) gamma-only
REM
REM
REM
REM
REM ./C.cell (533062f00bc710175b3da973d35f2034)
REM AIRSS Version 0.9.1 bugfix July 2018 build 013d7b7c2542+ Fri, 06 Jul 2018 19:26:36 +0100
REM compiler GCC version 6.3.0
REM options -cpp -iprefix /gpfs/warwick/csc/orac/software/Core/GCCcore/6.3.0/bin/../lib/gcc/x86_64-pc-linux-gnu/6.3.0/ -mtune=generic -march=x86-64 -g -O0
REM seed 496058534 -1733430863 1600942945 1496090051 -1248297183 1498392627 1042104467 1326647056 -935946801 -1099423611 -1379444626 1088942619
REM
REM C.POTCAR (d86ddea03c3ceb6dc662c8ad6801f873)
REM 
CELL 1.54180   15.00000   15.00000   15.00000   90.00000   90.00000   90.00000
LATT -1
SFAC C  
C      1  0.6153024982560  0.3144014263876  0.2952198123901 1.0
C      1  0.3659192679086  0.3381483045103  0.3075548389834 1.0
C      1  0.3008626383657  0.5792481841659  0.3082704626778 1.0
C      1  0.5148606889111  0.7087235108213  0.3204229945160 1.0
C      1  0.7130473948862  0.5520536969737  0.3131483550397 1.0
C      1  0.4467703147484  0.2365122069611  0.5985605555565 1.0
C      1  0.2178050716334  0.5118170937743  0.6049811166988 1.0
C      1  0.4122028123156  0.7754639611018  0.6059534803620 1.0
C      1  0.7275763460348  0.6392954417647  0.6242464684830 1.0
C      1  0.7175989971019  0.3213949992005  0.6040355182185 1.0
C      1  0.6551173428742  0.4742393837497  0.2879560325209 1.0
C      1  0.5277288702554  0.3357788152997  0.2597314774847 1.0
C      1  0.3527980682770  0.4243126655898  0.2675532341814 1.0
C      1  0.3800586262663  0.6197184415051  0.2679431087413 1.0
C      1  0.5739272446483  0.6359226261900  0.2952899079296 1.0
C      1  0.6689835550786  0.6349164952725  0.3243109613704 1.0
C      1  0.6828583255911  0.3811465310626  0.3039463309429 1.0
C      1  0.4508866966474  0.2934202772865  0.3006905905073 1.0
C      1  0.2937515607154  0.4832916294816  0.3132357269852 1.0
C      1  0.4176971871057  0.6950293829659  0.3147556056773 1.0
C      1  0.2775538726224  0.4404353695730  0.5975541840885 1.0
C      1  0.3618370280352  0.7020037084654  0.5825448911280 1.0
C      1  0.6496120055842  0.6832393964122  0.5857354561824 1.0
C      1  0.7321966316149  0.4165256328298  0.5703829993409 1.0
C      1  0.5381266348762  0.2457951107840  0.5636762458784 1.0
C      1  0.3867755373627  0.5509223336403  0.6616988618706 1.0
C      1  0.4773372553616  0.5986807250197  0.6644002636378 1.0
C      1  0.5715799682903  0.5565584093749  0.6512312524686 1.0
C      1  0.5855381300825  0.4599903868725  0.6353414867349 1.0
C      1  0.5231042363798  0.3852146749893  0.6412406945926 1.0
C      1  0.2819673128595  0.6970570917486  0.5271923377691 1.0
C      1  0.6195530580194  0.7614130635072  0.5380255445730 1.0
C      1  0.8018768866120  0.4362937285213  0.5055694641393 1.0
C      1  0.5625558088613  0.1821661096924  0.4902965099294 1.0
C      1  0.2721642546624  0.3594520030671  0.5412830382246 1.0
C      1  0.3242736437460  0.3092101951659  0.3908138312409 1.0
C      1  0.2561811275175  0.6192471914640  0.3845452841066 1.0
C      1  0.5391680500556  0.7594768883659  0.3952095511155 1.0
C      1  0.7666720491966  0.5352011395271  0.3903733176899 1.0
C      1  0.6274967678438  0.2552150869747  0.3692694266286 1.0
C      1  0.5800560364287  0.4882904744954  0.2236875080438 1.0
C      1  0.5121963032231  0.4197069871256  0.2155926831391 1.0
C      1  0.4254525087140  0.4629860470307  0.2161379114375 1.0
C      1  0.4413661243803  0.5587893362044  0.2242194096099 1.0
C      1  0.5384708690619  0.5720044234056  0.2277201899313 1.0
C      1  0.7926517621298  0.4991809410544  0.5698947564725 1.0
C      1  0.6293552482905  0.2031586902546  0.5462186822362 1.0
C      1  0.3229571635387  0.2916067563370  0.5772476157768 1.0
C      1  0.2197066111450  0.6414690193658  0.5693651936021 1.0
C      1  0.5426052613380  0.7953590803641  0.5814777966782 1.0
C      1  0.3770586122842  0.2310576569930  0.5254815904313 1.0
C      1  0.1867385693418  0.5619577183672  0.5233078328470 1.0
C      1  0.4608548669045  0.8115573147335  0.5289100388639 1.0
C      1  0.7714274491417  0.5910746629459  0.5508326163267 1.0
C      1  0.7032246897619  0.2615016694382  0.5255971911525 1.0
C      1  0.2115251612462  0.5473063391046  0.4358381740658 1.0
C      1  0.4545515948922  0.7812313986032  0.4409635300856 1.0
C      1  0.7540909770309  0.6099288452862  0.4558115874026 1.0
C      1  0.7030915469841  0.2868346353871  0.4290945220009 1.0
C      1  0.3842455697972  0.2419585954075  0.4327595751166 1.0
C      1  0.4121153703836  0.6154964990417  0.5901440026942 1.0
C      1  0.5943235074896  0.6114084205975  0.5718185550304 1.0
C      1  0.6312656279389  0.4276739269392  0.5537063134114 1.0
C      1  0.5462068858530  0.3488421300107  0.5513239602076 1.0
C      1  0.3772681412985  0.4564739063138  0.6276436214988 1.0
C      1  0.7835478205481  0.4435225060935  0.4147130243115 1.0
C      1  0.5509325630204  0.2089095856337  0.4011653820161 1.0
C      1  0.2679137638462  0.3656004041823  0.4424666082698 1.0
C      1  0.2971185487864  0.6953642555677  0.4307610344578 1.0
C      1  0.6244051584506  0.7428396143151  0.4431618211750 1.0
C      1  0.3942677942788  0.2971070411568  0.6494529127015 1.0
C      1  0.2351969927288  0.5927301989265  0.6546989014302 1.0
C      1  0.4903890344918  0.7639681898763  0.6628987551407 1.0
C      1  0.7080715960159  0.6092092845679  0.7092234537932 1.0
C      1  0.6762672763021  0.3271076658301  0.6847617095052 1.0
C      1  0.5025499699186  0.4378542742251  0.3886490310325 1.0
C      1  0.3411271743519  0.4863819949962  0.4659027333466 1.0
C      1  0.3974120012321  0.5506074781585  0.4315596412636 1.0
C      1  0.5473621075756  0.5703064102034  0.3821266213225 1.0
C      1  0.5930884242076  0.4802190736604  0.3808273707414 1.0
C      1  0.5474169145147  0.5746058531034  0.4912808031879 1.0
C      1  0.5852152016410  0.4775803577015  0.4830414034003 1.0
C      1  0.4966927181795  0.4143961801822  0.4868824456120 1.0
C      1  0.4165135690394  0.4640982130967  0.5303205936377 1.0
C      1  0.4481900872134  0.5661957114739  0.5130566932911 1.0
C      1  0.7388827308246  0.3653974754928  0.3788400575443 1.0
C      1  0.4625670375303  0.2332762202984  0.3737089877212 1.0
C      1  0.2601909833670  0.4605153577002  0.4067308122574 1.0
C      1  0.3791911188675  0.7338330381060  0.3938638421566 1.0
C      1  0.6900078049687  0.6758731650720  0.4100722219496 1.0
C      1  0.3510923785151  0.6404209974045  0.7850809324383 1.0
C      1  0.4429147476981  0.6387195307705  0.8000170896587 1.0
C      1  0.5725245748695  0.5305432998216  0.8040474189359 1.0
C      1  0.5583990706794  0.4323144953283  0.7844195915124 1.0
C      1  0.4663829592805  0.4329030728262  0.7795367366790 1.0
C      1  0.4318143242819  0.3874929336649  0.6839282410058 1.0
C      1  0.3131279303636  0.5983513726854  0.7149882328130 1.0
C      1  0.4878203941637  0.6820260094735  0.7206986623908 1.0
C      1  0.6278893168632  0.5785685366703  0.7364838948018 1.0
C      1  0.6041889022789  0.3861819748087  0.7080057900485 1.0
C      1  0.4617378460607  0.5226006990586  0.3708669962382 1.0
C      1  0.4862729372418  0.5564069330000  0.8277335735432 1.0
END
