TITL C-8780-8989-19 -6.836 3375.00 -1192.55178115 0 0 146 (C1) n - 1
REM
REM Run started: at 2020.12.21 04:45:47 in /gpfs/home/chem/mssmkc/CARBON/AIRSS/Generating-Clusters/Str-Search/Higher-Symm/C100-200
REM VASP from code version vasp.5.4.4.18Apr17-6-g9f103f2a35 (build Oct 11 2019 16:45:47) gamma-only
REM
REM
REM
REM
REM ./C.cell (533062f00bc710175b3da973d35f2034)
REM AIRSS Version 0.9.1 bugfix July 2018 build 013d7b7c2542+ Fri, 06 Jul 2018 19:26:36 +0100
REM compiler GCC version 6.3.0
REM options -cpp -iprefix /gpfs/warwick/csc/orac/software/Core/GCCcore/6.3.0/bin/../lib/gcc/x86_64-pc-linux-gnu/6.3.0/ -mtune=generic -march=x86-64 -g -O0
REM seed 199942096 -1076490860 -1052156759 -1616009866 -1326865776 -234472380 458422373 69009449 1390334210 -60894753 990030585 457577329
REM
REM C.POTCAR (d86ddea03c3ceb6dc662c8ad6801f873)
REM 
CELL 1.54180   15.00000   15.00000   15.00000   90.00000   90.00000   90.00000
LATT -1
SFAC C  
C      1  0.2016496663094  0.5725979498427  0.7029511589718 1.0
C      1  0.5722186382327  0.7932218751948  0.3020928774797 1.0
C      1  0.7923089464765  0.4300416691192  0.6964989704933 1.0
C      1  0.4272580549356  0.2120433295142  0.2955304178166 1.0
C      1  0.6774950169268  0.3983841001894  0.2405994733802 1.0
C      1  0.4200376279994  0.3501635491561  0.7290684618956 1.0
C      1  0.3432654727523  0.5834141153401  0.2563407141860 1.0
C      1  0.6039683636212  0.6786972085780  0.7755701357015 1.0
C      1  0.4634890977010  0.8405912324690  0.5454806045170 1.0
C      1  0.8626812661898  0.5211038023910  0.4675590276816 1.0
C      1  0.5415048281412  0.1552775741022  0.5327916287073 1.0
C      1  0.1396044356559  0.4618104773959  0.4563652701312 1.0
C      1  0.7182636797962  0.3950709270720  0.4042222287980 1.0
C      1  0.3551599188355  0.2950902793524  0.5793787930515 1.0
C      1  0.2791498617671  0.6476431899291  0.4095791464762 1.0
C      1  0.6488845745872  0.7217460028855  0.5996515277707 1.0
C      1  0.1893726693222  0.5228846108552  0.3962231847872 1.0
C      1  0.5261183547001  0.7907035813591  0.6011867283926 1.0
C      1  0.8465266796533  0.4664415342333  0.3904477315762 1.0
C      1  0.4804029237082  0.2037603585843  0.5935897523472 1.0
C      1  0.6459965951593  0.6037085968928  0.8165563588085 1.0
C      1  0.6052777145123  0.3575006115399  0.1948762527085 1.0
C      1  0.3626233363067  0.4064458220797  0.7829943919946 1.0
C      1  0.4084790772521  0.6402300433098  0.2070413019540 1.0
C      1  0.8132066034081  0.5958717038759  0.4296280048588 1.0
C      1  0.6205435746139  0.1806788583459  0.5756717600076 1.0
C      1  0.1754602112875  0.3837432681554  0.4178255858017 1.0
C      1  0.3861611690375  0.8044099844297  0.5841275339065 1.0
C      1  0.7941630026261  0.6625921148010  0.4956684297828 1.0
C      1  0.6857132654102  0.1914347879391  0.5065228856747 1.0
C      1  0.1979239066796  0.3252751150527  0.4886774292447 1.0
C      1  0.3249808218045  0.7913434577460  0.5126258949158 1.0
C      1  0.7917969642144  0.5465737592007  0.3460723762046 1.0
C      1  0.5641782062258  0.2420196390885  0.6419814668914 1.0
C      1  0.2322523083104  0.4365571823236  0.3464957610481 1.0
C      1  0.4444429250258  0.7509717920793  0.6570234125469 1.0
C      1  0.6898434335020  0.4906966696829  0.2133461522587 1.0
C      1  0.5020531664906  0.3314354387286  0.7740858110143 1.0
C      1  0.3307904347911  0.5002510149222  0.2140381486932 1.0
C      1  0.5102404444731  0.6851325522047  0.8074832804827 1.0
C      1  0.5603424165112  0.4246086541864  0.1468417296171 1.0
C      1  0.4204536218962  0.4491594407937  0.8485964993302 1.0
C      1  0.4583386127625  0.5820576207109  0.1485881572749 1.0
C      1  0.5781152970932  0.5525956052521  0.8596393395766 1.0
C      1  0.4267170224652  0.6475834155193  0.6655985685734 1.0
C      1  0.5943747605619  0.5808328439267  0.3259574891769 1.0
C      1  0.6016105642695  0.3408112026143  0.6490110216581 1.0
C      1  0.3242610853506  0.3904620720976  0.3392430659209 1.0
C      1  0.4206408918022  0.6780335444372  0.3452901675888 1.0
C      1  0.6708323991061  0.5912523063299  0.6655924245068 1.0
C      1  0.5763135243429  0.3404560824361  0.3483199597149 1.0
C      1  0.3231213766056  0.4360000386082  0.6434923758454 1.0
C      1  0.4651247363613  0.6125344068668  0.4706200206078 1.0
C      1  0.5971503816192  0.5485254087070  0.5290937405544 1.0
C      1  0.5246614951603  0.3989675598249  0.4932639500788 1.0
C      1  0.3823192632853  0.4860309320540  0.5136437335263 1.0
C      1  0.6724022320782  0.1902378495041  0.4121025381073 1.0
C      1  0.1833033967108  0.3368812636882  0.5795708770437 1.0
C      1  0.3370343077107  0.8142820040373  0.4231988886228 1.0
C      1  0.8134957752384  0.6575311528833  0.5855923487178 1.0
C      1  0.3945721720571  0.3703711026642  0.6314418639787 1.0
C      1  0.3523147694230  0.6084872465213  0.3546320008906 1.0
C      1  0.6357244504222  0.6731826615508  0.6832621714746 1.0
C      1  0.6612894404103  0.3755742603819  0.3333941674498 1.0
C      1  0.3096196299023  0.4940639158425  0.5685672258067 1.0
C      1  0.4800697185198  0.6833810687268  0.4178618166297 1.0
C      1  0.6746067365189  0.5511085086731  0.5796981178186 1.0
C      1  0.5192473152666  0.3315178987522  0.4268372660664 1.0
C      1  0.6867346481120  0.4382169726072  0.4791129163583 1.0
C      1  0.4287060354403  0.2573212606210  0.5303573404511 1.0
C      1  0.2391105488715  0.5761700845403  0.4601341602924 1.0
C      1  0.5634656607369  0.7119341097027  0.5442790778617 1.0
C      1  0.8346565834758  0.4976121431961  0.5617345032048 1.0
C      1  0.5249470253646  0.1713673671087  0.4415696932204 1.0
C      1  0.1493950040939  0.4819171097288  0.5479111394314 1.0
C      1  0.4837821695816  0.8346425657571  0.4550390298725 1.0
C      1  0.6468994112398  0.4560179347608  0.7571529480555 1.0
C      1  0.4518447957160  0.3558304495261  0.2392357376041 1.0
C      1  0.3437558882593  0.5882076484597  0.8093193103077 1.0
C      1  0.6026629379960  0.6570491003294  0.1934111777595 1.0
C      1  0.6304200405866  0.8181337761722  0.6027429406668 1.0
C      1  0.8144503260211  0.3791639089569  0.4053357075581 1.0
C      1  0.3771578710229  0.1957673179318  0.5911146896457 1.0
C      1  0.1790231329158  0.6299342571049  0.4008553344394 1.0
C      1  0.6826901644146  0.8325896927512  0.4408345343804 1.0
C      1  0.8302807490794  0.3270533426225  0.5634520031957 1.0
C      1  0.3174488296000  0.1672870521695  0.4338963728515 1.0
C      1  0.1590107770090  0.6891325033114  0.5647425819973 1.0
C      1  0.3619487268941  0.6571099076033  0.7431321919088 1.0
C      1  0.6572936498538  0.6331018821051  0.2757908250753 1.0
C      1  0.6735630227416  0.3096301327896  0.7089281674169 1.0
C      1  0.2994533665452  0.3252942071528  0.2696537570510 1.0
C      1  0.5771835095316  0.4373066332934  0.6752558505025 1.0
C      1  0.4181868483060  0.4132249609672  0.3237370656135 1.0
C      1  0.4853542183663  0.5831805263520  0.6350576169012 1.0
C      1  0.5383708550180  0.5206481580233  0.3332349933423 1.0
C      1  0.5561339717210  0.5864668172939  0.1472851771357 1.0
C      1  0.5832394270526  0.4598393077915  0.8376456184909 1.0
C      1  0.4658293375994  0.4205268819089  0.1618928196917 1.0
C      1  0.4155976223288  0.5449960965020  0.8554396771903 1.0
C      1  0.5273123806213  0.2145578390949  0.2909811126749 1.0
C      1  0.1968972802825  0.4764402615891  0.7034316994585 1.0
C      1  0.4767718206100  0.8016071056471  0.2963910995170 1.0
C      1  0.7924478185375  0.5272054323613  0.7096543121869 1.0
C      1  0.4573509507450  0.2473452431268  0.4401275512216 1.0
C      1  0.2265893309136  0.5499109349695  0.5512668728013 1.0
C      1  0.5463352877586  0.7512335794317  0.4500562506451 1.0
C      1  0.7347225567435  0.4876849930277  0.5433403051104 1.0
C      1  0.2983204891012  0.1797097448627  0.5213109877158 1.0
C      1  0.1707064920199  0.7078336895794  0.4765375460590 1.0
C      1  0.7003280878956  0.8206280891118  0.5304532328175 1.0
C      1  0.8161297875929  0.3055928889491  0.4717764947034 1.0
C      1  0.8352406365586  0.4049586478768  0.6096845926093 1.0
C      1  0.3852360501840  0.1953206094290  0.3828443895935 1.0
C      1  0.1886202476379  0.6205578225267  0.6148863350493 1.0
C      1  0.6150233937739  0.7993067683945  0.3924537533278 1.0
C      1  0.7415878195303  0.7248710742419  0.5546620526834 1.0
C      1  0.7489412458431  0.2372165414179  0.4562706864924 1.0
C      1  0.2608490102151  0.2747287715070  0.5435477005403 1.0
C      1  0.2674321589413  0.7395919185075  0.4525979209332 1.0
C      1  0.6969609061687  0.5465983970210  0.7496914255213 1.0
C      1  0.5430779089474  0.3104714278030  0.2582000117677 1.0
C      1  0.2873275037345  0.4374001214421  0.7273967040268 1.0
C      1  0.4316917688219  0.7166936009670  0.2631187976885 1.0
C      1  0.6175723394156  0.7253367380672  0.2490416688640 1.0
C      1  0.7197508927606  0.3883434995606  0.7376684106806 1.0
C      1  0.3844024883479  0.2814943026295  0.2473372896188 1.0
C      1  0.2730967551974  0.6103484385543  0.7579377188279 1.0
C      1  0.4109724126892  0.4950700037004  0.1546797779236 1.0
C      1  0.4949203087789  0.5998158397852  0.8586379167383 1.0
C      1  0.6097913979623  0.5070779464115  0.1520317565841 1.0
C      1  0.5079136451175  0.4044452634568  0.8400297825126 1.0
C      1  0.4557701270681  0.4301823810076  0.5641285367082 1.0
C      1  0.4098205369553  0.5408705825443  0.4310987256124 1.0
C      1  0.5259681640460  0.6132680709276  0.5475194379470 1.0
C      1  0.5938691202128  0.4649361318900  0.4863106629954 1.0
C      1  0.2754412623280  0.4226051247406  0.2510633968358 1.0
C      1  0.4375158960446  0.7225447763512  0.7554532991113 1.0
C      1  0.7306688575500  0.5590638391964  0.2733282778159 1.0
C      1  0.5792514604608  0.2815373281363  0.7336209081942 1.0
C      1  0.8286109261799  0.5722482196336  0.6329495683736 1.0
C      1  0.5830636299601  0.1798256427177  0.3671987632168 1.0
C      1  0.1607304196297  0.4235033583728  0.6216754746629 1.0
C      1  0.4248970515125  0.8335914693991  0.3808048858915 1.0
C      1  0.4583199830479  0.4856575152377  0.3606527168491 1.0
C      1  0.5063217041668  0.4845520681006  0.6400426302993 1.0
END
