TITL C-89956-1265-11 -2.415 3375.00 -402.26802753 0 0 50 (C1) n - 1
REM
REM Run started: at 2020.12.04 04:18:44 in /rds/project/t2_vol4/rds-t2-cs072/BORA/CARBON/AIRSS/Generating-Clusters/Str-Search/Higher-Symm/C10-100
REM VASP from code version vasp.5.4.4.18Apr17-6-g9f103f2a35 (build Oct 11 2019 16:45:47) gamma-only
REM
REM
REM
REM
REM ./C.cell (f39ce9773e2efe3fa5bbdf770a4156b8)
REM AIRSS Version 0.9.1 bugfix July 2018 build 013d7b7c2542+ Fri, 06 Jul 2018 19:26:36 +0100
REM compiler GCC version 4.8.5 20150623 (Red Hat 4.8.5-39)
REM options -cpp -mtune=generic -march=x86-64 -g -O0
REM seed 209367214 -1933971472 259109961 -1000040004 -493297661 -500720752 878230288 382141284 1046284361 -351332525 -410842593 1603063200
REM
REM C.POTCAR (d86ddea03c3ceb6dc662c8ad6801f873)
REM 
CELL 1.54180   15.00000   15.00000   15.00000   90.00000   90.00000   90.00000
LATT -1
SFAC C  
C      1  0.6790433646079  0.5573355277425  0.6435795090056 1.0
C      1  0.6531708542150  0.3889713062020  0.6441084807220 1.0
C      1  0.5015437235700  0.3077537616604  0.6524260563183 1.0
C      1  0.3494108810981  0.3717483268293  0.6531043710942 1.0
C      1  0.3052647085178  0.5309247989096  0.6520934615632 1.0
C      1  0.3972337359668  0.6672620714494  0.6536274923441 1.0
C      1  0.5618805913026  0.6827599433426  0.6536312737360 1.0
C      1  0.4904146446607  0.6115604497913  0.2619610649595 1.0
C      1  0.5788987863125  0.5742526382860  0.2616573888871 1.0
C      1  0.6071324367106  0.4820564663565  0.2605579832468 1.0
C      1  0.5504381533360  0.4040026025763  0.2614945923617 1.0
C      1  0.4547442900707  0.3965367468973  0.2615009224415 1.0
C      1  0.3908097968160  0.4691355694192  0.2622646489423 1.0
C      1  0.4065539779232  0.5634332113995  0.2624741308257 1.0
C      1  0.5882826200763  0.3400893448002  0.4406277424795 1.0
C      1  0.4289737638452  0.3304202106636  0.4422804146801 1.0
C      1  0.3233264737411  0.4485689927119  0.4430705334299 1.0
C      1  0.3489193506693  0.6043900101699  0.4432847031990 1.0
C      1  0.4871055428549  0.6821955301906  0.4426651197190 1.0
C      1  0.6351361155930  0.6222329094005  0.4410917643476 1.0
C      1  0.6805247498172  0.4697118403945  0.4393115902739 1.0
C      1  0.5820822638515  0.7043088434316  0.5768493179280 1.0
C      1  0.7216248862667  0.5650336210920  0.5723797225702 1.0
C      1  0.6876561372140  0.3667146301449  0.5722591416471 1.0
C      1  0.5126209357186  0.2784763934444  0.5763416923021 1.0
C      1  0.3296171536735  0.3494052661411  0.5766769028877 1.0
C      1  0.2726226023206  0.5361758560977  0.5766878746833 1.0
C      1  0.3874446698820  0.6953286735517  0.5771317465488 1.0
C      1  0.6639539001871  0.3845276447822  0.4818637177846 1.0
C      1  0.5116397566220  0.3013220300910  0.4846966570059 1.0
C      1  0.3503138272266  0.3657022500318  0.4854361756766 1.0
C      1  0.3007494370431  0.5321789529789  0.4861018786480 1.0
C      1  0.4014216360290  0.6737443926748  0.4858938346339 1.0
C      1  0.5746826460877  0.6833305677217  0.4851394853749 1.0
C      1  0.6924396305811  0.5557652470403  0.4822130501693 1.0
C      1  0.4529708491944  0.3903881717771  0.3662146425457 1.0
C      1  0.3849588124138  0.4666651613052  0.3667430433774 1.0
C      1  0.4017597146070  0.5674561054797  0.3669456452114 1.0
C      1  0.4908128100905  0.6178179221064  0.3665934016960 1.0
C      1  0.5857950812155  0.5789834767094  0.3656121895084 1.0
C      1  0.6145791733706  0.4807115280321  0.3648755869475 1.0
C      1  0.5553827134521  0.3970607904855  0.3653618623997 1.0
C      1  0.5835025808831  0.4360123961912  0.6913568350008 1.0
C      1  0.4969724951934  0.3867208708443  0.7048586247866 1.0
C      1  0.4088502435008  0.4249360343033  0.7063303538682 1.0
C      1  0.3812359280693  0.5182736436433  0.7079950104333 1.0
C      1  0.4367402376405  0.5979468999628  0.7066950186576 1.0
C      1  0.5328985768055  0.6080941790012  0.7052850835567 1.0
C      1  0.6023019790133  0.5363374795005  0.6971214148098 1.0
C      1  0.5613288601420  0.4961591122407  0.6104741447636 1.0
END
