TITL C-89956-1265-23 -2.103 3375.00 -344.27716864 0 0 43 (C1) n - 1
REM
REM Run started: at 2020.12.04 07:54:33 in /rds/project/t2_vol4/rds-t2-cs072/BORA/CARBON/AIRSS/Generating-Clusters/Str-Search/Higher-Symm/C10-100
REM VASP from code version vasp.5.4.4.18Apr17-6-g9f103f2a35 (build Oct 11 2019 16:45:47) gamma-only
REM
REM
REM
REM
REM ./C.cell (f39ce9773e2efe3fa5bbdf770a4156b8)
REM AIRSS Version 0.9.1 bugfix July 2018 build 013d7b7c2542+ Fri, 06 Jul 2018 19:26:36 +0100
REM compiler GCC version 4.8.5 20150623 (Red Hat 4.8.5-39)
REM options -cpp -mtune=generic -march=x86-64 -g -O0
REM seed 2043661997 2136382724 -1282213126 -1123375285 71037723 -1014734770 -726162895 1857198696 741641241 294039799 -1121015358 1006633600
REM
REM C.POTCAR (d86ddea03c3ceb6dc662c8ad6801f873)
REM 
CELL 1.54180   15.00000   15.00000   15.00000   90.00000   90.00000   90.00000
LATT -1
SFAC C  
C      1  0.5835201459216  0.5665274076243  0.6688502325872 1.0
C      1  0.5770299652744  0.6027259773156  0.3550440741249 1.0
C      1  0.5742471002352  0.3266584629212  0.4860242748279 1.0
C      1  0.4384131979597  0.4510205713344  0.4196921553995 1.0
C      1  0.4604148828608  0.4382810446553  0.6008987425347 1.0
C      1  0.3856581581377  0.6461865905945  0.4703238923332 1.0
C      1  0.4647174339957  0.6987628350005  0.4516335987798 1.0
C      1  0.4916049595766  0.3936470380547  0.3587446912939 1.0
C      1  0.5134473155767  0.4173523114386  0.6779456813772 1.0
C      1  0.5460523486263  0.5002486606866  0.2321963073894 1.0
C      1  0.5541479483222  0.2616433582147  0.6254205558645 1.0
C      1  0.4652437222219  0.6714546001371  0.6076241984780 1.0
C      1  0.4436018272399  0.6228584612758  0.2639964772290 1.0
C      1  0.4199291860624  0.2779302618976  0.5162136774278 1.0
C      1  0.4357656570303  0.5978934551716  0.7425432198220 1.0
C      1  0.6392901916619  0.4015441460838  0.5002113328530 1.0
C      1  0.6360418010893  0.5437897082225  0.5873394196474 1.0
C      1  0.6337635387076  0.5474596877835  0.4174553705744 1.0
C      1  0.6062561930156  0.3952247737943  0.3487890633160 1.0
C      1  0.6286960236977  0.4100561089497  0.6685042713817 1.0
C      1  0.5892547705213  0.6745584681575  0.4931737542230 1.0
C      1  0.3435071878828  0.4228951117807  0.4825076556527 1.0
C      1  0.3439398442239  0.5582988879839  0.6107469072205 1.0
C      1  0.3534311859660  0.5838826029954  0.4017590651502 1.0
C      1  0.5524446636756  0.3277149005788  0.3943521813071 1.0
C      1  0.5750818355819  0.4809308174673  0.7123891015964 1.0
C      1  0.5480327501876  0.6761233114451  0.4048408441139 1.0
C      1  0.3804545879514  0.6131507250782  0.3173024070690 1.0
C      1  0.3579860847782  0.3266690395808  0.4868159061716 1.0
C      1  0.3718247967218  0.5634716715817  0.6991393877889 1.0
C      1  0.6542887265539  0.4481251654412  0.5834741694551 1.0
C      1  0.6339268010767  0.5919722589046  0.5046081734417 1.0
C      1  0.6460466477689  0.4521520469030  0.4173195662794 1.0
C      1  0.5058865959526  0.6226052746897  0.6810730975252 1.0
C      1  0.5284759860155  0.5798448140329  0.2715712845506 1.0
C      1  0.5101616341664  0.2789992506440  0.5455311331032 1.0
C      1  0.3741648108982  0.4738580713754  0.5661690126824 1.0
C      1  0.3830824972398  0.6353023468142  0.5671341950701 1.0
C      1  0.3460904658766  0.4841491219978  0.4038425899184 1.0
C      1  0.5728936480171  0.3323134328040  0.6757453852303 1.0
C      1  0.5124437982210  0.7089943203928  0.5366962897143 1.0
C      1  0.5477558953542  0.4264622330980  0.2808577259514 1.0
C      1  0.4652634881549  0.4736303650966  0.5167474295430 1.0
END
