TITL C-89956-1265-26 -4.309 3375.00 -713.28144607 0 0 88 (C1) n - 1
REM
REM Run started: at 2020.12.04 08:52:14 in /rds/project/t2_vol4/rds-t2-cs072/BORA/CARBON/AIRSS/Generating-Clusters/Str-Search/Higher-Symm/C10-100
REM VASP from code version vasp.5.4.4.18Apr17-6-g9f103f2a35 (build Oct 11 2019 16:45:47) gamma-only
REM
REM
REM
REM
REM ./C.cell (f39ce9773e2efe3fa5bbdf770a4156b8)
REM AIRSS Version 0.9.1 bugfix July 2018 build 013d7b7c2542+ Fri, 06 Jul 2018 19:26:36 +0100
REM compiler GCC version 4.8.5 20150623 (Red Hat 4.8.5-39)
REM options -cpp -mtune=generic -march=x86-64 -g -O0
REM seed -1784149244 504252123 -356321477 1683566549 974404352 -25642575 225550103 1877817702 -1720924017 944795413 -2083587997 -433476759
REM
REM C.POTCAR (d86ddea03c3ceb6dc662c8ad6801f873)
REM 
CELL 1.54180   15.00000   15.00000   15.00000   90.00000   90.00000   90.00000
LATT -1
SFAC C  
C      1  0.5481601972078  0.2253454767674  0.6341795276979 1.0
C      1  0.6437019617882  0.7420659537867  0.5521031713627 1.0
C      1  0.5021838849289  0.7757326776916  0.6344488441468 1.0
C      1  0.7534200849176  0.5493837459865  0.6925631324037 1.0
C      1  0.3397093446583  0.3426143273464  0.2654613383030 1.0
C      1  0.5609748269281  0.2112046166517  0.5403755734954 1.0
C      1  0.4700232870847  0.6635977288812  0.5035211752795 1.0
C      1  0.6326601239082  0.3391098053809  0.4105757598972 1.0
C      1  0.5908938607235  0.7336456722108  0.6306693227192 1.0
C      1  0.3441182715030  0.7695685944675  0.5828552406222 1.0
C      1  0.6863929895056  0.3607276662726  0.6289998212933 1.0
C      1  0.6230158520622  0.4695150646723  0.5287997819436 1.0
C      1  0.4732202541163  0.3900888642241  0.5837980877281 1.0
C      1  0.5813848859924  0.5452872911142  0.5588489261202 1.0
C      1  0.3949918538590  0.5760082768129  0.2685458813144 1.0
C      1  0.2320406101010  0.3882497411562  0.4997824931240 1.0
C      1  0.5567791974745  0.6102795700363  0.4888207446239 1.0
C      1  0.6267445879458  0.6652055745633  0.4387561165687 1.0
C      1  0.3157945070873  0.5784198469870  0.3301427132816 1.0
C      1  0.7554167825988  0.6000151378511  0.5253492376764 1.0
C      1  0.7134527436688  0.4932721573414  0.7507354803328 1.0
C      1  0.4254962177070  0.4715303398877  0.5974553119816 1.0
C      1  0.5579549328438  0.2766482220131  0.4623972890465 1.0
C      1  0.2830210621063  0.7437283805091  0.5173321708503 1.0
C      1  0.5862500509675  0.4244740589915  0.4502603510944 1.0
C      1  0.4397849213195  0.7389333897890  0.5612426439756 1.0
C      1  0.2559051339778  0.3324933982007  0.5768733081674 1.0
C      1  0.7355871893149  0.4319512363107  0.3399150394857 1.0
C      1  0.4523413117515  0.6550153690235  0.2877159317371 1.0
C      1  0.3497561797776  0.4664468112070  0.7630021312020 1.0
C      1  0.5457417115824  0.5690878179370  0.6473045161128 1.0
C      1  0.5004877861426  0.6578942160230  0.8677040914505 1.0
C      1  0.7311249262433  0.3767037228438  0.4183886348192 1.0
C      1  0.2865860975844  0.4990809424795  0.3893237728467 1.0
C      1  0.3750006394111  0.3216586246963  0.6769669149818 1.0
C      1  0.3169822597567  0.6660740089501  0.3687957580799 1.0
C      1  0.6298997204486  0.6437221383764  0.3400104923857 1.0
C      1  0.3952697329772  0.2297868695450  0.4456382666321 1.0
C      1  0.4818115703623  0.7626015995995  0.4727943958589 1.0
C      1  0.6648732327967  0.4256221602317  0.7581460320110 1.0
C      1  0.3347887656142  0.2800635936085  0.5997671023138 1.0
C      1  0.5270390360022  0.6541748775185  0.7749616579048 1.0
C      1  0.5050033405421  0.3635353922006  0.4957309668355 1.0
C      1  0.7715479675174  0.5789937499308  0.6169331798162 1.0
C      1  0.2405420829044  0.3975314358200  0.6521738083625 1.0
C      1  0.5562412175930  0.2961829254511  0.6949247279742 1.0
C      1  0.6722644238229  0.4620835545502  0.2000635200657 1.0
C      1  0.3660350339109  0.4181030350491  0.2224994296327 1.0
C      1  0.5412884716365  0.7677899131740  0.3556474388722 1.0
C      1  0.3356815740397  0.2558768693968  0.3751423346023 1.0
C      1  0.4800557135418  0.2544425810954  0.3104951732778 1.0
C      1  0.7650057103537  0.5271614852707  0.4577772259553 1.0
C      1  0.7026522996772  0.4186751119123  0.5656223415519 1.0
C      1  0.6370792701401  0.3509263448505  0.7040354195434 1.0
C      1  0.4486541054359  0.7797204449696  0.3829758443772 1.0
C      1  0.7590885323463  0.4321890208636  0.4887520894884 1.0
C      1  0.7451613207927  0.5248388512506  0.3631058070915 1.0
C      1  0.6911776428361  0.5849650325518  0.3042431829390 1.0
C      1  0.4400762794493  0.5086463399147  0.4354049882288 1.0
C      1  0.2785548736971  0.7001408511600  0.4469180835977 1.0
C      1  0.6984470071347  0.6728815040774  0.5077239548512 1.0
C      1  0.3192550496269  0.3962815494656  0.7128210364615 1.0
C      1  0.4163365246926  0.5292536233270  0.7543559327985 1.0
C      1  0.6211718618334  0.3334529799538  0.3064271196055 1.0
C      1  0.4729100321010  0.3381675383297  0.6669528188194 1.0
C      1  0.3877961442975  0.2638989657264  0.2917740680669 1.0
C      1  0.4833239589174  0.2361948307575  0.4047957981213 1.0
C      1  0.3991853973714  0.4949735537569  0.2260635113871 1.0
C      1  0.3581438097540  0.8235489839900  0.6563820649882 1.0
C      1  0.6809987631314  0.3983038618543  0.2699012189352 1.0
C      1  0.5819990604610  0.7591249938343  0.4532933701014 1.0
C      1  0.3950729407732  0.7153500120318  0.3370386151823 1.0
C      1  0.4928368738743  0.4336335778187  0.4287164175880 1.0
C      1  0.4752053544217  0.5935124421779  0.4421124322202 1.0
C      1  0.4604942781915  0.5971216972887  0.8072376791422 1.0
C      1  0.6748228442803  0.5427097357663  0.2203468343879 1.0
C      1  0.4752929602877  0.1979324668992  0.5765058825801 1.0
C      1  0.5689996710844  0.6530190020725  0.6891495554235 1.0
C      1  0.5525314583841  0.2914957058112  0.2645936135189 1.0
C      1  0.3397495719446  0.4928421212560  0.5520358183566 1.0
C      1  0.2533372712674  0.4058092621678  0.4063422235880 1.0
C      1  0.3918670806060  0.2271151654367  0.5426266995694 1.0
C      1  0.5478766080926  0.6864511613644  0.3059664902426 1.0
C      1  0.4414479387837  0.8228939859338  0.6835076197683 1.0
C      1  0.3472764956742  0.5069921417897  0.4626196900732 1.0
C      1  0.2858028411447  0.3351680149966  0.3500038755753 1.0
C      1  0.2563969002185  0.4493373444798  0.5736458124298 1.0
C      1  0.4645292546649  0.5237011702810  0.6692858011328 1.0
END
