TITL C-89956-1265-22 -2.193 3375.00 -351.78969209 0 0 45 (C1) n - 1
REM
REM Run started: at 2020.12.04 07:32:33 in /rds/project/t2_vol4/rds-t2-cs072/BORA/CARBON/AIRSS/Generating-Clusters/Str-Search/Higher-Symm/C10-100
REM VASP from code version vasp.5.4.4.18Apr17-6-g9f103f2a35 (build Oct 11 2019 16:45:47) gamma-only
REM
REM
REM
REM
REM ./C.cell (f39ce9773e2efe3fa5bbdf770a4156b8)
REM AIRSS Version 0.9.1 bugfix July 2018 build 013d7b7c2542+ Fri, 06 Jul 2018 19:26:36 +0100
REM compiler GCC version 4.8.5 20150623 (Red Hat 4.8.5-39)
REM options -cpp -mtune=generic -march=x86-64 -g -O0
REM seed 1465598582 711213569 -361631195 -156827619 -1327867764 406635891 -1030265345 1049808657 -1322073973 -116125694 1897992848 629946841
REM
REM C.POTCAR (d86ddea03c3ceb6dc662c8ad6801f873)
REM 
CELL 1.54180   15.00000   15.00000   15.00000   90.00000   90.00000   90.00000
LATT -1
SFAC C  
C      1  0.6826555259935  0.5724343896242  0.4203870970742 1.0
C      1  0.6005505897731  0.5452200524979  0.6598676645884 1.0
C      1  0.4863685067278  0.6652266920762  0.5954549488890 1.0
C      1  0.6539814059320  0.4132575453137  0.6052482520880 1.0
C      1  0.5320163271858  0.6767545547508  0.3890536123487 1.0
C      1  0.3422806167111  0.6753350053389  0.3882342664069 1.0
C      1  0.5553258282323  0.6291035196750  0.6572935622707 1.0
C      1  0.5398189624454  0.5260250630175  0.3006535274395 1.0
C      1  0.5375712794368  0.5267303410420  0.4636179547286 1.0
C      1  0.6239283813885  0.6731435970963  0.6007657583735 1.0
C      1  0.4042615110695  0.5945044482921  0.2388358460129 1.0
C      1  0.4759332353077  0.5477318867088  0.2374081075126 1.0
C      1  0.4390403552863  0.3587673696124  0.7212456145257 1.0
C      1  0.2603023469070  0.4156734675654  0.5854027535929 1.0
C      1  0.5571112337676  0.7169234280787  0.5469781610981 1.0
C      1  0.6050521955613  0.4535448011229  0.3179681971820 1.0
C      1  0.6214851848092  0.5495768938730  0.4966476621764 1.0
C      1  0.3581896639453  0.3345609096086  0.7116278175791 1.0
C      1  0.7228632297771  0.4894406412323  0.4461260220459 1.0
C      1  0.5729895492863  0.3727873078328  0.3561040740075 1.0
C      1  0.6903635456296  0.4318628651294  0.3772661420119 1.0
C      1  0.4055373860957  0.5799049883415  0.3937869032487 1.0
C      1  0.3550855742426  0.6096945843747  0.4738455274276 1.0
C      1  0.4161666859484  0.4454033583788  0.5375334448260 1.0
C      1  0.5516998964363  0.7225018220253  0.4552877407542 1.0
C      1  0.4155913126324  0.6138402264675  0.5602622426565 1.0
C      1  0.4462099430063  0.4940737886253  0.6762976247845 1.0
C      1  0.5080170933423  0.5804408817254  0.3840209290707 1.0
C      1  0.4144187881608  0.5240925934909  0.5993261240169 1.0
C      1  0.5922359625422  0.4511349004690  0.6695481054965 1.0
C      1  0.6622645220796  0.5749852508646  0.5900674498092 1.0
C      1  0.6647800434241  0.3121692453022  0.4843182489489 1.0
C      1  0.3618880300529  0.3079698233561  0.4799331940738 1.0
C      1  0.2768560030497  0.5572436634177  0.5005931986605 1.0
C      1  0.4263605220967  0.3082669114888  0.4266000146285 1.0
C      1  0.2406568679504  0.4991388855140  0.5474733875705 1.0
C      1  0.3490926337280  0.3743935457464  0.5459208280866 1.0
C      1  0.5021532506275  0.4267935180187  0.7034770196420 1.0
C      1  0.6553008321629  0.3418335005136  0.3993276235911 1.0
C      1  0.4918990166348  0.3717157193904  0.4097859387160 1.0
C      1  0.4828559394041  0.4446730575304  0.4735879859791 1.0
C      1  0.3049468505617  0.3628353427546  0.6399870891829 1.0
C      1  0.6939377350687  0.4862187348460  0.5472387609588 1.0
C      1  0.6627481517726  0.3288103609716  0.5668835848360 1.0
C      1  0.3572071838058  0.6132604168977  0.3187098910819 1.0
END
