TITL C-90907-1103-17 -2.849 3375.00 -480.08679577 0 0 60 (D3) n - 1
REM
REM Run started: at 2020.11.27 08:37:17 in /rds/project/t2_vol4/rds-t2-cs072/BORA/CARBON/AIRSS/Generating-Clusters/Str-Search/Higher-Symm/Only-C60
REM VASP from code version vasp.5.4.4.18Apr17-6-g9f103f2a35 (build Oct 11 2019 16:45:47) gamma-only
REM
REM
REM
REM
REM ./C.cell (5f7b7a0d59291d2373303da1f58b8d66)
REM AIRSS Version 0.9.1 bugfix July 2018 build 013d7b7c2542+ Fri, 06 Jul 2018 19:26:36 +0100
REM compiler GCC version 4.8.5 20150623 (Red Hat 4.8.5-39)
REM options -cpp -mtune=generic -march=x86-64 -g -O0
REM seed -4509949 -147575092 1926708784 -717232121 -1182327698 2117054573 -185848665 1538199560 1022956030 1645945070 69363524 1171453953
REM
REM C.POTCAR (d86ddea03c3ceb6dc662c8ad6801f873)
REM 
CELL 1.54180   15.00000   15.00000   15.00000   90.00000   90.00000   90.00000
LATT -1
SFAC C  
C      1  0.6988963689430  0.5983805431933  0.5300858534735 1.0
C      1  0.4855949645861  0.2786145060564  0.5302017899677 1.0
C      1  0.3151257930118  0.6231199493895  0.5301215212373 1.0
C      1  0.6988963684906  0.4016194426316  0.4699141919814 1.0
C      1  0.4855949680973  0.7213854987902  0.4697982028325 1.0
C      1  0.3151258036497  0.3768800599551  0.4698784779755 1.0
C      1  0.6028805247726  0.6126394301507  0.3002049967224 1.0
C      1  0.5465199482081  0.3546322606590  0.3003120632816 1.0
C      1  0.3507327929519  0.5325077224563  0.3002373035559 1.0
C      1  0.6028805077732  0.3873605679909  0.6997950418122 1.0
C      1  0.5465199443830  0.6453677515581  0.6996879208262 1.0
C      1  0.3507327833928  0.4674922804428  0.6997626828089 1.0
C      1  0.4184891496032  0.4049637385545  0.3710715885245 1.0
C      1  0.4583860262790  0.6180870231655  0.3710592748683 1.0
C      1  0.6230977881633  0.4768452692814  0.3709237180465 1.0
C      1  0.4184891452539  0.5950362565609  0.6289283743787 1.0
C      1  0.4583860251177  0.3819129931705  0.6289407273741 1.0
C      1  0.6230977636814  0.5231547188254  0.6290762909981 1.0
C      1  0.7063084967208  0.4831422213307  0.4165833995290 1.0
C      1  0.3820455284240  0.3296963320352  0.4165264216564 1.0
C      1  0.4111898860852  0.6872464485834  0.4164042421481 1.0
C      1  0.7063085028219  0.5168577621676  0.5834166582744 1.0
C      1  0.3820455246666  0.6703036814435  0.5834735557281 1.0
C      1  0.4111898890990  0.3127535701852  0.5835957385469 1.0
C      1  0.6361605423792  0.6390193976732  0.3878851386690 1.0
C      1  0.5523161183114  0.3125773974099  0.3880522228560 1.0
C      1  0.3114452939821  0.5483034256053  0.3879874486119 1.0
C      1  0.6361605296859  0.3609805885462  0.6121148953367 1.0
C      1  0.5523161156186  0.6874226059999  0.6119477587878 1.0
C      1  0.3114452861751  0.4516965729144  0.6120125432928 1.0
C      1  0.5087329297584  0.3737126827537  0.7117210672622 1.0
C      1  0.3863726460303  0.5556628733565  0.7118639476480 1.0
C      1  0.6058240583381  0.5709626017857  0.7120230221627 1.0
C      1  0.5087329601552  0.6262873254019  0.2882789558308 1.0
C      1  0.3863726541606  0.4443371362094  0.2881360178523 1.0
C      1  0.6058240733765  0.4290373900354  0.2879769771584 1.0
C      1  0.5852441493379  0.3100869289815  0.5434446217255 1.0
C      1  0.2926896727989  0.5210735777897  0.5433255920830 1.0
C      1  0.6218239011211  0.6690227192028  0.5432308197716 1.0
C      1  0.5852441603308  0.6899130713655  0.4565553848982 1.0
C      1  0.2926896782937  0.4789264266016  0.4566744116113 1.0
C      1  0.6218238988145  0.3309772810494  0.4567691900302 1.0
C      1  0.5579051779571  0.5044419096876  0.5547209532749 1.0
C      1  0.4748734731102  0.4477190866548  0.5546530888274 1.0
C      1  0.4672005366403  0.5478845829247  0.5545900368793 1.0
C      1  0.5579051872522  0.4955580878176  0.4452790438460 1.0
C      1  0.4748734774963  0.5522809117509  0.4453468847534 1.0
C      1  0.4672005415281  0.4521154156494  0.4454099192440 1.0
C      1  0.6176583275053  0.4806009766102  0.7189813022492 1.0
C      1  0.4242438261358  0.4082618800380  0.7186880981477 1.0
C      1  0.4585148142683  0.6115034654718  0.7185745385502 1.0
C      1  0.6176583413522  0.5193990344906  0.2810187173406 1.0
C      1  0.4242438391691  0.5917381116525  0.2813119264175 1.0
C      1  0.4585148153960  0.3884965153114  0.2814254079753 1.0
C      1  0.7038986441050  0.5799100232630  0.4369389398479 1.0
C      1  0.4671795124726  0.2834491272016  0.4369591432708 1.0
C      1  0.3286487873589  0.6366607609913  0.4368915475085 1.0
C      1  0.7038986390318  0.4200899572513  0.5630611137474 1.0
C      1  0.4671795124952  0.7165508801973  0.5630408381582 1.0
C      1  0.3286487838814  0.3633392417766  0.5631084478255 1.0
END
