TITL C-90907-1103-12 -2.822 3375.00 -483.17175285 0 0 60 (C2) n - 1
REM
REM Run started: at 2020.11.27 07:19:41 in /rds/project/t2_vol4/rds-t2-cs072/BORA/CARBON/AIRSS/Generating-Clusters/Str-Search/Higher-Symm/Only-C60
REM VASP from code version vasp.5.4.4.18Apr17-6-g9f103f2a35 (build Oct 11 2019 16:45:47) gamma-only
REM
REM
REM
REM
REM ./C.cell (5f7b7a0d59291d2373303da1f58b8d66)
REM AIRSS Version 0.9.1 bugfix July 2018 build 013d7b7c2542+ Fri, 06 Jul 2018 19:26:36 +0100
REM compiler GCC version 4.8.5 20150623 (Red Hat 4.8.5-39)
REM options -cpp -mtune=generic -march=x86-64 -g -O0
REM seed 1422934155 -2066968190 -194946198 255015503 339297435 -161782614 -738754580 -1584071640 -1446481345 -1593499456 131583971 239254374
REM
REM C.POTCAR (d86ddea03c3ceb6dc662c8ad6801f873)
REM 
CELL 1.54180   15.00000   15.00000   15.00000   90.00000   90.00000   90.00000
LATT -1
SFAC C  
C      1  0.5136059296466  0.4581459861942  0.2459195937492 1.0
C      1  0.5136057334938  0.5418534322338  0.7540803556504 1.0
C      1  0.6749793909226  0.4729534058557  0.3395981180530 1.0
C      1  0.6749801940896  0.5270474483751  0.6604056687789 1.0
C      1  0.4700183654108  0.5244089190854  0.5408707584341 1.0
C      1  0.4700175532426  0.4755916222139  0.4591293893207 1.0
C      1  0.3436583439784  0.6057583761817  0.5798501063208 1.0
C      1  0.3436584278932  0.3942412832803  0.4201496470076 1.0
C      1  0.3753612898597  0.5406198984197  0.2954481043716 1.0
C      1  0.3753612212029  0.4593798983190  0.7045515946671 1.0
C      1  0.4998684374233  0.5337512129108  0.3935397718358 1.0
C      1  0.4998702785969  0.4662493172720  0.6064604401558 1.0
C      1  0.3575225817671  0.3304628975729  0.4898924015249 1.0
C      1  0.3575223927805  0.6695367496910  0.5101073323511 1.0
C      1  0.4510723507830  0.3662518760503  0.6216795828459 1.0
C      1  0.4510722848241  0.6337478287846  0.3783202957976 1.0
C      1  0.5567358187151  0.6182949398648  0.7136756871594 1.0
C      1  0.5567365358845  0.3817051113696  0.2863245631514 1.0
C      1  0.5762939909457  0.5207997267442  0.5817055940632 1.0
C      1  0.5762923627389  0.4792010043706  0.4182944605519 1.0
C      1  0.5241196821470  0.2974046554019  0.5967384873165 1.0
C      1  0.5241195215931  0.7025954290691  0.4032612802637 1.0
C      1  0.3632185735023  0.3693872938935  0.5762948520125 1.0
C      1  0.3632183115408  0.6306125227244  0.4237048943851 1.0
C      1  0.5330818597894  0.3921294654999  0.4448951960313 1.0
C      1  0.5330824485579  0.6078712033471  0.5551046860560 1.0
C      1  0.6473382507271  0.3875587127785  0.3156866604647 1.0
C      1  0.6473376693952  0.6124418022612  0.6843144531019 1.0
C      1  0.6462063793290  0.3702455247769  0.6648290176115 1.0
C      1  0.6462063792030  0.6297546787278  0.3351706688819 1.0
C      1  0.5201934988202  0.6255251672739  0.2481392504623 1.0
C      1  0.5201934118102  0.3744746031994  0.7518606851269 1.0
C      1  0.4670268621199  0.7718351108395  0.4471629755779 1.0
C      1  0.4670272388438  0.2281646576862  0.5528367775261 1.0
C      1  0.4170366101909  0.5424218587329  0.7227051269207 1.0
C      1  0.4170368775179  0.4575778690239  0.2772946859208 1.0
C      1  0.5652196784844  0.4603422803276  0.7665684064033 1.0
C      1  0.5652196336688  0.5396572063629  0.2334316206943 1.0
C      1  0.6658531392353  0.4861158520464  0.5515632115986 1.0
C      1  0.6658526294573  0.5138837917509  0.4484344914244 1.0
C      1  0.3283487316979  0.5523092205254  0.3851804065078 1.0
C      1  0.3283488120271  0.4476905431222  0.6148192555472 1.0
C      1  0.4931874608323  0.6478363759429  0.6438430549301 1.0
C      1  0.4931877829643  0.3521635229565  0.3561571401717 1.0
C      1  0.3127902765805  0.4845186090100  0.4503097698358 1.0
C      1  0.3127900893639  0.5154810536777  0.5496900278748 1.0
C      1  0.5779777764801  0.6521236962618  0.4746127030591 1.0
C      1  0.5779776265721  0.3478767372513  0.5253870302758 1.0
C      1  0.6490700144652  0.6115032191568  0.4310663881996 1.0
C      1  0.6490700691893  0.3884972737904  0.5689332526443 1.0
C      1  0.4328410313108  0.6183491608106  0.2812347918779 1.0
C      1  0.4328411159763  0.3816507675456  0.7187646861745 1.0
C      1  0.4120684922908  0.7482627129999  0.5060839815957 1.0
C      1  0.4120686961321  0.2517369919241  0.4939158121222 1.0
C      1  0.6485091076402  0.5467461237189  0.2847894888149 1.0
C      1  0.6485102577585  0.4532533967178  0.7152118352112 1.0
C      1  0.4033590106279  0.6132532931777  0.6590470128600 1.0
C      1  0.4033591793328  0.3867466526773  0.3409527311577 1.0
C      1  0.5734361203394  0.6828230921078  0.3125747114217 1.0
C      1  0.5734362082857  0.3171769361118  0.6874250261470 1.0
END
