TITL C-90907-1103-25 -2.971 3375.00 -489.06096966 0 0 60 (C1) n - 1
REM
REM Run started: at 2020.11.27 10:19:59 in /rds/project/t2_vol4/rds-t2-cs072/BORA/CARBON/AIRSS/Generating-Clusters/Str-Search/Higher-Symm/Only-C60
REM VASP from code version vasp.5.4.4.18Apr17-6-g9f103f2a35 (build Oct 11 2019 16:45:47) gamma-only
REM
REM
REM
REM
REM ./C.cell (5f7b7a0d59291d2373303da1f58b8d66)
REM AIRSS Version 0.9.1 bugfix July 2018 build 013d7b7c2542+ Fri, 06 Jul 2018 19:26:36 +0100
REM compiler GCC version 4.8.5 20150623 (Red Hat 4.8.5-39)
REM options -cpp -mtune=generic -march=x86-64 -g -O0
REM seed 2049008980 1166589682 -767684462 491620548 -309297756 849437416 -1487325204 691142921 1906179169 1077382467 527571600 1375864275
REM
REM C.POTCAR (d86ddea03c3ceb6dc662c8ad6801f873)
REM 
CELL 1.54180   15.00000   15.00000   15.00000   90.00000   90.00000   90.00000
LATT -1
SFAC C  
C      1  0.5738621692303  0.5746333616356  0.7216206593702 1.0
C      1  0.6355873559955  0.5267581489755  0.6651980334117 1.0
C      1  0.5108210904606  0.7265308606627  0.6750320810348 1.0
C      1  0.2876806941909  0.4020840301199  0.6607168551512 1.0
C      1  0.4561431090950  0.2467625265608  0.4368057539014 1.0
C      1  0.3445709852783  0.3300388984930  0.6311393321150 1.0
C      1  0.3814009194633  0.2472724725348  0.4956843317724 1.0
C      1  0.2915235039676  0.5300154476637  0.6222248503929 1.0
C      1  0.4769665362347  0.3129738348815  0.3743859495121 1.0
C      1  0.5132122066188  0.6460356713316  0.7187329941546 1.0
C      1  0.5658129354227  0.3979405861192  0.5673091928444 1.0
C      1  0.6346036576035  0.6584541710275  0.3582101303078 1.0
C      1  0.3580497840133  0.7468416362274  0.4391792427113 1.0
C      1  0.7465611218186  0.4876523720071  0.4116446604203 1.0
C      1  0.7505575991622  0.4264999900449  0.4875883890782 1.0
C      1  0.7233341825174  0.7310001714046  0.4658601782246 1.0
C      1  0.5350159816818  0.7687036922795  0.6074329857315 1.0
C      1  0.3281117492810  0.4846323888192  0.7003564135976 1.0
C      1  0.5847163704775  0.5865529493487  0.3160144229466 1.0
C      1  0.2332014601049  0.4518473157090  0.5965297036531 1.0
C      1  0.7253843589781  0.5123455812790  0.6370145481324 1.0
C      1  0.3706190401625  0.4065050234063  0.4897607552220 1.0
C      1  0.4628312553559  0.2158318609313  0.5290495525061 1.0
C      1  0.6580646088812  0.2840091611044  0.5237698677982 1.0
C      1  0.5012640126066  0.2605009836959  0.6053510249200 1.0
C      1  0.4877688950573  0.6104295573051  0.3153857169392 1.0
C      1  0.5816187101702  0.4732501654939  0.6115557437819 1.0
C      1  0.4521264643731  0.4496346639218  0.3027897758403 1.0
C      1  0.5842558691833  0.3039850469256  0.5725200391728 1.0
C      1  0.6678219546671  0.7691278205784  0.5139970032039 1.0
C      1  0.4135629874893  0.4763956213850  0.5373866984654 1.0
C      1  0.3466728245998  0.3246002829830  0.5334062827845 1.0
C      1  0.4190509818910  0.4847903785592  0.7288075676378 1.0
C      1  0.6125730393623  0.4964658864673  0.3063511144685 1.0
C      1  0.6538780143511  0.3633801167345  0.3793857928116 1.0
C      1  0.4806818710958  0.5573964710686  0.7355705122952 1.0
C      1  0.4542325833981  0.4052814040297  0.6816539108683 1.0
C      1  0.3205690866990  0.5836057632202  0.4582614897935 1.0
C      1  0.4849147958784  0.7007670507122  0.3405036931764 1.0
C      1  0.4390531630490  0.3108895668805  0.6604480395211 1.0
C      1  0.5439099147211  0.4305760769739  0.2979726370766 1.0
C      1  0.7670994865427  0.5772260038094  0.4176526490022 1.0
C      1  0.6850550715752  0.4500899630163  0.3486168600917 1.0
C      1  0.5325491389780  0.7813793019527  0.4410293982757 1.0
C      1  0.4433534099782  0.7589208794623  0.4080214042669 1.0
C      1  0.4056533764984  0.3790480596174  0.3447958454147 1.0
C      1  0.5759154817092  0.7892619448416  0.5264666321938 1.0
C      1  0.2329120568039  0.4209101472968  0.4289803541089 1.0
C      1  0.6953550935888  0.3459753247420  0.4655086424414 1.0
C      1  0.4217752424654  0.5388619084934  0.3243729871743 1.0
C      1  0.3312973858319  0.4276481493688  0.3999934351047 1.0
C      1  0.7185578746840  0.6536753832465  0.4086024016902 1.0
C      1  0.3173303117349  0.6745239599812  0.4522094636833 1.0
C      1  0.5637331870760  0.3501853650827  0.3460448342679 1.0
C      1  0.7526060938856  0.4664996248936  0.5715225937611 1.0
C      1  0.3466732983048  0.5476461250323  0.5439566065476 1.0
C      1  0.2088432586146  0.4307954878828  0.5091088321429 1.0
C      1  0.3495960572192  0.5277249893666  0.3832063402003 1.0
C      1  0.4866606732628  0.4479845103161  0.5975951854285 1.0
C      1  0.5724456566583  0.7286435620955  0.3697078074564 1.0
END
