TITL C-90907-1103-10 -2.969 3375.00 -475.90463955 0 0 60 (C2h) n - 1
REM
REM Run started: at 2020.11.27 06:50:11 in /rds/project/t2_vol4/rds-t2-cs072/BORA/CARBON/AIRSS/Generating-Clusters/Str-Search/Higher-Symm/Only-C60
REM VASP from code version vasp.5.4.4.18Apr17-6-g9f103f2a35 (build Oct 11 2019 16:45:47) gamma-only
REM
REM
REM
REM
REM ./C.cell (5f7b7a0d59291d2373303da1f58b8d66)
REM AIRSS Version 0.9.1 bugfix July 2018 build 013d7b7c2542+ Fri, 06 Jul 2018 19:26:36 +0100
REM compiler GCC version 4.8.5 20150623 (Red Hat 4.8.5-39)
REM options -cpp -mtune=generic -march=x86-64 -g -O0
REM seed 887854085 -290242475 741132824 1143849050 1391332871 1545054411 1229924172 1640496244 -553509990 68908129 1831244811 -1650409321
REM
REM C.POTCAR (d86ddea03c3ceb6dc662c8ad6801f873)
REM 
CELL 1.54180   15.00000   15.00000   15.00000   90.00000   90.00000   90.00000
LATT -1
SFAC C  
C      1  0.3416412345496  0.4362248776758  0.4049114499137 1.0
C      1  0.6582807952248  0.5643180752278  0.4049534288131 1.0
C      1  0.3413911296734  0.4358715903394  0.5947001411125 1.0
C      1  0.6586816092317  0.5636261848335  0.5949228545042 1.0
C      1  0.2552380530317  0.3977896362845  0.5481483150716 1.0
C      1  0.7446450017841  0.6019096350959  0.5480183723904 1.0
C      1  0.2557291056895  0.3976611735139  0.4514655109718 1.0
C      1  0.7443784274325  0.6024361252049  0.4513344497202 1.0
C      1  0.5106392282905  0.6487804115416  0.3111560206577 1.0
C      1  0.4889888834435  0.3517230785468  0.3102160125743 1.0
C      1  0.5112132396512  0.6480637000890  0.6897403019812 1.0
C      1  0.4891231715067  0.3515702843928  0.6889169029919 1.0
C      1  0.4201799309483  0.3991687498231  0.4535817662210 1.0
C      1  0.5799494813697  0.6010342607307  0.4541088592335 1.0
C      1  0.4198390707220  0.3988844857042  0.5457832182058 1.0
C      1  0.5799888287909  0.6005373442832  0.5463235992601 1.0
C      1  0.2672157690795  0.6405077055129  0.5424208618013 1.0
C      1  0.7332955962784  0.3591218223433  0.5422912142035 1.0
C      1  0.2668282960753  0.6405043261996  0.4586216578453 1.0
C      1  0.7328485789738  0.3604318556470  0.4585498704070 1.0
C      1  0.5771872656624  0.3547517929727  0.4516665547692 1.0
C      1  0.4228511521513  0.6453072304188  0.4525497509873 1.0
C      1  0.5770487405898  0.3546072843814  0.5477914679174 1.0
C      1  0.4229839383780  0.6450888671503  0.5486581482577 1.0
C      1  0.5645359627384  0.5820375563216  0.2614527023056 1.0
C      1  0.4346907186047  0.4187045198902  0.2610169430234 1.0
C      1  0.5654143879643  0.5812463081080  0.7390502199231 1.0
C      1  0.4352392093984  0.4182129778651  0.7384629475376 1.0
C      1  0.6590235981507  0.3818317073155  0.5943859836776 1.0
C      1  0.3409257424308  0.6178478617005  0.5951846724555 1.0
C      1  0.6592273649704  0.3825377406915  0.4053782319849 1.0
C      1  0.3408164252096  0.6179285885355  0.4061953518445 1.0
C      1  0.4331614181578  0.6113010939744  0.1985971888512 1.0
C      1  0.5665475414939  0.3899885957126  0.2022027832922 1.0
C      1  0.4332003131102  0.6099854013301  0.7983701443950 1.0
C      1  0.5666408705676  0.3889369987168  0.8013046349902 1.0
C      1  0.4369010334523  0.6758971109986  0.2534112821970 1.0
C      1  0.5629912009012  0.3217939234216  0.2530140900391 1.0
C      1  0.4370191780711  0.6774883396787  0.7468187868181 1.0
C      1  0.5630392332584  0.3243308329734  0.7465139069811 1.0
C      1  0.3694921735958  0.4636852537328  0.6874472220112 1.0
C      1  0.6309405561870  0.5356306797907  0.6877128699792 1.0
C      1  0.3695408708950  0.4646912799246  0.3123539268256 1.0
C      1  0.6301036237005  0.5362111476896  0.3123370084562 1.0
C      1  0.2255095239121  0.3579639544691  0.6205359758399 1.0
C      1  0.7737998065364  0.6412261761621  0.6208832922261 1.0
C      1  0.2296895986556  0.3576084938161  0.3778522489933 1.0
C      1  0.7718052169496  0.6427380100282  0.3782997262765 1.0
C      1  0.4955235435335  0.4530714816348  0.1928646834911 1.0
C      1  0.5044547566734  0.5485482841801  0.1914446900188 1.0
C      1  0.4953208240625  0.4516591716860  0.8085069497922 1.0
C      1  0.5044115806971  0.5470655129394  0.8072789843010 1.0
C      1  0.4933281325517  0.3616936385964  0.4043204396136 1.0
C      1  0.5068092778366  0.6389357179987  0.4051109455184 1.0
C      1  0.4929536880233  0.3611436672582  0.5949337930830 1.0
C      1  0.5069044754085  0.6380390945035  0.5957076618033 1.0
C      1  0.6567353976701  0.4690855998913  0.3633413299554 1.0
C      1  0.3432897780338  0.5316195126803  0.3637212851968 1.0
C      1  0.6569581337586  0.4684193577031  0.6365189250510 1.0
C      1  0.3428883143103  0.5309739101676  0.6366374414396 1.0
END
