TITL C-92458-9159-7 -2.638 3375.00 -462.28500981 0 0 57 (C1) n - 1
REM
REM Run started: at 2020.11.24 15:44:27 in /rds/project/t2_vol4/rds-t2-cs072/BORA/CARBON/AIRSS/Generating-Clusters/Str-Search/Higher-Symm
REM VASP from code version vasp.5.4.4.18Apr17-6-g9f103f2a35 (build Oct 11 2019 16:45:47) gamma-only
REM
REM
REM
REM
REM ./C.cell (e5ae0387ce4d49c7c0135a1433873289)
REM AIRSS Version 0.9.1 bugfix July 2018 build 013d7b7c2542+ Fri, 06 Jul 2018 19:26:36 +0100
REM compiler GCC version 4.8.5 20150623 (Red Hat 4.8.5-39)
REM options -cpp -mtune=generic -march=x86-64 -g -O0
REM seed 344655078 100432654 385334812 1350851952 -1201505990 -1666788734 -1543382171 -974174508 -263536378 1162558249 -1028731047 1250265487
REM
REM C.POTCAR (d86ddea03c3ceb6dc662c8ad6801f873)
REM 
CELL 1.54180   15.00000   15.00000   15.00000   90.00000   90.00000   90.00000
LATT -1
SFAC C  
C      1  0.6930042584617  0.5484576250752  0.4090358984031 1.0
C      1  0.6997706977219  0.4496706293344  0.4020654859149 1.0
C      1  0.6989255351028  0.3882018562352  0.4743920025829 1.0
C      1  0.6979034408146  0.4059109269871  0.5687872752577 1.0
C      1  0.6978267274779  0.4892145853640  0.6138898944467 1.0
C      1  0.6895280834130  0.5780777236920  0.5704008734920 1.0
C      1  0.7181279457281  0.6226373484708  0.4798211637693 1.0
C      1  0.2826196578329  0.4528699748378  0.3936373109037 1.0
C      1  0.2827938585444  0.3892657383290  0.4696278073487 1.0
C      1  0.2819012532338  0.4061469261946  0.5607699074129 1.0
C      1  0.2808223642028  0.4957133191586  0.6046777126731 1.0
C      1  0.2810435486684  0.5775010865869  0.5638903702707 1.0
C      1  0.2793300029604  0.6043273002165  0.4753821857062 1.0
C      1  0.2811632176579  0.5460562675451  0.3953851397262 1.0
C      1  0.4869791304772  0.5036450546269  0.4002814136837 1.0
C      1  0.4902467537387  0.4222400154788  0.4350262046516 1.0
C      1  0.4881529638482  0.4006412204544  0.5201248296643 1.0
C      1  0.4883333164988  0.4530170732392  0.5913396913201 1.0
C      1  0.4772253949853  0.5411917327895  0.5950759658346 1.0
C      1  0.4699147375429  0.5993044553201  0.5287043871345 1.0
C      1  0.4815501996463  0.5823163694553  0.4412851333938 1.0
C      1  0.6231064293173  0.6664868362453  0.4697283265089 1.0
C      1  0.6259911092540  0.5819415425631  0.3404159738387 1.0
C      1  0.6288667507427  0.4250183195657  0.3389852240884 1.0
C      1  0.6279044263953  0.3213727870140  0.4556950520803 1.0
C      1  0.6260166462606  0.3502533696227  0.6090697580101 1.0
C      1  0.6262768500362  0.4890201918056  0.6811380600793 1.0
C      1  0.6195129302530  0.6330437371437  0.6198041772508 1.0
C      1  0.4243320448094  0.3305232000026  0.6297983783107 1.0
C      1  0.4216122168558  0.4838081851240  0.7133388817268 1.0
C      1  0.4412298822108  0.6756770889872  0.6579665575339 1.0
C      1  0.4201081437025  0.7087670331195  0.4505594479041 1.0
C      1  0.4247869540231  0.6010481672076  0.3125511438636 1.0
C      1  0.4280871193501  0.4071760967896  0.3070649053065 1.0
C      1  0.4271122301158  0.2946306911626  0.4406217466974 1.0
C      1  0.5765984931287  0.6914716810545  0.5559906042257 1.0
C      1  0.5829728564560  0.6592674370426  0.3774227789648 1.0
C      1  0.5814190731678  0.5038130815471  0.3035314446479 1.0
C      1  0.5866344981781  0.3430097256721  0.3714024424205 1.0
C      1  0.5804256812151  0.3005378277660  0.5390304842648 1.0
C      1  0.5828512000111  0.4018068195043  0.6792799210316 1.0
C      1  0.5791333112605  0.5740697838060  0.6856155055844 1.0
C      1  0.4818413232672  0.4041191354515  0.6780067095450 1.0
C      1  0.4749898245137  0.5768469315699  0.6858546758549 1.0
C      1  0.4725953213235  0.6922685764936  0.5541851103847 1.0
C      1  0.4817462777983  0.6600545803258  0.3793805285957 1.0
C      1  0.4751265954862  0.5043911915033  0.3028900687417 1.0
C      1  0.4860281936269  0.3460746904355  0.3708034747122 1.0
C      1  0.4753386002128  0.3043029678918  0.5376053008933 1.0
C      1  0.3431680161539  0.3285364854632  0.4202442589348 1.0
C      1  0.3404828229140  0.3700703007378  0.6317396447403 1.0
C      1  0.3380029857995  0.4589333706286  0.6788838226042 1.0
C      1  0.4028326865076  0.7319146883891  0.7132891239390 1.0
C      1  0.3358979466847  0.6717592509785  0.4285382454965 1.0
C      1  0.3397294516224  0.6108994624036  0.3483102859671 1.0
C      1  0.3438475708416  0.3934736461801  0.3436347463184 1.0
C      1  0.6335604479457  0.5651228894106  0.4880917353423 1.0
END
