TITL C-92177-6247-6 -7.341 3375.00 -1271.79849104 0 0 158 (C2) n - 1
REM
REM Run started: at 2020.12.31 08:13:53 in /rds/project/t2_vol4/rds-t2-cs072/BORA/CARBON/AIRSS/Generating-Clusters/Str-Search/Higher-Symm/C100-200
REM VASP from code version vasp.5.4.4.18Apr17-6-g9f103f2a35 (build Oct 11 2019 16:45:47) gamma-only
REM
REM
REM
REM
REM ./C.cell (533062f00bc710175b3da973d35f2034)
REM AIRSS Version 0.9.1 bugfix July 2018 build 013d7b7c2542+ Fri, 06 Jul 2018 19:26:36 +0100
REM compiler GCC version 4.8.5 20150623 (Red Hat 4.8.5-39)
REM options -cpp -mtune=generic -march=x86-64 -g -O0
REM seed -1147580454 1955056214 -1221142829 -887127363 -1466904659 -1899120073 -1773825035 -1259851015 2059221135 -48429423 -949108261 -1626756721
REM
REM C.POTCAR (d86ddea03c3ceb6dc662c8ad6801f873)
REM 
CELL 1.54180   15.00000   15.00000   15.00000   90.00000   90.00000   90.00000
LATT -1
SFAC C  
C      1  0.5452199675042  0.1277027788820  0.3893404756666 1.0
C      1  0.4547491046942  0.8722435842488  0.3894899530745 1.0
C      1  0.4564779239168  0.1481751199353  0.3749715736519 1.0
C      1  0.5434958874435  0.8518261500849  0.3749625035125 1.0
C      1  0.5278644304539  0.3611819406655  0.3422785989337 1.0
C      1  0.4722033290890  0.6388532805463  0.3422667843947 1.0
C      1  0.5554354709449  0.5597654329629  0.8356494349357 1.0
C      1  0.4445839638658  0.4402115591735  0.8355129241871 1.0
C      1  0.2205353087901  0.4087587058649  0.7207222665874 1.0
C      1  0.7795318485275  0.5911586214889  0.7208378520189 1.0
C      1  0.4568725304195  0.7649446513317  0.2469470009127 1.0
C      1  0.5430340829401  0.2350689020530  0.2468944606722 1.0
C      1  0.5530681411090  0.2555980613427  0.8166781451007 1.0
C      1  0.4467906537180  0.7441620311847  0.8163117808236 1.0
C      1  0.4350117018845  0.7956505576774  0.5534963161075 1.0
C      1  0.5649764688889  0.2045711250148  0.5534847091123 1.0
C      1  0.6738690043285  0.3509669459802  0.4721580316497 1.0
C      1  0.3262298044464  0.6487526136717  0.4724544491888 1.0
C      1  0.9048372686450  0.4700631019267  0.5477914963741 1.0
C      1  0.0952483912016  0.5299457726261  0.5478154899233 1.0
C      1  0.4799631246787  0.8517487421997  0.6092414512037 1.0
C      1  0.5198680251653  0.1484114818033  0.6091223564899 1.0
C      1  0.1739247108002  0.6567001646695  0.5827308578283 1.0
C      1  0.8261347306443  0.3433198433003  0.5826917621201 1.0
C      1  0.2794988600861  0.2532876094804  0.6429549227422 1.0
C      1  0.7204628837059  0.7466280746216  0.6430508824669 1.0
C      1  0.4175268933293  0.6362858994140  0.4285038828409 1.0
C      1  0.5825978209951  0.3635556528191  0.4279930946438 1.0
C      1  0.4768635238524  0.6327556613266  0.5077289963635 1.0
C      1  0.5249762904099  0.3688592938442  0.5087294987406 1.0
C      1  0.4148431671616  0.3417647838285  0.8434931227841 1.0
C      1  0.5850958869940  0.6582852679339  0.8435860798542 1.0
C      1  0.3606797764145  0.3585949998557  0.5288035975578 1.0
C      1  0.6399237439258  0.6413049286299  0.5289658485126 1.0
C      1  0.5872256141065  0.2745325635498  0.7310608672191 1.0
C      1  0.4128005572099  0.7252605256377  0.7305956976272 1.0
C      1  0.3609461281458  0.5748477474916  0.6471734128359 1.0
C      1  0.6390367305715  0.4250148771820  0.6474667406344 1.0
C      1  0.6628629558972  0.8045105205269  0.4905257536208 1.0
C      1  0.3371529915604  0.1954555291823  0.4904548000639 1.0
C      1  0.5400483139643  0.4098733555132  0.1966170232430 1.0
C      1  0.4599809751822  0.5900916921748  0.1967161532361 1.0
C      1  0.3011935526972  0.2908218896521  0.2813098448376 1.0
C      1  0.6987821024223  0.7092922786169  0.2811617661489 1.0
C      1  0.4299946033076  0.5480382933746  0.3779159307135 1.0
C      1  0.5701935686536  0.4519633174468  0.3776377123794 1.0
C      1  0.6304914554007  0.4929906835327  0.3088498675083 1.0
C      1  0.3696028514174  0.5070404472240  0.3091644638226 1.0
C      1  0.4433928650026  0.3088712996171  0.3387591321323 1.0
C      1  0.5567060799749  0.6912073197158  0.3385517386470 1.0
C      1  0.4188702173086  0.4286428427913  0.7375893580483 1.0
C      1  0.5811256926758  0.5713197512077  0.7377873464662 1.0
C      1  0.6586017976170  0.7130143795088  0.4644716902470 1.0
C      1  0.3418284612806  0.2869962454367  0.4644647567309 1.0
C      1  0.8367188439645  0.5701395988909  0.6509467938204 1.0
C      1  0.1633520732635  0.4298695611839  0.6508439027831 1.0
C      1  0.1274306725414  0.4561375777691  0.4935024390565 1.0
C      1  0.8725521615327  0.5438287322607  0.4935188158349 1.0
C      1  0.8742167095496  0.4816804187775  0.6404770247871 1.0
C      1  0.1258146106021  0.5183324609869  0.6405219438896 1.0
C      1  0.7410762476656  0.5082450085046  0.7641505338249 1.0
C      1  0.2589337148735  0.4915922914222  0.7641145592822 1.0
C      1  0.7337286977738  0.4174121073121  0.4243653563419 1.0
C      1  0.2662276002101  0.5826147684831  0.4242157154851 1.0
C      1  0.1704398984216  0.6821171936249  0.3624215983957 1.0
C      1  0.8294822243705  0.3179384216653  0.3624004008845 1.0
C      1  0.4296845571016  0.6693049621917  0.2515841588806 1.0
C      1  0.5703238361536  0.3306774114406  0.2514979542536 1.0
C      1  0.8415294715994  0.5141453033960  0.4087115958438 1.0
C      1  0.1583987368876  0.4858149607088  0.4086578668975 1.0
C      1  0.7644745853615  0.4618061009605  0.2292603514143 1.0
C      1  0.2356225680779  0.5382561087765  0.2293414999895 1.0
C      1  0.3929277149101  0.1374541514176  0.4437299307243 1.0
C      1  0.6069991925319  0.8624411977341  0.4437739930747 1.0
C      1  0.3623572049376  0.8052580773590  0.4911920567166 1.0
C      1  0.6375586031236  0.1947500245685  0.4911188930323 1.0
C      1  0.3483404554486  0.3251521403600  0.3694500819124 1.0
C      1  0.6518427517058  0.6750040533646  0.3693753477863 1.0
C      1  0.3327444914982  0.4240543511070  0.3667172858774 1.0
C      1  0.6672616289147  0.5760685552369  0.3664261109275 1.0
C      1  0.3704959237485  0.8328593332010  0.3998098827036 1.0
C      1  0.6294554512034  0.1670693654548  0.3997196747516 1.0
C      1  0.3946079024931  0.5256775599389  0.8613475191405 1.0
C      1  0.6054137562026  0.4742495422239  0.8614311575812 1.0
C      1  0.6153038466971  0.6550487302626  0.1870360001531 1.0
C      1  0.3846306833378  0.3448934180360  0.1872069729030 1.0
C      1  0.7491596954069  0.5563709893209  0.1913597052422 1.0
C      1  0.2508820925124  0.4436890800211  0.1914608137911 1.0
C      1  0.6252829563389  0.6542391169314  0.7542865130988 1.0
C      1  0.3746988359920  0.3457530949886  0.7541942208521 1.0
C      1  0.3076571138812  0.5144124073142  0.1718177632530 1.0
C      1  0.6924335033917  0.4856391228935  0.1716872333847 1.0
C      1  0.8143191999639  0.4084429084598  0.6569695384105 1.0
C      1  0.1856730441372  0.5915430703691  0.6570494678322 1.0
C      1  0.1648059950105  0.5987859106874  0.4209185210921 1.0
C      1  0.8351785725523  0.4012570110707  0.4209367377843 1.0
C      1  0.2984150828139  0.2017313623478  0.5807462982625 1.0
C      1  0.7015340951309  0.7982431054099  0.5808846567036 1.0
C      1  0.5346539101551  0.4134397339542  0.8713262951543 1.0
C      1  0.4653248986265  0.5865002964543  0.8713105032757 1.0
C      1  0.3888802305739  0.2646910262500  0.2440166176144 1.0
C      1  0.6108898533627  0.7351193045638  0.2440874529200 1.0
C      1  0.5612831577899  0.5937427329493  0.4962242672388 1.0
C      1  0.4392319787874  0.4069607455332  0.4966471287494 1.0
C      1  0.4477107806502  0.4184470133165  0.1833010554436 1.0
C      1  0.5522967875458  0.5815049982062  0.1831663114022 1.0
C      1  0.3364416247501  0.4003800184448  0.6173731904788 1.0
C      1  0.6636085558912  0.5993242266608  0.6176053763351 1.0
C      1  0.4140645675441  0.6636420934119  0.6585930790126 1.0
C      1  0.5861034377929  0.3361345573837  0.6591805522241 1.0
C      1  0.6939886585776  0.4830673590181  0.8370117977357 1.0
C      1  0.3060534546054  0.5167888676523  0.8369409386842 1.0
C      1  0.4588433259262  0.2187886848283  0.2971868641991 1.0
C      1  0.5410977546041  0.7813887076878  0.2970835924086 1.0
C      1  0.3699183218555  0.7513820297207  0.2651605756910 1.0
C      1  0.6300055551811  0.2485766629614  0.2651278043905 1.0
C      1  0.6021266472646  0.5273197005791  0.4395940608877 1.0
C      1  0.3985901611553  0.4728740160494  0.4400273631485 1.0
C      1  0.4568880981417  0.8076902595363  0.7477149770828 1.0
C      1  0.5429445169607  0.1921772816842  0.7479357143190 1.0
C      1  0.3116633133830  0.7855258943801  0.3327415752209 1.0
C      1  0.6883062228361  0.2144097324947  0.3326552261385 1.0
C      1  0.2796940605363  0.4251568943276  0.5396905231397 1.0
C      1  0.7201644474015  0.5743410987493  0.5398709727035 1.0
C      1  0.2911201082023  0.3605230581784  0.2113254641701 1.0
C      1  0.7088176413801  0.6395805264556  0.2112251272640 1.0
C      1  0.8165680069014  0.5904185647520  0.5553390984704 1.0
C      1  0.1832920458179  0.4092928899400  0.5552331759273 1.0
C      1  0.1235542642413  0.6104702822889  0.5123493330042 1.0
C      1  0.8765245784352  0.3895262971691  0.5123125129314 1.0
C      1  0.7055976633455  0.2622860410471  0.5092414076997 1.0
C      1  0.2944159897681  0.7376598372518  0.5093898146496 1.0
C      1  0.4937555380811  0.6795718101792  0.8680544767380 1.0
C      1  0.5061197040703  0.3203722991773  0.8681719731807 1.0
C      1  0.2298932372052  0.7401780240604  0.3500883428611 1.0
C      1  0.7700282820244  0.2598801666162  0.3500530302887 1.0
C      1  0.2743363824124  0.5427057189930  0.3253694361707 1.0
C      1  0.7257374538832  0.4573031032893  0.3253204258999 1.0
C      1  0.2958562330825  0.3388354589620  0.6912748085012 1.0
C      1  0.7041485674258  0.6610718426723  0.6913969137599 1.0
C      1  0.7319395766387  0.4304543690965  0.6997720878501 1.0
C      1  0.2680752667803  0.5695822217078  0.7000482387175 1.0
C      1  0.4027465151426  0.5086245411449  0.2056316033805 1.0
C      1  0.5972895452450  0.4913492311971  0.2054123023159 1.0
C      1  0.2363017662535  0.4591289264477  0.3632854754794 1.0
C      1  0.7637440268892  0.5408481204062  0.3632414302788 1.0
C      1  0.5496312053529  0.3020173884846  0.5795862484013 1.0
C      1  0.4508752712972  0.6980508103045  0.5792681714201 1.0
C      1  0.3119704345105  0.5101176140461  0.4938965455326 1.0
C      1  0.6869072347149  0.4898464920598  0.4934630981909 1.0
C      1  0.6074096369167  0.5258183805237  0.6613209714457 1.0
C      1  0.3927305332443  0.4740267825504  0.6609123321888 1.0
C      1  0.5012901737498  0.8680537001286  0.6912734518065 1.0
C      1  0.4985114347337  0.1322106055263  0.6911518687914 1.0
C      1  0.3417431181798  0.5814196735243  0.5489345924681 1.0
C      1  0.6551913901796  0.4183075554736  0.5483043644602 1.0
C      1  0.2267953585656  0.7275165127786  0.5648572762014 1.0
C      1  0.7730882542242  0.2726876485621  0.5648064381602 1.0
END
