TITL C-93515-3828-9 -7.097 3375.00 -1202.84905005 0 0 148 (C4) n - 1
REM
REM Run started: at 2020.12.24 18:30:38 in /rds/project/t2_vol4/rds-t2-cs072/BORA/CARBON/AIRSS/Generating-Clusters/Str-Search/Higher-Symm/C100-200
REM VASP from code version vasp.5.4.4.18Apr17-6-g9f103f2a35 (build Oct 11 2019 16:45:47) gamma-only
REM
REM
REM
REM
REM ./C.cell (533062f00bc710175b3da973d35f2034)
REM AIRSS Version 0.9.1 bugfix July 2018 build 013d7b7c2542+ Fri, 06 Jul 2018 19:26:36 +0100
REM compiler GCC version 4.8.5 20150623 (Red Hat 4.8.5-39)
REM options -cpp -mtune=generic -march=x86-64 -g -O0
REM seed 1266917268 -850391180 -540663491 -382204198 -19689665 -1822223057 849999571 616405687 -288291133 1391230749 1952374233 -1479048459
REM
REM C.POTCAR (d86ddea03c3ceb6dc662c8ad6801f873)
REM 
CELL 1.54180   15.00000   15.00000   15.00000   90.00000   90.00000   90.00000
LATT -1
SFAC C  
C      1  0.2247320583758  0.5423871468830  0.2557848510393 1.0
C      1  0.2247319778898  0.2557847967706  0.4576128595754 1.0
C      1  0.2247320047086  0.4576129018067  0.7442152520747 1.0
C      1  0.2247319163257  0.7442151906968  0.5423870275823 1.0
C      1  0.2247320434085  0.4576128406907  0.2557847748863 1.0
C      1  0.2247319648068  0.7442151864387  0.4576128514621 1.0
C      1  0.2247319824585  0.5423870456444  0.7442152594632 1.0
C      1  0.2247320347738  0.2557847899322  0.5423871563718 1.0
C      1  0.5880392750899  0.6093915418220  0.5460249412852 1.0
C      1  0.5880392764367  0.5460246915566  0.3906082933931 1.0
C      1  0.5880392961260  0.3906084816361  0.4539752976316 1.0
C      1  0.5880403240949  0.4539752252100  0.6093922320858 1.0
C      1  0.5880394702667  0.3906085665278  0.5460248832747 1.0
C      1  0.5880392203738  0.4539754441740  0.3906083502522 1.0
C      1  0.5880392333754  0.6093916896309  0.4539753183702 1.0
C      1  0.5880405709029  0.5460248393374  0.6093922323433 1.0
C      1  0.4900782781709  0.8084667660190  0.2588963478666 1.0
C      1  0.4900783498512  0.2588964112533  0.1915333293778 1.0
C      1  0.4900783244824  0.1915333538227  0.7411035827449 1.0
C      1  0.4900782910125  0.7411035768501  0.8084666034688 1.0
C      1  0.4900783107205  0.1915331972879  0.2588965129239 1.0
C      1  0.4900782830716  0.7411035847727  0.1915331503143 1.0
C      1  0.4900782172924  0.8084668614674  0.7411035080211 1.0
C      1  0.4900783414488  0.2588964995912  0.8084667622811 1.0
C      1  0.5775674932325  0.5774744075718  0.6989662336403 1.0
C      1  0.5775671402684  0.6989658585213  0.4225255772530 1.0
C      1  0.5775672236102  0.4225255876051  0.3010341469470 1.0
C      1  0.5775672461339  0.3010341688238  0.5774743543936 1.0
C      1  0.5775676290758  0.4225251612848  0.6989662217888 1.0
C      1  0.5775672411731  0.3010342131954  0.4225254765688 1.0
C      1  0.5775672595311  0.5774746041576  0.3010341251303 1.0
C      1  0.5775671092257  0.6989659080810  0.5774744956401 1.0
C      1  0.5044109902706  0.5556803926668  0.1637886154277 1.0
C      1  0.5044110260426  0.1637886198337  0.4443197411958 1.0
C      1  0.5044111759609  0.4443195485549  0.8362110927310 1.0
C      1  0.5044109463026  0.8362114842403  0.5556803648758 1.0
C      1  0.5044110163216  0.4443196667445  0.1637885579190 1.0
C      1  0.5044109644654  0.8362114600726  0.4443195752301 1.0
C      1  0.5044110376308  0.5556801692590  0.8362110680443 1.0
C      1  0.5044110263544  0.1637887768090  0.5556804611026 1.0
C      1  0.5780820745343  0.7025659191999  0.1730316237526 1.0
C      1  0.5780820745135  0.1730316677986  0.2974342870336 1.0
C      1  0.5780821787318  0.2974340795488  0.8269683028153 1.0
C      1  0.5780820100591  0.8269684002470  0.7025658020675 1.0
C      1  0.5780821132404  0.2974341413900  0.1730318238387 1.0
C      1  0.5780820178871  0.8269683231987  0.2974340497965 1.0
C      1  0.5780820424875  0.7025659020328  0.8269681095597 1.0
C      1  0.5780821168848  0.1730319080347  0.7025659620068 1.0
C      1  0.3419067037982  0.1576602879560  0.4508448847895 1.0
C      1  0.3419068614351  0.4508449256445  0.8423395169334 1.0
C      1  0.3419066446302  0.8423397276988  0.5491550785626 1.0
C      1  0.3419067459196  0.5491551163463  0.1576603283666 1.0
C      1  0.3419066722186  0.8423397087060  0.4508447784437 1.0
C      1  0.3419067776435  0.5491551519582  0.8423395875724 1.0
C      1  0.3419067739757  0.1576603384931  0.5491552113971 1.0
C      1  0.3419067109922  0.4508448076668  0.1576602950847 1.0
C      1  0.3308673233058  0.3065074776806  0.7634251395102 1.0
C      1  0.3308672389607  0.7634250399923  0.6934924535455 1.0
C      1  0.3308672897147  0.6934925095685  0.2365749115320 1.0
C      1  0.3308672870054  0.2365749006029  0.3065074828969 1.0
C      1  0.3308672891879  0.6934924960196  0.7634249377202 1.0
C      1  0.3308672819723  0.2365749754791  0.6934926205069 1.0
C      1  0.3308673007966  0.3065074266083  0.2365749710768 1.0
C      1  0.3308672916425  0.7634250251837  0.3065074121912 1.0
C      1  0.4185032600746  0.5998934378794  0.1375036673935 1.0
C      1  0.4185032652481  0.1375036585205  0.4001066436966 1.0
C      1  0.4185033878009  0.4001066186501  0.8624960261374 1.0
C      1  0.4185031565283  0.8624964080327  0.5998933980689 1.0
C      1  0.4185032692820  0.4001065353953  0.1375037221155 1.0
C      1  0.4185032167247  0.8624963336864  0.4001064983889 1.0
C      1  0.4185033612666  0.5998933734893  0.8624960703374 1.0
C      1  0.4185033101350  0.1375037881651  0.5998934990350 1.0
C      1  0.2865030948044  0.7800992509252  0.3962826071320 1.0
C      1  0.2865031339316  0.3962826240660  0.2199007134573 1.0
C      1  0.2865031244844  0.2199007378970  0.6037173744285 1.0
C      1  0.2865030795715  0.6037173551422  0.7800992537064 1.0
C      1  0.2865031109829  0.2199007079606  0.3962826830105 1.0
C      1  0.2865031641679  0.6037172807503  0.2199007502747 1.0
C      1  0.2865030750097  0.7800992366567  0.6037172259445 1.0
C      1  0.2865032004760  0.3962827127374  0.7800993037839 1.0
C      1  0.4107237418241  0.8206038788160  0.6885110967445 1.0
C      1  0.4107238229289  0.6885111611635  0.1793961421489 1.0
C      1  0.4107238296476  0.1793961507679  0.3114888936626 1.0
C      1  0.4107238830600  0.3114888440501  0.8206038222040 1.0
C      1  0.4107238592924  0.1793962732181  0.6885112032019 1.0
C      1  0.4107238812802  0.3114888282924  0.1793962627757 1.0
C      1  0.4107238099279  0.8206038087573  0.3114887828838 1.0
C      1  0.4107238949695  0.6885110695926  0.8206036269940 1.0
C      1  0.7607641871067  0.5494547192449  0.3817197053207 1.0
C      1  0.7607642980250  0.3817197041722  0.4505452867870 1.0
C      1  0.7607644037221  0.4505453668634  0.6182802932322 1.0
C      1  0.7607642722668  0.6182804289226  0.5494547248968 1.0
C      1  0.7607642309776  0.4505453321180  0.3817196560992 1.0
C      1  0.7607640963134  0.6182803761482  0.4505453690472 1.0
C      1  0.7607642555036  0.5494547803806  0.6182803460953 1.0
C      1  0.7607642788571  0.3817197685828  0.5494546572367 1.0
C      1  0.5940156483185  0.8380175609905  0.3870811099144 1.0
C      1  0.5940157174505  0.3870812167588  0.1619825043182 1.0
C      1  0.5940157100555  0.1619827095336  0.6129188944283 1.0
C      1  0.5940156353120  0.6129188158020  0.8380172491779 1.0
C      1  0.5940157572049  0.1619824977492  0.3870813379287 1.0
C      1  0.5940156791292  0.6129188193803  0.1619824951629 1.0
C      1  0.5940156559929  0.8380175820522  0.6129187361744 1.0
C      1  0.5940159077527  0.3870811698759  0.8380175378210 1.0
C      1  0.7406387711622  0.7188801929764  0.5537853042104 1.0
C      1  0.7406388816389  0.5537852928350  0.2811199367724 1.0
C      1  0.7406388888448  0.2811199977116  0.4462147629412 1.0
C      1  0.7406393056131  0.4462147866068  0.7188801993074 1.0
C      1  0.7406389391801  0.2811200353548  0.5537852617123 1.0
C      1  0.7406388963351  0.4462148017374  0.2811199173734 1.0
C      1  0.7406388700405  0.7188801491642  0.4462146818528 1.0
C      1  0.7406390195957  0.5537853933574  0.7188801273440 1.0
C      1  0.4176693402938  0.5466236071652  0.6899585030009 1.0
C      1  0.4176688282060  0.6899578837014  0.4533757733199 1.0
C      1  0.4176693497307  0.4533761698461  0.3100414230859 1.0
C      1  0.4176692249607  0.3100414858938  0.5466237322537 1.0
C      1  0.4176695853992  0.4533753986733  0.6899574368950 1.0
C      1  0.4176692951781  0.3100413981930  0.4533758398201 1.0
C      1  0.4176690078324  0.5466246560615  0.3100421053552 1.0
C      1  0.4176689330947  0.6899579109988  0.5466247270258 1.0
C      1  0.3617416518631  0.3886901963442  0.4515649180368 1.0
C      1  0.3617416856698  0.4515649871228  0.6113095566978 1.0
C      1  0.3617419739912  0.6113095887202  0.5484348632144 1.0
C      1  0.3617417927697  0.5484347156161  0.3886904654248 1.0
C      1  0.3617418705687  0.6113095452225  0.4515655540143 1.0
C      1  0.3617417796057  0.5484344297609  0.6113097868576 1.0
C      1  0.3617415337727  0.3886900154078  0.5484343981164 1.0
C      1  0.3617417494071  0.4515651587004  0.3886902660520 1.0
C      1  0.6479743728330  0.4451991088850  0.2336369756302 1.0
C      1  0.6479744436381  0.2336370422075  0.5548009165659 1.0
C      1  0.6479745714114  0.5548009980007  0.7663631707980 1.0
C      1  0.6479743034402  0.7663630664757  0.4451989990691 1.0
C      1  0.6479743813725  0.5548009843568  0.2336369644801 1.0
C      1  0.6479741979128  0.7663629884953  0.5548009147807 1.0
C      1  0.6479746386121  0.4451991607564  0.7663632756280 1.0
C      1  0.6479743575921  0.2336371044242  0.4451990575628 1.0
C      1  0.4948855950556  0.5797945359890  0.7337109847701 1.0
C      1  0.4948853768595  0.7337111849623  0.4202051631750 1.0
C      1  0.4948854130367  0.4202051582765  0.2662887421577 1.0
C      1  0.4948853703844  0.2662889654322  0.5797949292787 1.0
C      1  0.4948857673253  0.4202047116146  0.7337108843318 1.0
C      1  0.4948854991733  0.2662887540201  0.4202050263288 1.0
C      1  0.4948853693656  0.5797949744777  0.2662888376294 1.0
C      1  0.4948853791280  0.7337112222066  0.5797949757563 1.0
C      1  0.8204251182615  0.2514083701778  0.4999999717299 1.0
C      1  0.8204251553575  0.5000000158626  0.2514084256533 1.0
C      1  0.8204252740864  0.5000002636816  0.7485919060093 1.0
C      1  0.8204249803917  0.7485917550393  0.5000001098348 1.0
END
