TITL C-94195-8612-2 -7.477 3375.00 -1253.14457418 0 0 154 (C1) n - 1
REM
REM Run started: at 2020.11.28 09:41:37 in /rds/project/t2_vol4/rds-t2-cs072/BORA/CARBON/AIRSS/Generating-Clusters/Str-Search/Higher-Symm
REM VASP from code version vasp.5.4.4.18Apr17-6-g9f103f2a35 (build Oct 11 2019 16:45:47) gamma-only
REM
REM
REM
REM
REM ./C.cell (e5ae0387ce4d49c7c0135a1433873289)
REM AIRSS Version 0.9.1 bugfix July 2018 build 013d7b7c2542+ Fri, 06 Jul 2018 19:26:36 +0100
REM compiler GCC version 4.8.5 20150623 (Red Hat 4.8.5-39)
REM options -cpp -mtune=generic -march=x86-64 -g -O0
REM seed -797372638 769319983 1178627222 922480454 852727058 -16955595 -792320396 1174001444 -1331819299 -172012075 -1354125800 167785859
REM
REM C.POTCAR (d86ddea03c3ceb6dc662c8ad6801f873)
REM 
CELL 1.54180   15.00000   15.00000   15.00000   90.00000   90.00000   90.00000
LATT -1
SFAC C  
C      1  0.2775389238545  0.1479801384207  0.5204995787031 1.0
C      1  0.3192809117403  0.4571125286193  0.7884465021430 1.0
C      1  0.2699045938869  0.8217328726741  0.6361472297970 1.0
C      1  0.2878478245243  0.7581883676548  0.2519076863406 1.0
C      1  0.2756467902281  0.3733867256427  0.2153842244229 1.0
C      1  0.7101657904007  0.1252302088035  0.4718130889741 1.0
C      1  0.6860847352888  0.4421490443790  0.1884092612675 1.0
C      1  0.6947447321785  0.8166198313891  0.3630424630009 1.0
C      1  0.7202471657250  0.7575691618756  0.7418016650848 1.0
C      1  0.7685430382033  0.3610798163720  0.7984947064875 1.0
C      1  0.4158807327473  0.5362313400174  0.5772272448497 1.0
C      1  0.4125533030897  0.5714992102122  0.4906124557954 1.0
C      1  0.4462387255217  0.4992796553887  0.4301242979153 1.0
C      1  0.4215439032969  0.4091171013096  0.4761526039049 1.0
C      1  0.4315868028763  0.4390404315511  0.5732262873724 1.0
C      1  0.5490716366035  0.5279254521890  0.4370822771325 1.0
C      1  0.5763702350093  0.5628145573559  0.5329355715566 1.0
C      1  0.6046967275340  0.4916289743337  0.5832890022946 1.0
C      1  0.6207560212262  0.4069719510271  0.5339760614250 1.0
C      1  0.6106040405339  0.4449258185828  0.4290903974060 1.0
C      1  0.8673859260089  0.3607548392831  0.5693580208155 1.0
C      1  0.8728606834908  0.5688413167003  0.6574561503344 1.0
C      1  0.8430203246794  0.6558999270363  0.4767193849091 1.0
C      1  0.8334250501975  0.5399542743904  0.3707815629150 1.0
C      1  0.8618480765006  0.3068223034576  0.3762268129177 1.0
C      1  0.1113609699133  0.3307064949487  0.3809563687683 1.0
C      1  0.1303302647914  0.5694138429428  0.3180272059729 1.0
C      1  0.1393651765205  0.6574804476689  0.5042338891743 1.0
C      1  0.1238006945156  0.5405875578332  0.6082590556113 1.0
C      1  0.0801787536183  0.2974761509741  0.5797538464635 1.0
C      1  0.8742693458916  0.3982075542463  0.6621334728890 1.0
C      1  0.8180763019979  0.6515944412200  0.6386622220992 1.0
C      1  0.7926125132069  0.6854055051561  0.3965634189489 1.0
C      1  0.7952696479414  0.4559478912866  0.3333989577576 1.0
C      1  0.8171844614392  0.2652840605909  0.4556859872362 1.0
C      1  0.1433855604411  0.3964701414917  0.3244133036221 1.0
C      1  0.1936337698040  0.6437411116488  0.3486895747713 1.0
C      1  0.1777286205002  0.6849254945151  0.5933381857904 1.0
C      1  0.1213360241950  0.4491110323994  0.6398638947471 1.0
C      1  0.1335670833024  0.2426029433504  0.5246196775577 1.0
C      1  0.2923453842011  0.8391940464786  0.4451034409028 1.0
C      1  0.3752382568407  0.6051237011418  0.1788169735086 1.0
C      1  0.3557093191416  0.2749615584353  0.3385449661306 1.0
C      1  0.3262081297551  0.2384479837891  0.6947660533395 1.0
C      1  0.2712500861226  0.6492968698767  0.7915661462373 1.0
C      1  0.6922352780289  0.8353211527399  0.5588079725146 1.0
C      1  0.6684556802632  0.6015526027883  0.8367764228165 1.0
C      1  0.6727232118298  0.2578312136059  0.6834919192233 1.0
C      1  0.6359271949832  0.2014527411799  0.2958006980801 1.0
C      1  0.6751985808145  0.6353201901860  0.2037036079235 1.0
C      1  0.3909193275179  0.2736716194671  0.7337978520243 1.0
C      1  0.3357781405566  0.7003885993205  0.7823051452403 1.0
C      1  0.3633852301081  0.8609104928803  0.4096087707240 1.0
C      1  0.4097158152187  0.5346970430270  0.1498368439038 1.0
C      1  0.3934668403643  0.2011645187588  0.3498590976017 1.0
C      1  0.5962924241906  0.2485410883118  0.2390897808331 1.0
C      1  0.6151964667066  0.6912208525664  0.2145648179042 1.0
C      1  0.6234528220543  0.8519431226438  0.6009693848094 1.0
C      1  0.6393234695380  0.5278983819454  0.8636851254366 1.0
C      1  0.6306553724409  0.1879107534125  0.6659730061075 1.0
C      1  0.4935965637860  0.3344640720933  0.4606950251726 1.0
C      1  0.4883660744047  0.3830315941668  0.6190023046384 1.0
C      1  0.4071775969806  0.5998895003657  0.6516388386197 1.0
C      1  0.3937185017972  0.6653000096800  0.4626336940547 1.0
C      1  0.4091749685863  0.4976970047548  0.3376587780455 1.0
C      1  0.5449593052625  0.3348280496481  0.5497531529209 1.0
C      1  0.5647961964612  0.3628686362177  0.3896377864485 1.0
C      1  0.5622932493603  0.5990389204901  0.3674506344227 1.0
C      1  0.5907977472635  0.6604385115156  0.5579802282553 1.0
C      1  0.6308361099851  0.4913680703251  0.6777878958361 1.0
C      1  0.6575336688233  0.6074906051290  0.3568712062741 1.0
C      1  0.6776324571615  0.3318745908691  0.3874339815046 1.0
C      1  0.7090528774126  0.3644608491081  0.5621312536401 1.0
C      1  0.7091932660419  0.5411880361601  0.6885866323907 1.0
C      1  0.6661697523336  0.6881466149611  0.5077015482942 1.0
C      1  0.3092994047662  0.6060962455297  0.6509064474142 1.0
C      1  0.2416728935807  0.3474430651301  0.6317855093056 1.0
C      1  0.3211649217090  0.3837190758580  0.4566625602009 1.0
C      1  0.3261302422628  0.5482808590932  0.3259624915924 1.0
C      1  0.3151681840224  0.6931719574899  0.5053041216157 1.0
C      1  0.2355622722572  0.3711918255663  0.2980941713825 1.0
C      1  0.2160928204133  0.2022317463396  0.5637762648787 1.0
C      1  0.2465390653960  0.4871265064860  0.7396125222804 1.0
C      1  0.2109741691787  0.7801604722811  0.5809031453581 1.0
C      1  0.2505126363284  0.6761554683756  0.2703086439433 1.0
C      1  0.7994152729749  0.3579539828031  0.7109749585469 1.0
C      1  0.7521476513464  0.1914381501304  0.4231600989663 1.0
C      1  0.7201097677565  0.4812210949586  0.2697243789503 1.0
C      1  0.7589432240337  0.7782337063819  0.4145660470056 1.0
C      1  0.7676282178095  0.6810289360945  0.7223287482291 1.0
C      1  0.5264753005324  0.3816659077420  0.2954518447573 1.0
C      1  0.5433586850358  0.2306170332679  0.5425615020784 1.0
C      1  0.5822471076933  0.4413212592292  0.7438368260084 1.0
C      1  0.5416680552721  0.7068815984946  0.6301840863197 1.0
C      1  0.5141845841531  0.6759749792297  0.3450545652440 1.0
C      1  0.5123925954693  0.3871821779606  0.7150223980021 1.0
C      1  0.4799875759759  0.2332415163329  0.4769360643297 1.0
C      1  0.4581694458008  0.4456128871112  0.2746229180216 1.0
C      1  0.4356727374041  0.7106431104260  0.3869289327002 1.0
C      1  0.4569308027966  0.6788098750499  0.6688111201180 1.0
C      1  0.2529064515543  0.5681198720812  0.3871057273600 1.0
C      1  0.2557240338907  0.4479447732490  0.4912960419655 1.0
C      1  0.2639492479583  0.3776190399431  0.5458833426708 1.0
C      1  0.2021214546443  0.4241181127528  0.6861074620074 1.0
C      1  0.2767006216966  0.6518813387594  0.5805788974307 1.0
C      1  0.7741094121551  0.5580925719308  0.6157933594086 1.0
C      1  0.7871784087279  0.4131028355139  0.5262038860331 1.0
C      1  0.7422605642927  0.3352237312971  0.4715088269175 1.0
C      1  0.6933749517333  0.4319085457375  0.3592044780303 1.0
C      1  0.6961330212536  0.6482500694896  0.4260349043587 1.0
C      1  0.1208559169731  0.2678533961736  0.4360446344323 1.0
C      1  0.0756940030360  0.3769335509370  0.6053606093557 1.0
C      1  0.1549884929168  0.6116960467092  0.6612219821790 1.0
C      1  0.1735423371491  0.7038874699933  0.4327792836043 1.0
C      1  0.1177913777983  0.4869933114410  0.3112400228829 1.0
C      1  0.8773807679230  0.2778721035527  0.5358264526518 1.0
C      1  0.8469362067673  0.3754162895925  0.3340893640467 1.0
C      1  0.8047659811354  0.6145114692566  0.3246191801856 1.0
C      1  0.8200708403648  0.7041353478815  0.5518262814702 1.0
C      1  0.8940639347173  0.4869445581866  0.6753963007538 1.0
C      1  0.7277523940837  0.3244098809215  0.6542440217548 1.0
C      1  0.7197099653397  0.6063582729461  0.7570440789794 1.0
C      1  0.7409099578028  0.7643500513916  0.5162072491509 1.0
C      1  0.7178443905636  0.5852573510445  0.2782363037642 1.0
C      1  0.6945910921104  0.2343202077787  0.3607716536738 1.0
C      1  0.3002513850112  0.3424173601334  0.3650564528998 1.0
C      1  0.3156991641575  0.6092415403997  0.2523243872817 1.0
C      1  0.2428361189196  0.7658352373000  0.4819829998369 1.0
C      1  0.2338218676225  0.5867235218630  0.7230279617963 1.0
C      1  0.2513433134267  0.2504797401253  0.6398708883244 1.0
C      1  0.3614809764155  0.7986712655472  0.2642724833082 1.0
C      1  0.3445818215796  0.3932610443767  0.1716465644436 1.0
C      1  0.3504877863369  0.1277350833390  0.4850602237823 1.0
C      1  0.3837029425080  0.4081867957565  0.8057405443885 1.0
C      1  0.3440786265549  0.8064714137509  0.6747919636006 1.0
C      1  0.6407837056644  0.7875411120157  0.7406805877386 1.0
C      1  0.7004732657077  0.3870101711145  0.8400033245637 1.0
C      1  0.6517389313750  0.1060185545542  0.5290572185705 1.0
C      1  0.6238935335584  0.3910432124522  0.1684422176447 1.0
C      1  0.6223532430247  0.8007681399957  0.3227624088705 1.0
C      1  0.5687231874562  0.3347319727936  0.2209630822010 1.0
C      1  0.5984551208180  0.1613113640434  0.5827430418964 1.0
C      1  0.6255847363023  0.4405625119225  0.8355338945815 1.0
C      1  0.5879486767765  0.7882348848246  0.6637876663845 1.0
C      1  0.5694847445214  0.7355343863451  0.2844653214646 1.0
C      1  0.4414928484728  0.3454196021021  0.7664461725362 1.0
C      1  0.4162041266485  0.1728636325816  0.4364675248222 1.0
C      1  0.4178107117522  0.4478580969522  0.1818754656952 1.0
C      1  0.3999458933721  0.7945275136428  0.3501974340250 1.0
C      1  0.3937269452654  0.7423361058651  0.7188613565617 1.0
C      1  0.2118976165387  0.5241526064489  0.4633058151211 1.0
C      1  0.7958003796352  0.5118765116414  0.5299770507711 1.0
C      1  0.1380828683283  0.5621918611971  0.5122282377594 1.0
C      1  0.8447903519302  0.5597102040140  0.4663115118578 1.0
END
