TITL C-94775-454-8 -5.917 3375.00 -1052.51014838 0 0 131 (C1) n - 1
REM
REM Run started: at 2020.12.19 20:27:15 in /rds/project/t2_vol4/rds-t2-cs072/BORA/CARBON/AIRSS/Generating-Clusters/Str-Search/Higher-Symm/C100-200
REM VASP from code version vasp.5.4.4.18Apr17-6-g9f103f2a35 (build Oct 11 2019 16:45:47) gamma-only
REM
REM
REM
REM
REM ./C.cell (533062f00bc710175b3da973d35f2034)
REM AIRSS Version 0.9.1 bugfix July 2018 build 013d7b7c2542+ Fri, 06 Jul 2018 19:26:36 +0100
REM compiler GCC version 4.8.5 20150623 (Red Hat 4.8.5-39)
REM options -cpp -mtune=generic -march=x86-64 -g -O0
REM seed -1505582279 2100569949 -1350823841 205818784 429801390 -1488432796 1212095870 -1879379803 -1962599929 -1534585843 471426266 -186301517
REM
REM C.POTCAR (d86ddea03c3ceb6dc662c8ad6801f873)
REM 
CELL 1.54180   15.00000   15.00000   15.00000   90.00000   90.00000   90.00000
LATT -1
SFAC C  
C      1  0.2634311013492  0.7098761170548  0.6216263165055 1.0
C      1  0.6696253791285  0.7568676369141  0.6587647749084 1.0
C      1  0.8079961269266  0.4637110679140  0.6616608521400 1.0
C      1  0.5482570242543  0.1954664990013  0.6406906318242 1.0
C      1  0.2482806031307  0.3584125122919  0.6429710716841 1.0
C      1  0.7466974828159  0.6961987675296  0.6646950109946 1.0
C      1  0.3343861763766  0.7712460932127  0.6231837316065 1.0
C      1  0.2150142490022  0.4512403706066  0.6385646870283 1.0
C      1  0.4536939920118  0.2007335241686  0.6433062765903 1.0
C      1  0.7686080683857  0.3712718347353  0.6557477050905 1.0
C      1  0.3482980871461  0.5024509790588  0.8399518804827 1.0
C      1  0.4548138410157  0.6467626766961  0.8323540435935 1.0
C      1  0.6301093753193  0.5842124024973  0.8567111897521 1.0
C      1  0.6269047133346  0.4046348825897  0.8537252195443 1.0
C      1  0.4536312103666  0.3563175873313  0.8466272354132 1.0
C      1  0.6597507073442  0.4969535891560  0.8570344588113 1.0
C      1  0.5465554898559  0.6401519470650  0.8411839781337 1.0
C      1  0.3752493374357  0.5886611438660  0.8358607769546 1.0
C      1  0.3802777288139  0.4094012465241  0.8438765154271 1.0
C      1  0.5524520349190  0.3542466333559  0.8490489165561 1.0
C      1  0.3205895815031  0.6135321807247  0.5213362527697 1.0
C      1  0.5597783132526  0.7188762867214  0.5475797273174 1.0
C      1  0.7126598689553  0.5186539722086  0.5500135557076 1.0
C      1  0.5905176831135  0.2984646368975  0.5313602595582 1.0
C      1  0.3576440563687  0.3716224325491  0.5279680250922 1.0
C      1  0.6798088320165  0.6130926547714  0.5460024873400 1.0
C      1  0.4538095610029  0.7171727480698  0.5355470264661 1.0
C      1  0.3044118175932  0.5141724493912  0.5178424118284 1.0
C      1  0.4327752599279  0.3090511079821  0.5332542171692 1.0
C      1  0.6739204448506  0.3635700304801  0.5265266622917 1.0
C      1  0.1390833497386  0.4918107027112  0.4124048730301 1.0
C      1  0.5098114372319  0.8344764416483  0.4307521986509 1.0
C      1  0.7436137360353  0.6448955496191  0.4111032589324 1.0
C      1  0.6397606955336  0.2606796922294  0.3537634921810 1.0
C      1  0.3426808731959  0.2058859713162  0.4177928108753 1.0
C      1  0.8110865201184  0.5813611988845  0.4316811380644 1.0
C      1  0.5825919140383  0.7799354083351  0.4212225692828 1.0
C      1  0.1448062448609  0.5761179848979  0.4329318540648 1.0
C      1  0.2740310511359  0.2579209823675  0.4187456466008 1.0
C      1  0.5865282091793  0.1972200448712  0.3736769740541 1.0
C      1  0.5504203393087  0.2050848763275  0.5331282927393 1.0
C      1  0.2636030921214  0.3570183908943  0.5438012604920 1.0
C      1  0.2392419583043  0.6719899455907  0.5313052357236 1.0
C      1  0.6489683977546  0.7673259016428  0.5622667074254 1.0
C      1  0.8005556226409  0.4725391787592  0.5575186535669 1.0
C      1  0.4478460496386  0.2136929626439  0.5416697119836 1.0
C      1  0.7654538396727  0.3738930666340  0.5616651006775 1.0
C      1  0.7311721252610  0.6931702935425  0.5646180964603 1.0
C      1  0.3910231494777  0.7938906877705  0.5360052147406 1.0
C      1  0.2264051129077  0.4522312354405  0.5374587426625 1.0
C      1  0.5191073302663  0.3513489349081  0.2403929926432 1.0
C      1  0.3492534156272  0.4168650602316  0.2187069346734 1.0
C      1  0.3600214838443  0.5986846615401  0.2183924757547 1.0
C      1  0.5357566274858  0.6451009903625  0.2399030716721 1.0
C      1  0.6379644937372  0.4950443900402  0.2532717991774 1.0
C      1  0.4279594430721  0.3568852718737  0.2286422804704 1.0
C      1  0.6124995523454  0.3984568290981  0.2657068292415 1.0
C      1  0.6088842730946  0.5874560652823  0.2481043747742 1.0
C      1  0.4376310563618  0.6490753491520  0.2271125571132 1.0
C      1  0.3246990867534  0.5063261786928  0.2145818335260 1.0
C      1  0.6556597733666  0.4926927524435  0.0856912479251 1.0
C      1  0.5412027964538  0.3515290220964  0.0720754010669 1.0
C      1  0.3712014336912  0.4163872841609  0.0492668733684 1.0
C      1  0.3808592190087  0.5986637910813  0.0492882826417 1.0
C      1  0.5563937779236  0.6453277679677  0.0711265012033 1.0
C      1  0.3462639679555  0.5055286153210  0.0460529549307 1.0
C      1  0.4494669279362  0.3556029862532  0.0601315208625 1.0
C      1  0.6229447449612  0.4056688486167  0.0850361819335 1.0
C      1  0.6296257770903  0.5881586312088  0.0814607824747 1.0
C      1  0.4586020595018  0.6493788146121  0.0594280245375 1.0
C      1  0.4029944575848  0.3154760959749  0.1395891130389 1.0
C      1  0.2855498903090  0.5276335336544  0.1237475603172 1.0
C      1  0.4529965664319  0.7043612204188  0.1438200481849 1.0
C      1  0.6748000065601  0.6053940728506  0.1702787959115 1.0
C      1  0.6410168171652  0.3574912561323  0.1721143045443 1.0
C      1  0.5621635680001  0.3103490987527  0.1621222827142 1.0
C      1  0.6935639588032  0.5127948952003  0.1753460645861 1.0
C      1  0.5454411502815  0.6997281421229  0.1558014972665 1.0
C      1  0.3194555349391  0.6143623398246  0.1271373227421 1.0
C      1  0.3298076717894  0.3720830486501  0.1306096607866 1.0
C      1  0.7496820640168  0.6258333882614  0.7320332185822 1.0
C      1  0.7025941799201  0.3288419265074  0.7158217197884 1.0
C      1  0.4087834594220  0.2804577265331  0.6942011183937 1.0
C      1  0.2417065505862  0.5202429133856  0.7009776414104 1.0
C      1  0.4088904571567  0.7434670654154  0.6844346504024 1.0
C      1  0.2852709521147  0.6210249384711  0.6864294903258 1.0
C      1  0.3112923791584  0.3262282089769  0.7069772227890 1.0
C      1  0.6033929362547  0.2790509249087  0.6956444957662 1.0
C      1  0.7751197478248  0.5255939963905  0.7284009223643 1.0
C      1  0.5896987486452  0.7229268254917  0.7001086473388 1.0
C      1  0.6044505016491  0.6943996692481  0.7859321581450 1.0
C      1  0.7337498669867  0.4740392072927  0.7985047017483 1.0
C      1  0.5506576083632  0.2840662166102  0.7797202392413 1.0
C      1  0.3094078257977  0.3853529449760  0.7798434219270 1.0
C      1  0.3274780733018  0.6477986114438  0.7732252463995 1.0
C      1  0.3993929791599  0.7085342096479  0.7723732837759 1.0
C      1  0.2770938551658  0.4761278643455  0.7770268559542 1.0
C      1  0.4578837155056  0.2854256629493  0.7787858241023 1.0
C      1  0.7000412558731  0.3825746838357  0.7914564744952 1.0
C      1  0.6851490148171  0.6445960434704  0.8023289120789 1.0
C      1  0.4694800231908  0.3589640985090  0.4527098324387 1.0
C      1  0.3672913155696  0.5041022897385  0.4402929451914 1.0
C      1  0.4666043425095  0.6543496656051  0.4581081746662 1.0
C      1  0.6504681920374  0.6093889592818  0.4454610391109 1.0
C      1  0.6434530221899  0.4056298574765  0.4365948553587 1.0
C      1  0.5576551340942  0.3577957674198  0.4576529686657 1.0
C      1  0.6448926525936  0.5056408856626  0.4682192223679 1.0
C      1  0.5655388552310  0.6758941297852  0.4501525956762 1.0
C      1  0.3942045188272  0.5986565146061  0.4491698643686 1.0
C      1  0.3945830012172  0.4169621796773  0.4441356890112 1.0
C      1  0.4026063546525  0.4252739399736  0.6032757194746 1.0
C      1  0.3682596594664  0.6024790961188  0.6158150396419 1.0
C      1  0.5445822665499  0.6617133820331  0.6324899801821 1.0
C      1  0.6498138492767  0.5003740653928  0.6271155500826 1.0
C      1  0.5590450041761  0.3419080852946  0.6240675237351 1.0
C      1  0.6077294308990  0.4210810028339  0.5946933585506 1.0
C      1  0.6000792194926  0.5828619403087  0.6039388581950 1.0
C      1  0.4438087808458  0.6695646308933  0.6254805491774 1.0
C      1  0.3727000728071  0.5071115693488  0.5970330675464 1.0
C      1  0.4600780391420  0.3484133653963  0.6254292791937 1.0
C      1  0.7439553374152  0.7285336046220  0.4611125049424 1.0
C      1  0.6491221854078  0.3523522570165  0.3488998412472 1.0
C      1  0.4254537040980  0.1758482735932  0.4501467966219 1.0
C      1  0.1781109545529  0.4183729014097  0.4516655429533 1.0
C      1  0.4342402719688  0.8440025465925  0.4719176231584 1.0
C      1  0.1696963716345  0.6443907389083  0.4810957505308 1.0
C      1  0.2223113596080  0.3277961809554  0.4552496052773 1.0
C      1  0.5266014190223  0.1676103095836  0.4368238340041 1.0
C      1  0.8429561501257  0.5215123516768  0.4804821431845 1.0
C      1  0.6737082046899  0.7889880615737  0.4669154322263 1.0
C      1  0.5729166069750  0.5032276445350  0.5440378673171 1.0
END
