TITL C-94237-86-2 -7.478 3375.00 -1275.10272523 0 0 156 (C1) n - 1
REM
REM Run started: at 2020.12.23 07:14:22 in /rds/project/t2_vol4/rds-t2-cs072/BORA/CARBON/AIRSS/Generating-Clusters/Str-Search/Higher-Symm/C100-200
REM VASP from code version vasp.5.4.4.18Apr17-6-g9f103f2a35 (build Oct 11 2019 16:45:47) gamma-only
REM
REM
REM
REM
REM ./C.cell (533062f00bc710175b3da973d35f2034)
REM AIRSS Version 0.9.1 bugfix July 2018 build 013d7b7c2542+ Fri, 06 Jul 2018 19:26:36 +0100
REM compiler GCC version 4.8.5 20150623 (Red Hat 4.8.5-39)
REM options -cpp -mtune=generic -march=x86-64 -g -O0
REM seed -1950591397 -1862319809 18186335 -1177011541 392543729 1494174676 1293318467 -289471809 -665398071 -304084607 -1970433510 -512461790
REM
REM C.POTCAR (d86ddea03c3ceb6dc662c8ad6801f873)
REM 
CELL 1.54180   15.00000   15.00000   15.00000   90.00000   90.00000   90.00000
LATT -1
SFAC C  
C      1  0.4801060068558  0.9466769802582  0.6181651068603 1.0
C      1  0.4694199110812  0.1708335779611  0.8086835005040 1.0
C      1  0.4912350695591  0.4082551041383  0.0743644733250 1.0
C      1  0.6227633435615  0.6695827645537  0.5472741951692 1.0
C      1  0.6277303805598  0.3668769530052  0.6272596313539 1.0
C      1  0.6411355008505  0.4439338962108  0.3643072520902 1.0
C      1  0.6305909684341  0.5828865891572  0.7701316532506 1.0
C      1  0.6179845897030  0.2084692259503  0.4407431763791 1.0
C      1  0.6242127277412  0.6929238305317  0.2997639535561 1.0
C      1  0.5677829012453  0.8401563660835  0.5018928610821 1.0
C      1  0.5791491090766  0.3297884112093  0.8026323794413 1.0
C      1  0.5929726304078  0.3412023711894  0.2174192957045 1.0
C      1  0.4315969504168  0.5173541292275  0.6849487277256 1.0
C      1  0.4271454100024  0.3286028872573  0.4354801223165 1.0
C      1  0.4257748253131  0.6398046372960  0.3939097538643 1.0
C      1  0.2719498989192  0.6786982684604  0.7319392471827 1.0
C      1  0.2641492251991  0.2088932958218  0.5345472429931 1.0
C      1  0.2670357909400  0.6165528435685  0.2330380714158 1.0
C      1  0.5002111727305  0.6703971535292  0.6917385272386 1.0
C      1  0.4928456701118  0.2388253379694  0.5625299917146 1.0
C      1  0.4979288652415  0.5769770182399  0.2549839646483 1.0
C      1  0.2732770752814  0.2620912235352  0.3911947534397 1.0
C      1  0.2693494787735  0.7163483093585  0.3488281357759 1.0
C      1  0.2762285088858  0.5270056625521  0.7615232415680 1.0
C      1  0.6727978979464  0.3022306112258  0.6784295602072 1.0
C      1  0.6827738927832  0.4640211958944  0.2738748385025 1.0
C      1  0.6665803502524  0.7456857258724  0.5790825670800 1.0
C      1  0.5297604404939  0.4697568544833  0.4625082778599 1.0
C      1  0.5318422475901  0.5514876420418  0.5074069951608 1.0
C      1  0.5315360786837  0.4700723679619  0.5539318973248 1.0
C      1  0.1737603549885  0.4456426831506  0.5028804773774 1.0
C      1  0.1733547915767  0.5273103414152  0.4507454643759 1.0
C      1  0.1750205587798  0.5317298942428  0.5473957413148 1.0
C      1  0.4350606329240  0.2470981890215  0.7678598335548 1.0
C      1  0.4491164845227  0.4025953619004  0.1569718166943 1.0
C      1  0.4266238396332  0.8804330510279  0.5757653529440 1.0
C      1  0.7896695357300  0.3736654984174  0.5337489190129 1.0
C      1  0.7649712349617  0.5150168733996  0.2880536776361 1.0
C      1  0.7855616472093  0.6020583508320  0.5540143484008 1.0
C      1  0.5656113406045  0.4391645107218  0.0529940344333 1.0
C      1  0.5429309565310  0.9309314051576  0.6707470490930 1.0
C      1  0.5417344434317  0.1321871069618  0.7938819750855 1.0
C      1  0.2938667093099  0.2129017044630  0.6901237774699 1.0
C      1  0.3023319116857  0.4802279354582  0.1602114755515 1.0
C      1  0.2854373039918  0.8205735010630  0.6511910572717 1.0
C      1  0.5244742584560  0.3151713171359  0.4153546477328 1.0
C      1  0.5237172894472  0.6629352383285  0.3948782794232 1.0
C      1  0.5293840820462  0.5065662613137  0.7037169596703 1.0
C      1  0.2909322962614  0.7196418726242  0.4447391314370 1.0
C      1  0.2946692489366  0.4385333755100  0.7200393393920 1.0
C      1  0.2966979024026  0.3431250050413  0.3394682114486 1.0
C      1  0.6848077191899  0.1714611909862  0.5882444365089 1.0
C      1  0.6868518815374  0.6270512467672  0.1622453865516 1.0
C      1  0.6920714395561  0.7320480005775  0.7324816697385 1.0
C      1  0.3388368305227  0.7382311431852  0.2828448033203 1.0
C      1  0.3453765026355  0.5758696309839  0.8144818917280 1.0
C      1  0.3411970741592  0.1912329896534  0.4071388602945 1.0
C      1  0.7529092562771  0.4858789585637  0.7785179197394 1.0
C      1  0.7524737032273  0.2334178731566  0.3518818914614 1.0
C      1  0.7476965966493  0.7538868339987  0.3782223081742 1.0
C      1  0.7402620405326  0.7339540767229  0.6436846920170 1.0
C      1  0.7390475911743  0.2487013241654  0.6266965307210 1.0
C      1  0.7670587193851  0.5775146467103  0.1667494246925 1.0
C      1  0.7311197107379  0.5656222980692  0.7311810565251 1.0
C      1  0.7210963325172  0.2375642844571  0.4416097293456 1.0
C      1  0.7284728665950  0.6774509014946  0.3248325223190 1.0
C      1  0.7169182829235  0.2523829439370  0.2797918374576 1.0
C      1  0.7047623499523  0.8162077459039  0.4123027162502 1.0
C      1  0.7165771496089  0.4229483976764  0.8187506315700 1.0
C      1  0.4437225756852  0.7053414578330  0.7749948657512 1.0
C      1  0.4386502624996  0.1538997990291  0.5435501701494 1.0
C      1  0.4412674463392  0.6397301864213  0.1912593604968 1.0
C      1  0.5726360654037  0.5006242307106  0.8041854434758 1.0
C      1  0.5663838136479  0.2344142334105  0.3513187277595 1.0
C      1  0.5638859100794  0.7562669230347  0.3543634242193 1.0
C      1  0.6057060796344  0.1685406337873  0.7343097825354 1.0
C      1  0.6215448283882  0.4817679924947  0.1166849892797 1.0
C      1  0.6036049564843  0.8595230100941  0.6720245854825 1.0
C      1  0.4389096138477  0.6641990968678  0.6141214288147 1.0
C      1  0.4284237459357  0.3037193752036  0.6096590512094 1.0
C      1  0.4322176484345  0.5052543520445  0.2872126108284 1.0
C      1  0.5721338001203  0.6078600968592  0.3228974706579 1.0
C      1  0.5726814206564  0.5949272117178  0.6881528787654 1.0
C      1  0.5645967208972  0.2771391277266  0.4986484245773 1.0
C      1  0.3753769150175  0.2446870481135  0.6916021548007 1.0
C      1  0.3826251136786  0.4640531880974  0.1902730358488 1.0
C      1  0.3422082242882  0.8627945646789  0.6107444159871 1.0
C      1  0.4525200140683  0.7152578977234  0.5288511975414 1.0
C      1  0.4644016400503  0.3695475835819  0.6785878632074 1.0
C      1  0.4686270020978  0.4135810845428  0.3117636037654 1.0
C      1  0.2356128420666  0.3877879759234  0.6763590292083 1.0
C      1  0.2382508355044  0.4060736091320  0.3155242947196 1.0
C      1  0.2328938267624  0.7122597517055  0.5113814789930 1.0
C      1  0.6376486515934  0.5981160079595  0.6110764076684 1.0
C      1  0.6333597418750  0.3361088405743  0.5362308669427 1.0
C      1  0.6445335693215  0.5424070510856  0.3487462867116 1.0
C      1  0.2070442058433  0.3296777379382  0.6152450649384 1.0
C      1  0.2080318464947  0.4868519871933  0.2948064356777 1.0
C      1  0.2080929669239  0.6877449706826  0.5927591628128 1.0
C      1  0.7225841564326  0.5688545577624  0.6301081641381 1.0
C      1  0.7140789188824  0.3293899980116  0.4812355700585 1.0
C      1  0.7401505210531  0.5790958709912  0.3673867048535 1.0
C      1  0.4936442619337  0.8020553034694  0.3056731409391 1.0
C      1  0.4993741884037  0.5218386680815  0.8643841601524 1.0
C      1  0.4926415096040  0.1750975374420  0.3292183542881 1.0
C      1  0.3938198689519  0.3523444514757  0.5247087973690 1.0
C      1  0.3932741602078  0.5511057894124  0.3695618093404 1.0
C      1  0.3995101357077  0.5799496967206  0.6161488725927 1.0
C      1  0.3919684241875  0.3614077400978  0.3557640603309 1.0
C      1  0.3849256991322  0.6943524632857  0.4571947219032 1.0
C      1  0.3911261907543  0.4368475887284  0.6989077179263 1.0
C      1  0.6220649874163  0.4098150151267  0.8189531497258 1.0
C      1  0.6252235771543  0.2735967009387  0.2699769553183 1.0
C      1  0.6102359390297  0.8162561851723  0.4244033236383 1.0
C      1  0.7022922430117  0.6494584694583  0.7794503428887 1.0
C      1  0.6887279282799  0.1619765758665  0.4938312931168 1.0
C      1  0.6911199177407  0.6934202843304  0.2311748700207 1.0
C      1  0.3589196897679  0.5303826661965  0.5434192837201 1.0
C      1  0.3586543127238  0.4407311747858  0.5154329408958 1.0
C      1  0.3597862180599  0.5120698574069  0.4506764158068 1.0
C      1  0.6071714096138  0.1430595952890  0.6390904471556 1.0
C      1  0.6106084610425  0.5816093182705  0.1279865206855 1.0
C      1  0.6132790466643  0.7890045526958  0.7402833453563 1.0
C      1  0.3508033124974  0.6683593379914  0.7896010846141 1.0
C      1  0.3440101120952  0.1644566092982  0.4998917400719 1.0
C      1  0.3468012242573  0.6701969241284  0.2156671176238 1.0
C      1  0.6425801481660  0.4269085158851  0.1917711207264 1.0
C      1  0.6218513022483  0.8299757723154  0.5834530259402 1.0
C      1  0.6301722493895  0.2595453113290  0.7529524189383 1.0
C      1  0.1900484028969  0.5576125585060  0.3624243963388 1.0
C      1  0.1948379987445  0.5927853077472  0.6179638848908 1.0
C      1  0.1913862268197  0.3539508595565  0.5201099558639 1.0
C      1  0.4188773675505  0.5383755309771  0.8584984705342 1.0
C      1  0.4133278990359  0.1721193051814  0.3513373950842 1.0
C      1  0.4122447103458  0.7938627413686  0.2969821155156 1.0
C      1  0.2326152802538  0.5901473953579  0.7088616577921 1.0
C      1  0.2266452956046  0.2748005628184  0.4708287924556 1.0
C      1  0.2251915141486  0.6394229331534  0.3192534516739 1.0
C      1  0.5016085581464  0.3722338386807  0.2259118139696 1.0
C      1  0.4760276419545  0.8155703267191  0.5290933302232 1.0
C      1  0.4898145319677  0.3209741218419  0.7641599002853 1.0
C      1  0.7996279428471  0.6794629380762  0.6007368184742 1.0
C      1  0.8013728059394  0.3087521748881  0.5955041605916 1.0
C      1  0.8230858302491  0.5375318320308  0.2159093385635 1.0
C      1  0.5391775261244  0.6534173966651  0.4952194635511 1.0
C      1  0.5452383308781  0.4250885987890  0.6426462232435 1.0
C      1  0.5444633608139  0.4109016493746  0.3837779812308 1.0
C      1  0.5152870853395  0.1450982535146  0.5919433846110 1.0
C      1  0.5184967618177  0.6052699588911  0.1608588302592 1.0
C      1  0.5216836955480  0.7455477852681  0.7550656905162 1.0
C      1  0.2453842368979  0.5280146768563  0.2126283175321 1.0
C      1  0.2434552492376  0.7399416423963  0.6689120973251 1.0
C      1  0.2399940464902  0.2361838498305  0.6210305196209 1.0
C      1  0.7072469034774  0.4116790326357  0.4291930961572 1.0
C      1  0.7811328282251  0.5541260391883  0.4686040618007 1.0
C      1  0.7724057813447  0.4584846328173  0.4779298964647 1.0
END
