TITL C-94195-8612-5 -13.56 3375.00 -2521.64836432 0 0 304 (C1) n - 1
REM
REM Run started: at 2020.11.28 12:58:53 in /rds/project/t2_vol4/rds-t2-cs072/BORA/CARBON/AIRSS/Generating-Clusters/Str-Search/Higher-Symm
REM VASP from code version vasp.5.4.4.18Apr17-6-g9f103f2a35 (build Oct 11 2019 16:45:47) gamma-only
REM
REM
REM
REM
REM ./C.cell (e5ae0387ce4d49c7c0135a1433873289)
REM AIRSS Version 0.9.1 bugfix July 2018 build 013d7b7c2542+ Fri, 06 Jul 2018 19:26:36 +0100
REM compiler GCC version 4.8.5 20150623 (Red Hat 4.8.5-39)
REM options -cpp -mtune=generic -march=x86-64 -g -O0
REM seed 1591269852 -1660329997 -1827182940 1374461690 -98267064 779822245 -309793766 -633630813 -1664661683 758554610 1913151099 557219799
REM
REM C.POTCAR (d86ddea03c3ceb6dc662c8ad6801f873)
REM 
CELL 1.54180   15.00000   15.00000   15.00000   90.00000   90.00000   90.00000
LATT -1
SFAC C  
C      1  0.6460623893940  0.7055728358326  0.1090113161924 1.0
C      1  0.2637264942792  0.8185512464649  0.7712252492970 1.0
C      1  0.2531312361716  0.3336072081881  0.7909121661370 1.0
C      1  0.8831185597788  0.7019118439400  0.7610061603605 1.0
C      1  0.3727937185254  0.8810504140852  0.6645187008861 1.0
C      1  0.5822436587841  0.7379237197077  0.0301628132542 1.0
C      1  0.4595822476775  0.5072749414350  0.1537355059239 1.0
C      1  0.2895289504961  0.6098100094879  0.0533739872394 1.0
C      1  0.5147502086805  0.5966126167565  0.6360232350669 1.0
C      1  0.2045389452450  0.8432484911771  0.1818855335799 1.0
C      1  0.4053930500234  0.5973739660981  0.5103519289020 1.0
C      1  0.3081803444799  0.7786298937207  0.0831293937660 1.0
C      1  0.1157260153851  0.4133415021216  0.7354628718976 1.0
C      1  0.5930555877326  0.3362973064899  0.9231512150512 1.0
C      1  0.3626327279645  0.1867008474001  0.3454847405323 1.0
C      1  0.0520765677703  0.2814395042159  0.2924082356182 1.0
C      1  0.1890110738735  0.7588080108865  0.3287277469003 1.0
C      1  0.2115642309397  0.8140735486748  0.5198360010370 1.0
C      1  0.6394663429101  0.5782671987036  0.7308507449874 1.0
C      1  0.6212405532792  0.3337505522991  0.4491402313498 1.0
C      1  0.9001383120513  0.5299042737093  0.2238108104224 1.0
C      1  0.2534440392101  0.3714795822410  0.3873093575560 1.0
C      1  0.7400941860695  0.5363304776300  0.8785106035616 1.0
C      1  0.6595417836988  0.5207113039697  0.6519309890137 1.0
C      1  0.5243834989992  0.6551774848411  0.3237131668565 1.0
C      1  0.3847806213804  0.4089368755094  0.2957994071073 1.0
C      1  0.6973693706009  0.0799244343069  0.6102424613840 1.0
C      1  0.1275263221532  0.7250775671547  0.7215225652954 1.0
C      1  0.9081894600742  0.6724394137179  0.6712242952784 1.0
C      1  0.7629328322386  0.7129437230814  0.5815711454093 1.0
C      1  0.7956001037883  0.2282832817322  0.4351623466104 1.0
C      1  0.2770412306626  0.6970440271655  0.3256982343123 1.0
C      1  0.5667515982792  0.7975533021075  0.5852597050986 1.0
C      1  0.8356225990818  0.5727910624860  0.8676959586501 1.0
C      1  0.8969546143536  0.6257756460077  0.5156966948087 1.0
C      1  0.1711579829613  0.6231979505146  0.8764444604971 1.0
C      1  0.9998597183619  0.6272062969013  0.6527087545481 1.0
C      1  0.5061832225894  0.7714817746907  0.2254357118724 1.0
C      1  0.5312693266429  0.9637739923708  0.3169726986223 1.0
C      1  0.7471223941810  0.8930675331824  0.4232116887548 1.0
C      1  0.1554557083469  0.3317341637345  0.7585901715177 1.0
C      1  0.3384270531294  0.9174211680308  0.4562549674719 1.0
C      1  0.2643075282994  0.7897150365784  0.6014371158773 1.0
C      1  0.8893805589609  0.6853120147699  0.4304589654395 1.0
C      1  0.6116203442855  0.7317806204966  0.5119265574814 1.0
C      1  0.6588029334242  0.7341882613113  0.4234653447675 1.0
C      1  0.7202147609685  0.1028879860451  0.7001060667257 1.0
C      1  0.1363170303118  0.5783855771493  0.3052892640837 1.0
C      1  0.0879419147031  0.6857955099114  0.6520515882406 1.0
C      1  0.7778015877535  0.4523449264783  0.3288882518719 1.0
C      1  0.1147459577182  0.5154295255677  0.7562717656206 1.0
C      1  0.6556673611525  0.4552603913574  0.0136120205643 1.0
C      1  0.8034260138580  0.6499097164524  0.1809473980433 1.0
C      1  0.3595746619566  0.6142597596718  0.7378979070205 1.0
C      1  0.8163469422329  0.7390853915416  0.8207939903330 1.0
C      1  0.4228418232849  0.8795495797237  0.4068807657258 1.0
C      1  0.5587663960737  0.5606706936006  0.3374394932474 1.0
C      1  0.4363380041655  0.5133472217606  0.8435887200684 1.0
C      1  0.4005891138137  0.1918915763486  0.4348728045664 1.0
C      1  0.4355169224441  0.8161082384979  0.8059402528084 1.0
C      1  0.7456112642706  0.1688155602932  0.3771671189424 1.0
C      1  0.7430537884262  0.1088997041130  0.5262259797579 1.0
C      1  0.6614437970363  0.6582046052663  0.2723266110870 1.0
C      1  0.7979585939520  0.1826083254439  0.5206589283921 1.0
C      1  0.7452989660881  0.3676412694425  0.7985148201083 1.0
C      1  0.5827469601297  0.0236738950163  0.4979481204214 1.0
C      1  0.5552179294863  0.4651981777560  0.4674311609677 1.0
C      1  0.3242835937872  0.2549067977873  0.2982548191155 1.0
C      1  0.5919416491095  0.3769672029440  0.1877101078035 1.0
C      1  0.2565731772942  0.6948653152151  0.0932283363217 1.0
C      1  0.3585186016716  0.5455361669028  0.8036240132186 1.0
C      1  0.7569931476396  0.8042367199682  0.1936758091049 1.0
C      1  0.3766511222254  0.1004811057104  0.3058845449374 1.0
C      1  0.2836963611254  0.8497549068605  0.6871079809471 1.0
C      1  0.2595032383137  0.8495379091648  0.1187442029101 1.0
C      1  0.3130892797006  0.3485661110573  0.3201486888936 1.0
C      1  0.2070105562062  0.5185194249254  0.1637783934200 1.0
C      1  0.9884262210593  0.5961677842216  0.5531954869181 1.0
C      1  0.3747644897249  0.5026244575801  0.5278594819630 1.0
C      1  0.4470136076454  0.5615137369326  0.9942704041266 1.0
C      1  0.7069543443194  0.4915143241341  0.4895389790374 1.0
C      1  0.5441241312573  0.9376216847825  0.5228377276336 1.0
C      1  0.3845929119031  0.6402440432543  0.4266151573792 1.0
C      1  0.8685631474792  0.5365460505854  0.4788175946991 1.0
C      1  0.3191016863941  0.3731712535623  0.0947146765643 1.0
C      1  0.0723489182418  0.3547810313296  0.2387107315422 1.0
C      1  0.1728263999833  0.7683625290441  0.2260783571451 1.0
C      1  0.5701071553979  0.4017996802509  0.9920890372259 1.0
C      1  0.2782392973134  0.4970655434642  0.7892313520064 1.0
C      1  0.5133555298312  0.6677008236312  0.2202709778675 1.0
C      1  0.7111633831461  0.8053861355341  0.3860469954625 1.0
C      1  0.9705857886363  0.4578611047741  0.6841295270711 1.0
C      1  0.3113248978432  0.4066431965837  0.9360938100108 1.0
C      1  0.8662486538733  0.4943152180244  0.8223767315872 1.0
C      1  0.7413299054293  0.4115882150016  0.2509659532286 1.0
C      1  0.2257456144153  0.6012007858063  0.4524995440086 1.0
C      1  0.5093957002327  0.0805110276412  0.6267138743912 1.0
C      1  0.9990041591280  0.4121259541305  0.6024699994106 1.0
C      1  0.0029015696771  0.4932714588212  0.5367961412998 1.0
C      1  0.1655074646810  0.4833880983221  0.3160481624900 1.0
C      1  0.3723281399919  0.6214685356442  0.9982096794795 1.0
C      1  0.1939167098769  0.2626062691854  0.2159729836017 1.0
C      1  0.5553046257138  0.3212968396196  0.5175096233889 1.0
C      1  0.5928275228396  0.8945181692619  0.6061695667763 1.0
C      1  0.9473818256384  0.3442690765960  0.5474722909946 1.0
C      1  0.3382448678723  0.8011170596450  0.8292117026445 1.0
C      1  0.7065292541434  0.1015313955391  0.4336404803696 1.0
C      1  0.2221366212096  0.5241287227742  0.6132425448716 1.0
C      1  0.7407103859904  0.5470972195031  0.3228256548434 1.0
C      1  0.2180775556904  0.6151409529967  0.5564514257565 1.0
C      1  0.3132867694936  0.7301951747211  0.8861346291625 1.0
C      1  0.4075583091491  0.7881763501133  0.0794082286148 1.0
C      1  0.6263274850361  0.0520513082295  0.4184137362583 1.0
C      1  0.4100263292429  0.1186940976132  0.2145303788749 1.0
C      1  0.5460691449423  0.2520771051079  0.9014676978732 1.0
C      1  0.3182515225490  0.0787325981352  0.5218215773686 1.0
C      1  0.8169229471348  0.3210354365662  0.4477986261233 1.0
C      1  0.6885788112086  0.6680277194199  0.5195180228450 1.0
C      1  0.4257176941315  0.4386788450990  0.3747250989038 1.0
C      1  0.5488797035335  0.1662873785717  0.7673183994316 1.0
C      1  0.4871602532381  0.7879724436189  0.5253333047490 1.0
C      1  0.3682151653276  0.1908190101771  0.1677978304724 1.0
C      1  0.3457790365235  0.0130598376199  0.4546578461459 1.0
C      1  0.1365225097032  0.1647066326445  0.3505820150786 1.0
C      1  0.8172189914245  0.2447632652918  0.5921848862744 1.0
C      1  0.5025717738536  0.7703709092069  0.6605917104290 1.0
C      1  0.3896802501253  0.0302898869472  0.3663688469015 1.0
C      1  0.5917557451931  0.5304243051498  0.8883124333389 1.0
C      1  0.8102252211779  0.7880245920073  0.2718425372532 1.0
C      1  0.4163968991210  0.2569799208832  0.7905603652446 1.0
C      1  0.2744866743728  0.6304345751613  0.7037674159537 1.0
C      1  0.6502147041938  0.4256590751682  0.2435840636640 1.0
C      1  0.4824673204386  0.1317516283918  0.6991353782058 1.0
C      1  0.9420191612478  0.4436375660799  0.2113747397246 1.0
C      1  0.4861987876085  0.4357130834347  0.6206419596814 1.0
C      1  0.7507218755279  0.3397977789155  0.0988095902691 1.0
C      1  0.9986568262141  0.3240560980221  0.4749810241396 1.0
C      1  0.1939392090567  0.4468078950161  0.2214064913339 1.0
C      1  0.7110481132025  0.1787057550623  0.1333921456089 1.0
C      1  0.2474259455068  0.2196229993527  0.4818739972988 1.0
C      1  0.4963506338074  0.5728206188231  0.9002375148406 1.0
C      1  0.4150008383668  0.3802834815851  0.9392095429502 1.0
C      1  0.1917874086202  0.6049661538067  0.2165871944346 1.0
C      1  0.4037920693029  0.4982771318390  0.6257928987956 1.0
C      1  0.3115778403516  0.4790084786384  0.6019054257288 1.0
C      1  0.5189988800113  0.2316518395810  0.1805686285231 1.0
C      1  0.4132511722191  0.3501838513130  0.1139826469148 1.0
C      1  0.9257978971216  0.5701683510898  0.3070499522733 1.0
C      1  0.6669602421790  0.5697576497983  0.5334505094726 1.0
C      1  0.7837076817135  0.4500382159255  0.8318024792843 1.0
C      1  0.2529355080176  0.8289757282328  0.3625973007485 1.0
C      1  0.4870318596380  0.8760014437827  0.4825069234778 1.0
C      1  0.8079082961634  0.4084380118844  0.4056241717664 1.0
C      1  0.7712296946307  0.2707157542787  0.8122440073891 1.0
C      1  0.5915650173646  0.8718018080743  0.7895811717939 1.0
C      1  0.3303152770389  0.7809356664470  0.3316312857757 1.0
C      1  0.5503064057122  0.9025121284954  0.7114750391079 1.0
C      1  0.1273670043971  0.2198599249212  0.2780459558061 1.0
C      1  0.5337483072646  0.8183786656464  0.8565087929742 1.0
C      1  0.0662035465767  0.5019876626165  0.3071017935507 1.0
C      1  0.2796723233659  0.6746190851029  0.6117900683418 1.0
C      1  0.4968269280438  0.4019799177803  0.5224763360393 1.0
C      1  0.6142552060594  0.2771119072088  0.3742409176376 1.0
C      1  0.6572384838815  0.2661147768117  0.2847964925186 1.0
C      1  0.7559770143145  0.6321297798682  0.2702125861489 1.0
C      1  0.1050104481364  0.3866552479575  0.6365705688630 1.0
C      1  0.3587127458777  0.2543332097153  0.5729904652204 1.0
C      1  0.4878479430078  0.2050770445802  0.4577829161641 1.0
C      1  0.7501004375813  0.8736706733512  0.5239405642123 1.0
C      1  0.1347262678262  0.6257649975378  0.4038215347917 1.0
C      1  0.4580201444306  0.4946572442779  0.0562568187525 1.0
C      1  0.5183649296594  0.4770663530795  0.3749289387003 1.0
C      1  0.7334955118491  0.7732896829275  0.8423750205492 1.0
C      1  0.8473223173172  0.7674307254716  0.4462676207840 1.0
C      1  0.8580607376388  0.6565623360740  0.8394154756270 1.0
C      1  0.8299534652959  0.2210747863503  0.7626203062525 1.0
C      1  0.3587118149120  0.8151055446976  0.6017082395875 1.0
C      1  0.4704334790981  0.3999461128692  0.0282464303268 1.0
C      1  0.2968947693015  0.6439113969315  0.4057889785788 1.0
C      1  0.1599627081812  0.1877872893028  0.5120418229924 1.0
C      1  0.1261815093000  0.5618596872961  0.8433478147333 1.0
C      1  0.4681457446152  0.8024316151239  0.1455875393906 1.0
C      1  0.8590081845467  0.2034343545810  0.6727384835631 1.0
C      1  0.4436264280628  0.5996298728830  0.1908590390654 1.0
C      1  0.7301964985506  0.4268993034090  0.0650612201406 1.0
C      1  0.7184737106451  0.8385336658726  0.6808327246914 1.0
C      1  0.3119313963894  0.2272306653526  0.6602743531462 1.0
C      1  0.6538355620262  0.5747803903470  0.3294144358031 1.0
C      1  0.5497877022980  0.2104482361098  0.3824064882248 1.0
C      1  0.4644978391670  0.4165156534243  0.8526782009009 1.0
C      1  0.6520753031266  0.1508570528787  0.7634112964025 1.0
C      1  0.6978817211539  0.8943401525799  0.6015336758515 1.0
C      1  0.7184874110147  0.4422461291819  0.6602970222594 1.0
C      1  0.1200476194931  0.1586788693466  0.4348667584278 1.0
C      1  0.5697177604307  0.5437883671832  0.5226798659531 1.0
C      1  0.8487945788112  0.3316337515064  0.5468158348236 1.0
C      1  0.0839817618512  0.3576068219978  0.4506178330492 1.0
C      1  0.6487792817431  0.7377334510251  0.7521604472030 1.0
C      1  0.1797166957494  0.4315424742427  0.5788336077809 1.0
C      1  0.6021805086193  0.0981303277319  0.2404140604828 1.0
C      1  0.7916499096535  0.4768016039552  0.1216029493807 1.0
C      1  0.4460382268020  0.2685321474554  0.6229543883794 1.0
C      1  0.4234784046270  0.4175126582674  0.2013075489277 1.0
C      1  0.5778622686298  0.0493353504991  0.3280222867740 1.0
C      1  0.7365586907836  0.2958189174342  0.6258744556308 1.0
C      1  0.2711245002787  0.4204806428978  0.8405428477186 1.0
C      1  0.5683884165248  0.4709634313642  0.2833055883995 1.0
C      1  0.5678734792225  0.1688704567140  0.6071965066270 1.0
C      1  0.2625046346710  0.3181246591901  0.6795973369180 1.0
C      1  0.1925651691952  0.7520864919745  0.7840756043749 1.0
C      1  0.7331605645861  0.2512957112314  0.0956673927894 1.0
C      1  0.0785417138002  0.6055995046111  0.4975948541935 1.0
C      1  0.3845966344164  0.6838678856917  0.9307460115667 1.0
C      1  0.7452068763500  0.7257252210455  0.1427983783158 1.0
C      1  0.1445782484400  0.4352441596521  0.4776836097887 1.0
C      1  0.5599195790068  0.5075833599081  0.6177653903049 1.0
C      1  0.3454483023786  0.3135492320882  0.9240965563953 1.0
C      1  0.5919380507717  0.2862976121356  0.2068121011828 1.0
C      1  0.4517489489729  0.3521802328273  0.7682053228173 1.0
C      1  0.4241754275315  0.7470884992856  0.5970551379073 1.0
C      1  0.0893618133122  0.5101457438558  0.5038362697648 1.0
C      1  0.9529734313415  0.4977616088699  0.4470312028885 1.0
C      1  0.8075750178394  0.8203586886341  0.3709646032497 1.0
C      1  0.5906302419522  0.8888313036913  0.3179656205110 1.0
C      1  0.6872734451857  0.1371124475813  0.2110097549939 1.0
C      1  0.1314458776792  0.6694148923583  0.5569956673584 1.0
C      1  0.4595406813828  0.8582173292988  0.7129936419512 1.0
C      1  0.4598691970720  0.6969953532638  0.3920434852812 1.0
C      1  0.5481465544054  0.7185234883625  0.7319182389919 1.0
C      1  0.2838023461661  0.6298536053055  0.2536294935225 1.0
C      1  0.5175948422601  0.2356654310893  0.5515981239579 1.0
C      1  0.6452317326970  0.4280597208330  0.4626709959175 1.0
C      1  0.4828840106965  0.6771216508692  0.8919465111797 1.0
C      1  0.2531412643118  0.5230976530114  0.0769624006986 1.0
C      1  0.6941005291896  0.2168115241178  0.8350091420341 1.0
C      1  0.5423850145742  0.1404520857530  0.3153056434056 1.0
C      1  0.6581283821791  0.6974005856851  0.8495416477121 1.0
C      1  0.9849541311412  0.5174755365413  0.3643560080094 1.0
C      1  0.4171610404806  0.5938910867259  0.6590078195236 1.0
C      1  0.3604233600268  0.6097875595583  0.2180503280242 1.0
C      1  0.2900749129096  0.2380445369639  0.2094342884407 1.0
C      1  0.4451196171685  0.9553691872826  0.3458391054703 1.0
C      1  0.5178047523964  0.7028872520890  0.4822561254361 1.0
C      1  0.6083417858157  0.2145029845235  0.6940229872071 1.0
C      1  0.1911048957182  0.6926412211430  0.1673967295040 1.0
C      1  0.2654774680999  0.0782260997184  0.5963505763360 1.0
C      1  0.6684293496190  0.5202636827877  0.9515513086219 1.0
C      1  0.8018299966439  0.3844401222740  0.1741549494205 1.0
C      1  0.2628989203544  0.3076347644689  0.4582840192840 1.0
C      1  0.5662934672651  0.8004482838621  0.2888268915235 1.0
C      1  0.5103564974104  0.1410622375908  0.2196678915777 1.0
C      1  0.7138504185947  0.1937476729456  0.2887578180838 1.0
C      1  0.7724047565583  0.3826451534125  0.6096239357984 1.0
C      1  0.4027391686680  0.4151454431495  0.4791575957467 1.0
C      1  0.2871188112021  0.4363644347036  0.0358478082088 1.0
C      1  0.6818484930728  0.3764511120393  0.7298323929754 1.0
C      1  0.1607974895703  0.2044276241603  0.6122873767291 1.0
C      1  0.7988679315691  0.4822102796788  0.4716159072513 1.0
C      1  0.2748683108233  0.3872865330625  0.5986374435806 1.0
C      1  0.6006336781300  0.0742649502455  0.5852924717005 1.0
C      1  0.1628043162641  0.3519358249413  0.2079578192104 1.0
C      1  0.8380902089611  0.6940265555123  0.2699782448520 1.0
C      1  0.8523833029100  0.6670342704218  0.5969858529578 1.0
C      1  0.8029528150823  0.7928797987630  0.5274856527466 1.0
C      1  0.4681716465325  0.3559222958205  0.6775340560852 1.0
C      1  0.8336443385559  0.5545764779399  0.1600551881361 1.0
C      1  0.6635300510241  0.5865957396779  0.8277434912479 1.0
C      1  0.5714024972008  0.7339146813184  0.9218400046092 1.0
C      1  0.7191019512641  0.7479874033254  0.6685419046846 1.0
C      1  0.8969388644217  0.3688851769158  0.1806829028454 1.0
C      1  0.3366398995520  0.1790313100526  0.5055695985515 1.0
C      1  0.2155268714277  0.5434568601784  0.7160721872445 1.0
C      1  0.6727506227033  0.8866661786750  0.3583307121021 1.0
C      1  0.8060644531168  0.1406288097506  0.7170622157522 1.0
C      1  0.0389173135174  0.3084381308287  0.3879959478486 1.0
C      1  0.5603901899885  0.4273363151968  0.8872389146026 1.0
C      1  0.9384389782935  0.4913713197034  0.7588727589983 1.0
C      1  0.4916627546299  0.7346537397196  0.8100368899590 1.0
C      1  0.8946856099020  0.6522549642275  0.3393083627970 1.0
C      1  0.4366276001178  0.2568857949568  0.1422071177665 1.0
C      1  0.3291926670292  0.2787620307772  0.8406137031397 1.0
C      1  0.4141178129468  0.7874204839484  0.3658646790151 1.0
C      1  0.5034505707990  0.6162300870168  0.5310895786587 1.0
C      1  0.1357066874226  0.7234028231652  0.4046925913522 1.0
C      1  0.0287675424611  0.4384468432291  0.2414523446694 1.0
C      1  0.3292509349663  0.3411012417647  0.5224998602290 1.0
C      1  0.1476346058380  0.7495878820850  0.4945946294157 1.0
C      1  0.5686295501141  0.6297401419161  0.7050203319071 1.0
C      1  0.0174120453267  0.5415945204251  0.7155183609457 1.0
C      1  0.6600959245877  0.2939237536927  0.6788048260194 1.0
C      1  0.4090427215176  0.2077080028456  0.7009590540664 1.0
C      1  0.1558397390072  0.2939991012449  0.6617084079401 1.0
C      1  0.6811393183103  0.8332607985733  0.7756378644583 1.0
C      1  0.4973340143279  0.2164576509233  0.8344573966403 1.0
C      1  0.2412334390166  0.1577948943769  0.6383548969369 1.0
C      1  0.6067098777532  0.7176498846453  0.3341472620324 1.0
C      1  0.2217653380154  0.7011571669653  0.8626284347976 1.0
C      1  0.2580446438651  0.8620057117532  0.4517966421040 1.0
C      1  0.3773984532390  0.6573510444001  0.5896010224927 1.0
C      1  0.2060718637066  0.4509527846333  0.4005012570068 1.0
C      1  0.6386322972290  0.2521456357828  0.8979233126771 1.0
C      1  0.5017242224751  0.7710475355424  0.0610644713226 1.0
C      1  0.5183634727518  0.4412287346857  0.2024655057541 1.0
C      1  0.6092394856605  0.6642116593917  0.1846452990844 1.0
END
