TITL C-94237-86-9 -5.79 3375.00 -985.75013178 0 0 119 (C1) n - 1
REM
REM Run started: at 2020.12.23 14:38:06 in /rds/project/t2_vol4/rds-t2-cs072/BORA/CARBON/AIRSS/Generating-Clusters/Str-Search/Higher-Symm/C100-200
REM VASP from code version vasp.5.4.4.18Apr17-6-g9f103f2a35 (build Oct 11 2019 16:45:47) gamma-only
REM
REM
REM
REM
REM ./C.cell (533062f00bc710175b3da973d35f2034)
REM AIRSS Version 0.9.1 bugfix July 2018 build 013d7b7c2542+ Fri, 06 Jul 2018 19:26:36 +0100
REM compiler GCC version 4.8.5 20150623 (Red Hat 4.8.5-39)
REM options -cpp -mtune=generic -march=x86-64 -g -O0
REM seed -207393851 2010868890 -1564088135 713453873 -590093984 -1473575245 1126018190 -448916168 1674849807 -873232388 149616237 -498923380
REM
REM C.POTCAR (d86ddea03c3ceb6dc662c8ad6801f873)
REM 
CELL 1.54180   15.00000   15.00000   15.00000   90.00000   90.00000   90.00000
LATT -1
SFAC C  
C      1  0.7688748031613  0.7125574183499  0.5022934844060 1.0
C      1  0.8515510625802  0.4208703418750  0.5144673844580 1.0
C      1  0.6572739070125  0.1959114056850  0.4968506077526 1.0
C      1  0.3613517181386  0.1834608367701  0.4972996911174 1.0
C      1  0.1722596366911  0.4222319579442  0.4912998920185 1.0
C      1  0.2322031700050  0.7106261899470  0.4932551578715 1.0
C      1  0.5031388282259  0.8564460325375  0.5057524948618 1.0
C      1  0.3010775342908  0.3991255397246  0.7072778541424 1.0
C      1  0.3012790443137  0.5955981728207  0.7061404562784 1.0
C      1  0.4564985527414  0.7155096134997  0.7061465171848 1.0
C      1  0.6304004254762  0.6788561755102  0.7065965458147 1.0
C      1  0.7249034132056  0.5062249957863  0.7104105544487 1.0
C      1  0.6471077278349  0.3259069094398  0.7126643023638 1.0
C      1  0.4558179643303  0.2758264968990  0.7130033015317 1.0
C      1  0.2600188353487  0.3780817974113  0.6268401761354 1.0
C      1  0.2558069953529  0.6171491356020  0.6286595369446 1.0
C      1  0.4442024190015  0.7652341298912  0.6275678232061 1.0
C      1  0.6671024371995  0.7160611178537  0.6280127542574 1.0
C      1  0.7775553203347  0.5030649394540  0.6345696606553 1.0
C      1  0.6798212735750  0.2865394835987  0.6352490243875 1.0
C      1  0.4473467219101  0.2281439883793  0.6338475405000 1.0
C      1  0.7384603929567  0.2181951714982  0.4630856435394 1.0
C      1  0.4290975215529  0.1290532757078  0.4683411816963 1.0
C      1  0.1859281153868  0.3407032437008  0.4527588119016 1.0
C      1  0.1577227540182  0.6616630186903  0.4669403451979 1.0
C      1  0.4329580903646  0.8352540398132  0.4458692221400 1.0
C      1  0.7148399827323  0.7590592663195  0.4408440479136 1.0
C      1  0.8409633487662  0.4879972451626  0.4506308187928 1.0
C      1  0.6530176143683  0.5801734290462  0.7245196258743 1.0
C      1  0.6616123351011  0.4270479713150  0.7310322270904 1.0
C      1  0.5449599142436  0.3267821068424  0.7313190506661 1.0
C      1  0.3940080834566  0.3582350896703  0.7299697976560 1.0
C      1  0.3272307790463  0.4974785091118  0.7281954994143 1.0
C      1  0.3961125408447  0.6348874138667  0.7244581220316 1.0
C      1  0.5414661579109  0.6875990719506  0.7470158688494 1.0
C      1  0.6002407518236  0.5563257588680  0.2022719275512 1.0
C      1  0.6071534814856  0.4580048248123  0.2110035220036 1.0
C      1  0.5347964850813  0.3967804467634  0.2001531784919 1.0
C      1  0.4340887536967  0.4077735849950  0.1938835758185 1.0
C      1  0.3833162805409  0.4849508395501  0.1910752963250 1.0
C      1  0.4177882855088  0.5767003082405  0.1892259339673 1.0
C      1  0.5090461545202  0.6040334760774  0.2169442396927 1.0
C      1  0.7475513074501  0.6971828315364  0.3664705236308 1.0
C      1  0.8163189555534  0.4178940461968  0.3812446008500 1.0
C      1  0.5775151731312  0.1902247155094  0.3519548473889 1.0
C      1  0.3210900800203  0.2379106852464  0.3473354426647 1.0
C      1  0.1755535953360  0.5013952502625  0.3482890168756 1.0
C      1  0.2888506308599  0.7304992298948  0.3389264142554 1.0
C      1  0.4994930475577  0.8248673719404  0.3704108186671 1.0
C      1  0.2466556329546  0.2833022070236  0.4885859745467 1.0
C      1  0.1621072048359  0.5750650768344  0.4969140460791 1.0
C      1  0.3609747437472  0.7887164957939  0.4789736065680 1.0
C      1  0.6410428016602  0.8014834367963  0.4783143536440 1.0
C      1  0.8167400577498  0.5725846852163  0.4814705448879 1.0
C      1  0.7852811422153  0.2875041353247  0.5004538425291 1.0
C      1  0.5120291389524  0.1520013067647  0.4994752837559 1.0
C      1  0.1516652648542  0.4993786067940  0.4374433125720 1.0
C      1  0.2871894522466  0.7545509251669  0.4291230990573 1.0
C      1  0.5690390699509  0.8464217901413  0.4383879467099 1.0
C      1  0.8021190066181  0.6529687358936  0.4365030063040 1.0
C      1  0.8383877525198  0.3493600757419  0.4533959471414 1.0
C      1  0.5868285019175  0.1631371634802  0.4407115922117 1.0
C      1  0.2977927483628  0.2214501467236  0.4359015287308 1.0
C      1  0.7456333177815  0.6723934197824  0.5840825264632 1.0
C      1  0.7997625409223  0.4149741158576  0.5942301683599 1.0
C      1  0.6224059374956  0.2235120510066  0.5839702516277 1.0
C      1  0.3631395013823  0.2344563281235  0.5807784580800 1.0
C      1  0.2102253175386  0.4488032962516  0.5767977066738 1.0
C      1  0.2811820284117  0.6981136007499  0.5769227719751 1.0
C      1  0.5224966071837  0.8084145104500  0.5849649027924 1.0
C      1  0.4384600225378  0.5771171068216  0.6480344532129 1.0
C      1  0.5206370997245  0.5880904319117  0.6001701301817 1.0
C      1  0.5937576794172  0.5442649577780  0.6445668067738 1.0
C      1  0.5961075725243  0.4550627973104  0.6528738648092 1.0
C      1  0.5272047258280  0.3945714519048  0.6531874055861 1.0
C      1  0.4396268658701  0.4133919199831  0.6531118642109 1.0
C      1  0.4013539774410  0.4967376410031  0.6549973128695 1.0
C      1  0.3082134008370  0.6863819204022  0.2710951649129 1.0
C      1  0.5039018135218  0.7679124877550  0.3016060719728 1.0
C      1  0.7110499467847  0.6605568837545  0.2913125627276 1.0
C      1  0.7562575396061  0.4217108481601  0.3141740859088 1.0
C      1  0.5621672434644  0.2411718352318  0.2874668829810 1.0
C      1  0.3593429369868  0.2727109700803  0.2812931073670 1.0
C      1  0.2261434502515  0.4998099326341  0.2807991132606 1.0
C      1  0.5813420312587  0.5559863883650  0.3663896447478 1.0
C      1  0.6056045013857  0.4559496068378  0.3585372026282 1.0
C      1  0.5256331283861  0.3970864678946  0.3790107658080 1.0
C      1  0.4293380216770  0.4119648345435  0.3823676839952 1.0
C      1  0.3820678728555  0.4936074145021  0.3773936568397 1.0
C      1  0.4244267737999  0.5811240592273  0.3735873443165 1.0
C      1  0.5054237465154  0.6013234228953  0.3225804860033 1.0
C      1  0.2069106195461  0.5464255920858  0.5788208832302 1.0
C      1  0.3610752051927  0.7547114573057  0.5719986098556 1.0
C      1  0.6162300676250  0.7802827215356  0.5740225604215 1.0
C      1  0.7861658497941  0.5824609681275  0.5767572420789 1.0
C      1  0.7568847665097  0.3280244932951  0.5877325812965 1.0
C      1  0.5286660806200  0.1982613722566  0.5846624005690 1.0
C      1  0.2882032518035  0.2966204407291  0.5765324735661 1.0
C      1  0.5960958996205  0.5496886681529  0.8030590434910 1.0
C      1  0.5993603777755  0.4562075235561  0.8064522468253 1.0
C      1  0.5271286242882  0.3939995250943  0.8069993118559 1.0
C      1  0.4353496729458  0.4128922190850  0.8067548231061 1.0
C      1  0.3940674708851  0.4994678256719  0.8059598800901 1.0
C      1  0.4345626611188  0.5839218052803  0.8039841492500 1.0
C      1  0.5252685459333  0.6122917903235  0.8086481107925 1.0
C      1  0.5165618420036  0.5977799456591  0.5107211681944 1.0
C      1  0.5888909508260  0.5608805340474  0.4578859024638 1.0
C      1  0.6046957677907  0.4646899523335  0.4623064145240 1.0
C      1  0.5324419008507  0.4027483657339  0.4744975541635 1.0
C      1  0.4332893154135  0.4180658244685  0.4826254430653 1.0
C      1  0.3856206196823  0.4992285495417  0.4787737911801 1.0
C      1  0.4295855779422  0.5867294159625  0.4672618717293 1.0
C      1  0.2953620503414  0.5220127384529  0.2253926640542 1.0
C      1  0.3338269586521  0.6135824826550  0.2195084598276 1.0
C      1  0.5138801258828  0.6870990906456  0.2715110745158 1.0
C      1  0.6676048390168  0.6085252848004  0.2405560796601 1.0
C      1  0.6727936325035  0.4343934232831  0.2869440423356 1.0
C      1  0.5199717285752  0.3050290457248  0.2351286092245 1.0
C      1  0.4219748728416  0.3167546537111  0.2301717655263 1.0
END
