TITL C-9681-9713-92 -1.521 3375.00 -251.99172681 0 0 31 (C1) n - 1
REM
REM Run started: at 2021.01.04 22:58:13 in /gpfs/home/chem/mssmkc/CARBON/AIRSS/Generating-Clusters/Str-Search/Higher-Symm/C4-100
REM VASP from code version vasp.5.4.4.18Apr17-6-g9f103f2a35 (build Oct 11 2019 16:45:47) gamma-only
REM
REM
REM
REM
REM ./C.cell (6bd13a13d554368a30d355f37ece5b26)
REM AIRSS Version 0.9.1 bugfix July 2018 build 013d7b7c2542+ Fri, 06 Jul 2018 19:26:36 +0100
REM compiler GCC version 6.3.0
REM options -cpp -iprefix /gpfs/warwick/csc/orac/software/Core/GCCcore/6.3.0/bin/../lib/gcc/x86_64-pc-linux-gnu/6.3.0/ -mtune=generic -march=x86-64 -g -O0
REM seed 1625897977 -1855681336 6278989 -1907168623 -1632981116 -1447405735 652615800 -135264325 1242425197 -429183044 -717137598 -2011309276
REM
REM C.POTCAR (d86ddea03c3ceb6dc662c8ad6801f873)
REM 
CELL 1.54180   15.00000   15.00000   15.00000   90.00000   90.00000   90.00000
LATT -1
SFAC C  
C      1  0.5802543671845  0.6146061641960  0.5015054280079 1.0
C      1  0.4235592660904  0.3822586819673  0.4989587643039 1.0
C      1  0.4805560784257  0.5577557018193  0.6294403043842 1.0
C      1  0.5170196268191  0.3949004918210  0.6530299476454 1.0
C      1  0.4044611872441  0.6984136079357  0.5749055691574 1.0
C      1  0.6606246018985  0.3179351034655  0.6121545019407 1.0
C      1  0.5810260241064  0.4493343471629  0.3530093899481 1.0
C      1  0.4268510064606  0.5641175534605  0.3595039069239 1.0
C      1  0.5139558225136  0.6016237974843  0.3608009998572 1.0
C      1  0.4938164184332  0.4127017199244  0.3621031492415 1.0
C      1  0.4421762722318  0.3920420792707  0.5913111089815 1.0
C      1  0.5649541916641  0.5611061047500  0.5835524127937 1.0
C      1  0.5138156398427  0.6557036914757  0.4457703221261 1.0
C      1  0.4943984510974  0.3513192358332  0.4389670904748 1.0
C      1  0.6358552464057  0.5595817663576  0.4452011413943 1.0
C      1  0.3718182859762  0.4520551639909  0.4505390472131 1.0
C      1  0.3883044112171  0.7644397925603  0.5200452582303 1.0
C      1  0.6214785800184  0.2979383093670  0.5392164906220 1.0
C      1  0.6241428380788  0.4810419541204  0.5796281429961 1.0
C      1  0.3376755087074  0.5542839809647  0.5787545414008 1.0
C      1  0.5889797744981  0.5446103579691  0.3610393578170 1.0
C      1  0.4172030457545  0.4688316821288  0.3670521977965 1.0
C      1  0.3401576557468  0.5375376397416  0.4872780504700 1.0
C      1  0.6593661661428  0.4769671459810  0.4870909477568 1.0
C      1  0.4039435903703  0.6138471329085  0.6128889766768 1.0
C      1  0.6094682107946  0.4008228597777  0.6284058613865 1.0
C      1  0.3752157770735  0.6074537367737  0.4287078399806 1.0
C      1  0.6324354736565  0.4072638247623  0.4257373024391 1.0
C      1  0.5865176659693  0.3287146484039  0.4603590274815 1.0
C      1  0.4238229977169  0.6842801055945  0.4687956308421 1.0
C      1  0.4575439178607  0.4658164180318  0.6484746897100 1.0
END
