TITL C-9681-9713-71 -2.792 3375.00 -491.82014921 0 0 62 (C1) n - 1
REM
REM Run started: at 2021.01.04 18:39:48 in /gpfs/home/chem/mssmkc/CARBON/AIRSS/Generating-Clusters/Str-Search/Higher-Symm/C4-100
REM VASP from code version vasp.5.4.4.18Apr17-6-g9f103f2a35 (build Oct 11 2019 16:45:47) gamma-only
REM
REM
REM
REM
REM ./C.cell (6bd13a13d554368a30d355f37ece5b26)
REM AIRSS Version 0.9.1 bugfix July 2018 build 013d7b7c2542+ Fri, 06 Jul 2018 19:26:36 +0100
REM compiler GCC version 6.3.0
REM options -cpp -iprefix /gpfs/warwick/csc/orac/software/Core/GCCcore/6.3.0/bin/../lib/gcc/x86_64-pc-linux-gnu/6.3.0/ -mtune=generic -march=x86-64 -g -O0
REM seed -312169620 1627750720 -267047859 -160570198 -2087923359 1147961689 -1086346317 -1880172570 1440532923 2124570900 1271703800 164544134
REM
REM C.POTCAR (d86ddea03c3ceb6dc662c8ad6801f873)
REM 
CELL 1.54180   15.00000   15.00000   15.00000   90.00000   90.00000   90.00000
LATT -1
SFAC C  
C      1  0.4179278390104  0.5480533029492  0.7328917337635 1.0
C      1  0.7469258376886  0.5575447897935  0.4515679257147 1.0
C      1  0.3293456288668  0.5788002725192  0.3094396899715 1.0
C      1  0.4173200041540  0.4797862697474  0.2646291202142 1.0
C      1  0.7552629467366  0.4667977702438  0.5599784406364 1.0
C      1  0.3277593714728  0.4682896599493  0.6807961521652 1.0
C      1  0.5143461351000  0.6019089037156  0.3841801245774 1.0
C      1  0.3610918083907  0.5841613639702  0.5336991353122 1.0
C      1  0.5961010932685  0.5817377186650  0.5689467047271 1.0
C      1  0.5217928987438  0.4034999048404  0.6084210078981 1.0
C      1  0.3634950406180  0.3972719632591  0.4420144464562 1.0
C      1  0.6145497039213  0.3778110384520  0.3924417218060 1.0
C      1  0.6075288082073  0.6178024224535  0.4182012631135 1.0
C      1  0.3414984344014  0.6552981665601  0.4653758678597 1.0
C      1  0.5113858068312  0.6000598879934  0.6135704208863 1.0
C      1  0.6169123495016  0.3899752898436  0.5749167383260 1.0
C      1  0.3598624574774  0.3954881679315  0.5424218351845 1.0
C      1  0.5220129891078  0.3982242822252  0.3649160800731 1.0
C      1  0.2602704352528  0.5261431805780  0.4401376451747 1.0
C      1  0.5693165689454  0.5003364533457  0.7177070757630 1.0
C      1  0.6615096543368  0.5149366180309  0.3205259667070 1.0
C      1  0.2754083585885  0.5286921211178  0.5418665392528 1.0
C      1  0.5727353437889  0.5206043906937  0.2791722114893 1.0
C      1  0.6548743124341  0.5093845465208  0.6763635651372 1.0
C      1  0.2967542106616  0.6084659700036  0.6159321747115 1.0
C      1  0.6815967090837  0.5952817740206  0.6172618579432 1.0
C      1  0.5085818022192  0.6069711539541  0.2851009441250 1.0
C      1  0.2975205545300  0.4496248578398  0.3907877397341 1.0
C      1  0.6902807903996  0.4346937481993  0.3619325671377 1.0
C      1  0.5073258647019  0.4169839496331  0.7108179312759 1.0
C      1  0.7524193421135  0.5615499008847  0.5508843912391 1.0
C      1  0.4171542187836  0.5744333578502  0.2640516917449 1.0
C      1  0.3269568550576  0.5647535778403  0.6951132235973 1.0
C      1  0.7343711497403  0.4600851741838  0.4548068979498 1.0
C      1  0.4131034665085  0.4530086717231  0.7338201995067 1.0
C      1  0.3266936314082  0.4791565030300  0.3066662745168 1.0
C      1  0.4484743290844  0.5452668738937  0.5469218820100 1.0
C      1  0.5868143636850  0.5342901211901  0.4833930489596 1.0
C      1  0.4889219297794  0.5330986192300  0.4546680265737 1.0
C      1  0.4610914296550  0.4330618361316  0.4392646714596 1.0
C      1  0.6302553188102  0.4384292408729  0.4790676186972 1.0
C      1  0.4530541194163  0.4351903937494  0.5470416818150 1.0
C      1  0.6925199467065  0.5896712109611  0.3800695506322 1.0
C      1  0.2947683139593  0.6058567737983  0.3934046520165 1.0
C      1  0.5058220160685  0.5724713202658  0.7077911416357 1.0
C      1  0.6905262354419  0.4372596771817  0.6234176329385 1.0
C      1  0.2970149994728  0.4463029989375  0.5948779206162 1.0
C      1  0.5054888529965  0.4481596476055  0.2850611764261 1.0
C      1  0.5007806467962  0.7013698657552  0.3308762146682 1.0
C      1  0.3299098914931  0.6864764141026  0.5619700218600 1.0
C      1  0.6459309801286  0.6885580436330  0.5912440467623 1.0
C      1  0.5124776284583  0.3198772397932  0.6856394452535 1.0
C      1  0.3657736560253  0.3052972552477  0.4906488340088 1.0
C      1  0.6295323183683  0.2803549799272  0.4087556828229 1.0
C      1  0.5509378672800  0.6880325514542  0.5802867542184 1.0
C      1  0.5447645584472  0.6970122024060  0.4187756635103 1.0
C      1  0.4082918485463  0.7157627148777  0.5065987697526 1.0
C      1  0.5800137705261  0.2364639273300  0.4593066002233 1.0
C      1  0.5613932443713  0.3051514047634  0.6038313272330 1.0
C      1  0.4382246750840  0.2610006100023  0.5104535414429 1.0
C      1  0.4999918658734  0.7236348922546  0.5035676057600 1.0
C      1  0.5249965714743  0.2427210600740  0.5337540830120 1.0
END
