TITL C-9681-9713-90 -4.154 3375.00 -728.28617030 0 0 89 (Cs) n - 1
REM
REM Run started: at 2021.01.04 22:34:29 in /gpfs/home/chem/mssmkc/CARBON/AIRSS/Generating-Clusters/Str-Search/Higher-Symm/C4-100
REM VASP from code version vasp.5.4.4.18Apr17-6-g9f103f2a35 (build Oct 11 2019 16:45:47) gamma-only
REM
REM
REM
REM
REM ./C.cell (6bd13a13d554368a30d355f37ece5b26)
REM AIRSS Version 0.9.1 bugfix July 2018 build 013d7b7c2542+ Fri, 06 Jul 2018 19:26:36 +0100
REM compiler GCC version 6.3.0
REM options -cpp -iprefix /gpfs/warwick/csc/orac/software/Core/GCCcore/6.3.0/bin/../lib/gcc/x86_64-pc-linux-gnu/6.3.0/ -mtune=generic -march=x86-64 -g -O0
REM seed 1863794632 1412887834 911736520 -1907244215 220195388 2072623248 -1175437661 181083377 1144758721 -592472367 1029055564 2012432728
REM
REM C.POTCAR (d86ddea03c3ceb6dc662c8ad6801f873)
REM 
CELL 1.54180   15.00000   15.00000   15.00000   90.00000   90.00000   90.00000
LATT -1
SFAC C  
C      1  0.4535497206679  0.6458737766004  0.7686643696340 1.0
C      1  0.5468401769937  0.6459664425067  0.7687449682819 1.0
C      1  0.5956631191842  0.5956005980870  0.6993031707020 1.0
C      1  0.4048162518068  0.5953827600721  0.6991910170277 1.0
C      1  0.3734030177888  0.5168515412714  0.6653656225605 1.0
C      1  0.6267151922840  0.5168173753295  0.6656412520869 1.0
C      1  0.4469684514197  0.6863856286525  0.4364746104352 1.0
C      1  0.5537240664139  0.6863587318546  0.4365186183108 1.0
C      1  0.7995438852303  0.5509662323519  0.4153907161277 1.0
C      1  0.2009573713412  0.5512501911933  0.4151875322945 1.0
C      1  0.3957656401401  0.2545757709411  0.5221548819888 1.0
C      1  0.6046309025266  0.2544983408885  0.5220196256151 1.0
C      1  0.7301013709340  0.3466968355520  0.5400053971718 1.0
C      1  0.2707745861078  0.3474183413244  0.5402555579663 1.0
C      1  0.1782408807230  0.7346645584071  0.5839990018409 1.0
C      1  0.8234971736898  0.7342494507540  0.5829117829774 1.0
C      1  0.2155954395541  0.4540374719509  0.4132503296121 1.0
C      1  0.7848206158481  0.4538071457675  0.4133329838359 1.0
C      1  0.6205878556290  0.6799365624204  0.6488539272999 1.0
C      1  0.3800763322545  0.6798898353364  0.6488005026878 1.0
C      1  0.3121440089038  0.2861091956813  0.4797198526136 1.0
C      1  0.6882660658192  0.2857532843954  0.4794660095095 1.0
C      1  0.8015976096616  0.5795320688675  0.5071253333880 1.0
C      1  0.1988663441974  0.5799639101224  0.5068683404496 1.0
C      1  0.7344240739764  0.5897888202403  0.3593136397681 1.0
C      1  0.2661669912733  0.5900135791793  0.3591800419569 1.0
C      1  0.3332867914084  0.5421008839087  0.5761151295642 1.0
C      1  0.6671655609518  0.5418129400390  0.5763856682474 1.0
C      1  0.5476721510982  0.8024207068149  0.7168140546026 1.0
C      1  0.4527301436464  0.8024269111135  0.7167460186782 1.0
C      1  0.4501616249605  0.3437751910109  0.5285615004058 1.0
C      1  0.5505177971070  0.3437698817065  0.5285120849953 1.0
C      1  0.4531540356472  0.7494289295288  0.6293481668725 1.0
C      1  0.5475370018376  0.7495299685220  0.6293804349329 1.0
C      1  0.4540371718637  0.5875556422607  0.4581601637788 1.0
C      1  0.5466205913787  0.5875313539736  0.4582646032475 1.0
C      1  0.6885615444524  0.5185401197129  0.3077780432618 1.0
C      1  0.3120096165191  0.5186735527247  0.3077099593622 1.0
C      1  0.5493645521648  0.6059322023703  0.2899039984979 1.0
C      1  0.4512316592161  0.6059590285204  0.2898999599175 1.0
C      1  0.5930523945266  0.6703827673730  0.3448014819071 1.0
C      1  0.4076456334676  0.6704407854275  0.3447625428021 1.0
C      1  0.4527573976957  0.2076656153847  0.4511649246952 1.0
C      1  0.5474539070640  0.2076467467074  0.4510987077351 1.0
C      1  0.4025195351730  0.7285924110647  0.7463726168387 1.0
C      1  0.5979152264771  0.7287062754146  0.7466144990418 1.0
C      1  0.6798490690054  0.6646109872792  0.3855658942671 1.0
C      1  0.3208649334649  0.6647603920924  0.3854940449683 1.0
C      1  0.7256603390326  0.4347107933547  0.3389116539274 1.0
C      1  0.2747987479792  0.4348819866944  0.3388533151525 1.0
C      1  0.3250266465527  0.2812827168181  0.3865455984737 1.0
C      1  0.6752618518949  0.2810184436794  0.3863705502428 1.0
C      1  0.3216218171280  0.3561293045466  0.3243188464325 1.0
C      1  0.6787891065634  0.3559094524962  0.3242796201190 1.0
C      1  0.6157082182054  0.2771780116628  0.6227957580605 1.0
C      1  0.3849379137157  0.2770911294350  0.6228946064341 1.0
C      1  0.7811198912319  0.6633716090268  0.5528972163748 1.0
C      1  0.2194112735606  0.6637031228572  0.5527222259491 1.0
C      1  0.4010351869094  0.5235753310795  0.2732963938702 1.0
C      1  0.5995454411313  0.5235186465496  0.2733902981685 1.0
C      1  0.6784784396805  0.6532566103516  0.5663198790863 1.0
C      1  0.3221697533638  0.6533700526731  0.5662250672902 1.0
C      1  0.5503304597185  0.3531570299304  0.6332444732427 1.0
C      1  0.4504860024837  0.3530512036659  0.6329595291343 1.0
C      1  0.4512300453880  0.4407424955838  0.2579282026954 1.0
C      1  0.5492381354817  0.4406948877823  0.2579749659958 1.0
C      1  0.5947200019021  0.3584627754030  0.2762215371443 1.0
C      1  0.4056434774089  0.3585369002488  0.2762224574911 1.0
C      1  0.2411310733558  0.5093904792636  0.5507682379254 1.0
C      1  0.7593480228039  0.5089197549985  0.5511058793291 1.0
C      1  0.6494286191786  0.6914845413644  0.4747566419341 1.0
C      1  0.3512718903060  0.6915833897221  0.4746959697001 1.0
C      1  0.4537181253727  0.2786752025116  0.2995710102201 1.0
C      1  0.5465398852383  0.2786241890363  0.2995527473535 1.0
C      1  0.7694980159190  0.4249688690377  0.5038300920015 1.0
C      1  0.2310635266490  0.4253719807603  0.5037628369904 1.0
C      1  0.5926228411578  0.2335863659038  0.3705031750986 1.0
C      1  0.4075923075245  0.2337470275088  0.3705914059093 1.0
C      1  0.4536252097492  0.4322508834799  0.4870355193759 1.0
C      1  0.5469315139814  0.4322377829233  0.4870576098731 1.0
C      1  0.6894459814679  0.3361558162393  0.6298386786367 1.0
C      1  0.3120975119520  0.3372687142924  0.6301664432384 1.0
C      1  0.4575659710364  0.4179725042024  0.7651937222036 1.0
C      1  0.5412169546904  0.4187959518347  0.7654283090995 1.0
C      1  0.5860539647775  0.5193373860768  0.5136640184894 1.0
C      1  0.4145349645337  0.5194059852910  0.5135620996594 1.0
C      1  0.6045749631924  0.4225897674148  0.6877949164854 1.0
C      1  0.3943648615251  0.4217997459191  0.6869032654268 1.0
C      1  0.5002543627604  0.5710767156817  0.5547227410012 1.0
END
