TITL C-9681-9713-10 -1.737 3375.00 -277.08025517 0 0 35 (C1) n - 1
REM
REM Run started: at 2021.01.04 08:26:17 in /gpfs/home/chem/mssmkc/CARBON/AIRSS/Generating-Clusters/Str-Search/Higher-Symm/C4-100
REM VASP from code version vasp.5.4.4.18Apr17-6-g9f103f2a35 (build Oct 11 2019 16:45:47) gamma-only
REM
REM
REM
REM
REM ./C.cell (6bd13a13d554368a30d355f37ece5b26)
REM AIRSS Version 0.9.1 bugfix July 2018 build 013d7b7c2542+ Fri, 06 Jul 2018 19:26:36 +0100
REM compiler GCC version 6.3.0
REM options -cpp -iprefix /gpfs/warwick/csc/orac/software/Core/GCCcore/6.3.0/bin/../lib/gcc/x86_64-pc-linux-gnu/6.3.0/ -mtune=generic -march=x86-64 -g -O0
REM seed 453922692 -868452271 330806421 -1821887477 1252851617 1116565187 1080157265 1758913465 983939903 -1211445547 379615431 -1460099527
REM
REM C.POTCAR (d86ddea03c3ceb6dc662c8ad6801f873)
REM 
CELL 1.54180   15.00000   15.00000   15.00000   90.00000   90.00000   90.00000
LATT -1
SFAC C  
C      1  0.5680429516927  0.6147034743876  0.5621088910910 1.0
C      1  0.6254104214060  0.5355212151301  0.5711342500442 1.0
C      1  0.5068884398383  0.3615058407512  0.5635500461715 1.0
C      1  0.3791623565708  0.4705806392469  0.5949263103315 1.0
C      1  0.3720474829730  0.5567546564136  0.5638370192216 1.0
C      1  0.5367761470413  0.4009097333211  0.4067835216466 1.0
C      1  0.5952682277897  0.4904429458773  0.4014775123676 1.0
C      1  0.5218302995970  0.5674063170805  0.3999127347936 1.0
C      1  0.4261357966524  0.5293169798023  0.4057451636493 1.0
C      1  0.4448672137218  0.4373489152103  0.4419855263192 1.0
C      1  0.5207526032476  0.3435460082374  0.3293124712873 1.0
C      1  0.3956477013033  0.3971201733598  0.2449733297076 1.0
C      1  0.3899876361434  0.5465710859856  0.3110946811395 1.0
C      1  0.5168621576706  0.6262949831206  0.3089649773447 1.0
C      1  0.6568569251354  0.5788937783375  0.2965052876446 1.0
C      1  0.5357421219365  0.6532227697758  0.6405609927014 1.0
C      1  0.4240305539957  0.6054154939306  0.7467621088927 1.0
C      1  0.3878588209694  0.4585310044146  0.6921864887018 1.0
C      1  0.5056122651292  0.3438748166075  0.6533360644364 1.0
C      1  0.6148547940418  0.4526754249800  0.7215933756500 1.0
C      1  0.4641751916279  0.3428735652718  0.2685691186014 1.0
C      1  0.3626059831294  0.4718669959083  0.2617565661633 1.0
C      1  0.4318503594412  0.6205323915321  0.2716121229353 1.0
C      1  0.5999485102431  0.6408887603518  0.2694004577468 1.0
C      1  0.6703843675203  0.5038928315004  0.3362329238909 1.0
C      1  0.4848282029382  0.6574630999001  0.7062974280220 1.0
C      1  0.3797161415229  0.5347862319922  0.7475411372544 1.0
C      1  0.4497066506574  0.3902783974425  0.7170964310099 1.0
C      1  0.5435158823028  0.3949020857490  0.7252216287968 1.0
C      1  0.6364699486464  0.5006489943969  0.6560269496607 1.0
C      1  0.5777922390372  0.3870185057557  0.4991460730308 1.0
C      1  0.4302233663592  0.4117487788219  0.5301205392461 1.0
C      1  0.5085021997662  0.6147075817192  0.4867047663007 1.0
C      1  0.4156944912770  0.5878460121691  0.4907334181717 1.0
C      1  0.6199511486747  0.4699095115189  0.4986636860270 1.0
END
