TITL C-9681-9713-37 -2.692 3375.00 -416.90481426 0 0 53 (C1) n - 1
REM
REM Run started: at 2021.01.04 13:07:06 in /gpfs/home/chem/mssmkc/CARBON/AIRSS/Generating-Clusters/Str-Search/Higher-Symm/C4-100
REM VASP from code version vasp.5.4.4.18Apr17-6-g9f103f2a35 (build Oct 11 2019 16:45:47) gamma-only
REM
REM
REM
REM
REM ./C.cell (6bd13a13d554368a30d355f37ece5b26)
REM AIRSS Version 0.9.1 bugfix July 2018 build 013d7b7c2542+ Fri, 06 Jul 2018 19:26:36 +0100
REM compiler GCC version 6.3.0
REM options -cpp -iprefix /gpfs/warwick/csc/orac/software/Core/GCCcore/6.3.0/bin/../lib/gcc/x86_64-pc-linux-gnu/6.3.0/ -mtune=generic -march=x86-64 -g -O0
REM seed -328212976 -269557202 591759916 785913371 1319296238 -1971116160 -58589242 -1953460732 -763252483 53132428 1295672099 810537444
REM
REM C.POTCAR (d86ddea03c3ceb6dc662c8ad6801f873)
REM 
CELL 1.54180   15.00000   15.00000   15.00000   90.00000   90.00000   90.00000
LATT -1
SFAC C  
C      1  0.4393840086511  0.6196461986942  0.2705058085409 1.0
C      1  0.6216780277343  0.2652296476281  0.4385389744825 1.0
C      1  0.2660869503033  0.4404966696013  0.6200065329757 1.0
C      1  0.4414718803955  0.3789402921044  0.7323247704751 1.0
C      1  0.5610008129445  0.6201687075192  0.7334246148290 1.0
C      1  0.5604760522256  0.3783229098556  0.2629931705584 1.0
C      1  0.6214723848858  0.7342627098280  0.5581722612827 1.0
C      1  0.3806088265805  0.2698819937315  0.5613024168529 1.0
C      1  0.3804076325135  0.7326809283920  0.4397970070869 1.0
C      1  0.2664978371129  0.5574503198332  0.3791678207510 1.0
C      1  0.7311565027195  0.4362973260405  0.3782696446842 1.0
C      1  0.7308211138430  0.5617455439379  0.6202770202398 1.0
C      1  0.6700358995255  0.4888810443700  0.3305255885236 1.0
C      1  0.4871359353594  0.3319967313453  0.6640201931140 1.0
C      1  0.3354767421925  0.6648737980019  0.4862396438568 1.0
C      1  0.6692633259198  0.5091606002126  0.6681377574240 1.0
C      1  0.3365220881910  0.4838134718824  0.6645443115919 1.0
C      1  0.3378091400572  0.5153125748726  0.3332256821187 1.0
C      1  0.4917807189456  0.6676361531569  0.3321207061778 1.0
C      1  0.5172606569650  0.3335229799302  0.3332806421259 1.0
C      1  0.5148575542511  0.6651501880188  0.6654595367503 1.0
C      1  0.3332239014284  0.3315180343835  0.5089520180958 1.0
C      1  0.6678098541552  0.6634450762698  0.5155734694884 1.0
C      1  0.6685991640177  0.3333826474612  0.4846140253796 1.0
C      1  0.4013340597356  0.5248304295577  0.5998034953802 1.0
C      1  0.5291257261329  0.6007063157382  0.3989070823487 1.0
C      1  0.6029911670086  0.3974699495341  0.5255991720754 1.0
C      1  0.4019550201840  0.4728876612878  0.3976004433998 1.0
C      1  0.6036342601817  0.5255039936697  0.3982282690041 1.0
C      1  0.6027855551155  0.4719010883756  0.6007077589843 1.0
C      1  0.5284739025210  0.3969441133315  0.5992945286419 1.0
C      1  0.4755088450268  0.5993431555459  0.6001493700342 1.0
C      1  0.4758262773906  0.3981692665621  0.3978457730038 1.0
C      1  0.6034578708851  0.5995000694243  0.4730740934059 1.0
C      1  0.4008618076337  0.3980864088664  0.4719839831881 1.0
C      1  0.4011165352552  0.5993428442892  0.5256436109713 1.0
C      1  0.7381941523026  0.6186941001978  0.5589163360924 1.0
C      1  0.6213017032079  0.5615879984923  0.7289584406130 1.0
C      1  0.5629163188838  0.7312652623629  0.6179221432683 1.0
C      1  0.7369600288334  0.3786768994874  0.4393374623473 1.0
C      1  0.2698254650772  0.6172193840200  0.4377341851007 1.0
C      1  0.2728839906217  0.3798817649405  0.5620778797418 1.0
C      1  0.6215442104156  0.4357731942798  0.2702679255766 1.0
C      1  0.3825907332015  0.5582197842142  0.2625776161350 1.0
C      1  0.3832316781885  0.4389812074642  0.7335935203030 1.0
C      1  0.5619696538547  0.2643366895589  0.3799168613860 1.0
C      1  0.4392644764851  0.7286323636443  0.3797724278371 1.0
C      1  0.4414866178794  0.2636609533047  0.6189810228902 1.0
C      1  0.5574783391369  0.4446105878406  0.4440739884583 1.0
C      1  0.4482698997094  0.5541678051522  0.4443744012707 1.0
C      1  0.4472340646126  0.4435108003797  0.5528686593572 1.0
C      1  0.5570053502556  0.5527082584297  0.5545711723226 1.0
C      1  0.5023669793453  0.4987348029773  0.4990476594558 1.0
END
