TITL C-9681-9713-55 -0.586 3375.00 -87.23527417 0 0 12 (C2h) n - 1
REM
REM Run started: at 2021.01.04 15:29:27 in /gpfs/home/chem/mssmkc/CARBON/AIRSS/Generating-Clusters/Str-Search/Higher-Symm/C4-100
REM VASP from code version vasp.5.4.4.18Apr17-6-g9f103f2a35 (build Oct 11 2019 16:45:47) gamma-only
REM
REM
REM
REM
REM ./C.cell (6bd13a13d554368a30d355f37ece5b26)
REM AIRSS Version 0.9.1 bugfix July 2018 build 013d7b7c2542+ Fri, 06 Jul 2018 19:26:36 +0100
REM compiler GCC version 6.3.0
REM options -cpp -iprefix /gpfs/warwick/csc/orac/software/Core/GCCcore/6.3.0/bin/../lib/gcc/x86_64-pc-linux-gnu/6.3.0/ -mtune=generic -march=x86-64 -g -O0
REM seed -1486352143 491635817 151209329 1115771280 215993473 1443191851 1474438974 1393057934 -472610218 1566405973 -2106635650 1959333622
REM
REM C.POTCAR (d86ddea03c3ceb6dc662c8ad6801f873)
REM 
CELL 1.54180   15.00000   15.00000   15.00000   90.00000   90.00000   90.00000
LATT -1
SFAC C  
C      1  0.5475993827468  0.3806672664079  0.4634606964727 1.0
C      1  0.5440285027272  0.6104897135963  0.5164521094357 1.0
C      1  0.5095268519399  0.3812400614266  0.5607889113569 1.0
C      1  0.4524006166008  0.6193327341510  0.5365393056161 1.0
C      1  0.4559714971568  0.3895102847554  0.4835478904132 1.0
C      1  0.4904731490742  0.6187599391825  0.4392110869430 1.0
C      1  0.5694151419706  0.4737256283760  0.4447809822148 1.0
C      1  0.5789903324967  0.5192957896771  0.5308522668004 1.0
C      1  0.5132620925365  0.4745409903755  0.5881565628171 1.0
C      1  0.4305848576969  0.5262743717245  0.5552190173615 1.0
C      1  0.4210096677361  0.4807042109902  0.4691477331381 1.0
C      1  0.4867379073175  0.5254590093370  0.4118434374305 1.0
END
