TITL C-9681-9713-22 -3.144 3375.00 -535.29518482 0 0 69 (D3h) n - 1
REM
REM Run started: at 2021.01.04 10:43:58 in /gpfs/home/chem/mssmkc/CARBON/AIRSS/Generating-Clusters/Str-Search/Higher-Symm/C4-100
REM VASP from code version vasp.5.4.4.18Apr17-6-g9f103f2a35 (build Oct 11 2019 16:45:47) gamma-only
REM
REM
REM
REM
REM ./C.cell (6bd13a13d554368a30d355f37ece5b26)
REM AIRSS Version 0.9.1 bugfix July 2018 build 013d7b7c2542+ Fri, 06 Jul 2018 19:26:36 +0100
REM compiler GCC version 6.3.0
REM options -cpp -iprefix /gpfs/warwick/csc/orac/software/Core/GCCcore/6.3.0/bin/../lib/gcc/x86_64-pc-linux-gnu/6.3.0/ -mtune=generic -march=x86-64 -g -O0
REM seed 628367726 400645846 -819824035 1825624689 -12354614 -735278242 -846541460 -2010087130 -2050257701 1823578479 31658942 -1958558882
REM
REM C.POTCAR (d86ddea03c3ceb6dc662c8ad6801f873)
REM 
CELL 1.54180   15.00000   15.00000   15.00000   90.00000   90.00000   90.00000
LATT -1
SFAC C  
C      1  0.5232355312361  0.3171989099824  0.6370818924447 1.0
C      1  0.3696695145011  0.3172958146128  0.4517468541661 1.0
C      1  0.6068218349438  0.3171861372788  0.4111259710499 1.0
C      1  0.5234851293110  0.6819933769455  0.6370346886110 1.0
C      1  0.3699003637963  0.6819573436217  0.4517999492056 1.0
C      1  0.6072904968068  0.6818993241126  0.4110939189490 1.0
C      1  0.5232366555975  0.3171976695974  0.3629214309624 1.0
C      1  0.3696685445658  0.3172961125624  0.5482549491895 1.0
C      1  0.6068219125002  0.3171871121730  0.5888777391658 1.0
C      1  0.5234846848608  0.6819930678990  0.3629623824756 1.0
C      1  0.3699011374359  0.6819576915918  0.5481974128228 1.0
C      1  0.6072900675959  0.6819000589869  0.5889036753106 1.0
C      1  0.5861823197487  0.4085603545424  0.4494909032850 1.0
C      1  0.5005544694303  0.4086552806708  0.5998993157799 1.0
C      1  0.4130648237217  0.4085994572424  0.4506008787786 1.0
C      1  0.5864655445077  0.5907835546467  0.4495334390150 1.0
C      1  0.5008303293369  0.5907674386883  0.5998930282398 1.0
C      1  0.4132850349938  0.5905351035119  0.4506128535946 1.0
C      1  0.5861825671684  0.4085591281469  0.5505114243224 1.0
C      1  0.5005557580418  0.4086560340161  0.4001021666713 1.0
C      1  0.4130652865219  0.4085997710637  0.5494002049012 1.0
C      1  0.5864648843175  0.5907829143963  0.5504633178760 1.0
C      1  0.5008299867440  0.5907687414297  0.4001050524743 1.0
C      1  0.4132842294485  0.5905351847777  0.5493844773663 1.0
C      1  0.3518849852458  0.3307151182947  0.3426433673159 1.0
C      1  0.7101150254273  0.3305907804746  0.4506050361002 1.0
C      1  0.4375638938502  0.3307635219997  0.7066003409093 1.0
C      1  0.3519930692238  0.6685900503286  0.3428965332292 1.0
C      1  0.7108140833933  0.6683039764478  0.4505940541308 1.0
C      1  0.4375059654811  0.6685317284318  0.7066159270470 1.0
C      1  0.3518833770351  0.3307157105910  0.6573573523574 1.0
C      1  0.7101157492538  0.3305905462567  0.5494001930435 1.0
C      1  0.4375663161689  0.3307629338676  0.2934021702019 1.0
C      1  0.3519940389281  0.6685904199445  0.6571010289301 1.0
C      1  0.7108122361024  0.6683042683846  0.5494068756721 1.0
C      1  0.4375043364034  0.6685315361034  0.2933805573952 1.0
C      1  0.7394503843566  0.5832526352156  0.5872529365762 1.0
C      1  0.3046565827710  0.5834801194100  0.6631010264493 1.0
C      1  0.4555738527943  0.5833024567558  0.2498330895792 1.0
C      1  0.7387754590099  0.4157940980082  0.5871268412419 1.0
C      1  0.3048603363777  0.4159597198186  0.6633057630651 1.0
C      1  0.4559276037777  0.4160232039978  0.2497772361542 1.0
C      1  0.7394521345600  0.5832510618603  0.4127506572604 1.0
C      1  0.3046542950069  0.5834794492184  0.3368961322447 1.0
C      1  0.4555766825729  0.5833033231738  0.7501647569735 1.0
C      1  0.7387745797412  0.4157916805883  0.4128752290038 1.0
C      1  0.3048632841676  0.4159594666558  0.3366946900714 1.0
C      1  0.4559239607722  0.4160244304870  0.7502242364462 1.0
C      1  0.6529240024790  0.5467505040791  0.3866250680492 1.0
C      1  0.5221083494136  0.5467883199207  0.6888870658307 1.0
C      1  0.3258561989923  0.5466734107474  0.4243866400721 1.0
C      1  0.6525931426078  0.4526797525435  0.3873160539618 1.0
C      1  0.5214903281848  0.4527299916858  0.6885094738842 1.0
C      1  0.3254066661706  0.4525865934489  0.4245702103200 1.0
C      1  0.6529204154947  0.5467498694449  0.6133681963961 1.0
C      1  0.5221113333720  0.5467887394160  0.3111087974742 1.0
C      1  0.3258553303733  0.5466737524459  0.5756102693124 1.0
C      1  0.6525923204551  0.4526810336248  0.6126917897833 1.0
C      1  0.5214893747644  0.4527327793673  0.3114938692632 1.0
C      1  0.3254067466676  0.4525855164042  0.5754308026806 1.0
C      1  0.3185700894196  0.4997067274230  0.7187982906160 1.0
C      1  0.7803826409221  0.4995330497884  0.4527049117506 1.0
C      1  0.3185705319777  0.4997049411371  0.2812007041768 1.0
C      1  0.7803819856220  0.4995321537056  0.5472983891426 1.0
C      1  0.4006483403949  0.4996894999461  0.2341537269826 1.0
C      1  0.4006474252884  0.4996905362496  0.7658453573643 1.0
C      1  0.6182300769372  0.5024236030495  0.2955109973126 1.0
C      1  0.6182283954641  0.5023840305636  0.7044861144546 1.0
C      1  0.2637732654455  0.4981508761967  0.4999993131160 1.0
END
