TITL C-9681-9713-25 -4.158 3375.00 -706.65413609 0 0 86 (C1) n - 1
REM
REM Run started: at 2021.01.04 11:27:23 in /gpfs/home/chem/mssmkc/CARBON/AIRSS/Generating-Clusters/Str-Search/Higher-Symm/C4-100
REM VASP from code version vasp.5.4.4.18Apr17-6-g9f103f2a35 (build Oct 11 2019 16:45:47) gamma-only
REM
REM
REM
REM
REM ./C.cell (6bd13a13d554368a30d355f37ece5b26)
REM AIRSS Version 0.9.1 bugfix July 2018 build 013d7b7c2542+ Fri, 06 Jul 2018 19:26:36 +0100
REM compiler GCC version 6.3.0
REM options -cpp -iprefix /gpfs/warwick/csc/orac/software/Core/GCCcore/6.3.0/bin/../lib/gcc/x86_64-pc-linux-gnu/6.3.0/ -mtune=generic -march=x86-64 -g -O0
REM seed 1962555793 -2136073706 -2090649969 -225336512 -1270014706 -1205307058 111817881 -921561283 -21234990 -368613260 -42706006 666300777
REM
REM C.POTCAR (d86ddea03c3ceb6dc662c8ad6801f873)
REM 
CELL 1.54180   15.00000   15.00000   15.00000   90.00000   90.00000   90.00000
LATT -1
SFAC C  
C      1  0.3358039779225  0.4567965617084  0.7316127588608 1.0
C      1  0.2444072080180  0.3997677853516  0.4296823299164 1.0
C      1  0.4990699544968  0.3904886378345  0.2225949355773 1.0
C      1  0.7636188914947  0.3827610104214  0.4038132215667 1.0
C      1  0.6928936099985  0.3701756089486  0.7078368522293 1.0
C      1  0.3897720444317  0.6100485401356  0.7377475662201 1.0
C      1  0.2068247592905  0.5596514532725  0.4424263302939 1.0
C      1  0.4683000739346  0.5469767706882  0.2055263965898 1.0
C      1  0.7768075201634  0.5407871022240  0.3893785117874 1.0
C      1  0.7045341310846  0.5366205768268  0.7117204262487 1.0
C      1  0.4934047422793  0.3116856664526  0.2801963734996 1.0
C      1  0.7163981852097  0.2947995538517  0.4091211152888 1.0
C      1  0.6675834190371  0.2828062368868  0.6604272963445 1.0
C      1  0.4331154075776  0.3183195666499  0.6709562553606 1.0
C      1  0.3026474458677  0.3217640195219  0.4562490388524 1.0
C      1  0.3863641481850  0.6870934911542  0.3317830204005 1.0
C      1  0.6195699446369  0.6731870713721  0.3537401236047 1.0
C      1  0.6754579090239  0.6909484439881  0.5918362726204 1.0
C      1  0.4408511878207  0.6969934493199  0.7040054391358 1.0
C      1  0.2629689448474  0.7460087058805  0.5345488632780 1.0
C      1  0.3581992606391  0.7252284044375  0.6605927967987 1.0
C      1  0.2831052511884  0.7181783062752  0.4484329385074 1.0
C      1  0.4724227708801  0.6915845510494  0.2952084272350 1.0
C      1  0.6794403783610  0.6788818388972  0.4260289249075 1.0
C      1  0.6138182127209  0.6806154379090  0.6606235603664 1.0
C      1  0.3503071800161  0.3249356036660  0.6237252364140 1.0
C      1  0.3501206696999  0.3259983072390  0.3715108750884 1.0
C      1  0.5881626787849  0.3132175354307  0.3023596806682 1.0
C      1  0.7234095758310  0.2911213018695  0.5065424303335 1.0
C      1  0.5833966677370  0.2795215952715  0.7058494800184 1.0
C      1  0.2632331578827  0.6276372316876  0.4197149879098 1.0
C      1  0.5050682933600  0.6100400268733  0.2575292678391 1.0
C      1  0.7277455869719  0.5956571357184  0.4430615541652 1.0
C      1  0.6287442818340  0.5938024621092  0.7024269109343 1.0
C      1  0.3271137304441  0.6359931404878  0.6675679413939 1.0
C      1  0.3087036023049  0.4133116185806  0.3549014576612 1.0
C      1  0.5890384857628  0.4036173688367  0.2708603584693 1.0
C      1  0.7378407022176  0.3838485430689  0.5001587503199 1.0
C      1  0.6022153301409  0.3700332391344  0.7414076113004 1.0
C      1  0.3141227517798  0.4123898520862  0.6509206845534 1.0
C      1  0.3595065660853  0.4935102607983  0.3500865434801 1.0
C      1  0.5909919955368  0.4781591636890  0.3303833592969 1.0
C      1  0.6739301985907  0.4508364279370  0.5223161942087 1.0
C      1  0.5462398319524  0.4425334064543  0.7145348580865 1.0
C      1  0.3205636636645  0.4809254781120  0.5835685492276 1.0
C      1  0.3487081402383  0.5958675283484  0.3709158240823 1.0
C      1  0.5755516123781  0.5799163537007  0.3243663736818 1.0
C      1  0.6787413264404  0.5450074782883  0.5099944081415 1.0
C      1  0.5563117161112  0.5345878599156  0.6853134335220 1.0
C      1  0.3319191227755  0.5734087927292  0.5941505846241 1.0
C      1  0.5027113522708  0.2145922896765  0.5761330997562 1.0
C      1  0.4321297669741  0.2368389410389  0.5125493444039 1.0
C      1  0.4731562996395  0.2389027658572  0.4254133611901 1.0
C      1  0.5687544692753  0.2276764834235  0.4364045656314 1.0
C      1  0.5869911228559  0.2131119331893  0.5304841281633 1.0
C      1  0.5092530549697  0.7779900415409  0.5784403869692 1.0
C      1  0.4225762886639  0.8010403848223  0.5409757885044 1.0
C      1  0.4283209376608  0.7990859918671  0.4448592719199 1.0
C      1  0.5209450127335  0.7858430503798  0.4219103324498 1.0
C      1  0.5708719875600  0.7766467816804  0.5041124396853 1.0
C      1  0.5228334380530  0.7216155660871  0.6572163460788 1.0
C      1  0.3416041450974  0.7742236670985  0.5819197197719 1.0
C      1  0.3611820165834  0.7492802086674  0.3998844520897 1.0
C      1  0.5435157701811  0.7331288430259  0.3473142583480 1.0
C      1  0.6506538998024  0.7257568484634  0.5067842163121 1.0
C      1  0.5027339723998  0.2541945294668  0.6627414768605 1.0
C      1  0.3505485338385  0.2872981695482  0.5338302559742 1.0
C      1  0.4336113703034  0.2863110136310  0.3513464246733 1.0
C      1  0.6301336930782  0.2702321161020  0.3758666443626 1.0
C      1  0.6672215607232  0.2507319379612  0.5704258716053 1.0
C      1  0.4162477460960  0.5727951456791  0.5404984933193 1.0
C      1  0.4312762865585  0.5820536281343  0.4400588214591 1.0
C      1  0.5306229100580  0.5710359161391  0.4233645194206 1.0
C      1  0.5788349557126  0.5543768248428  0.5141349527615 1.0
C      1  0.5104941461148  0.5464748201831  0.5934305591900 1.0
C      1  0.4033030269557  0.4700400140662  0.5224196305663 1.0
C      1  0.4295076768963  0.4792502441957  0.4197842424473 1.0
C      1  0.5355010769301  0.4672387298219  0.4132104151472 1.0
C      1  0.5725365983287  0.4486837541588  0.5089347717196 1.0
C      1  0.4784914681174  0.4027954791769  0.6625171509652 1.0
C      1  0.3749724062155  0.5239632549166  0.7664519539587 1.0
C      1  0.7863467185685  0.4604246716638  0.3638199351480 1.0
C      1  0.7287699183957  0.4561585474476  0.7038680367184 1.0
C      1  0.2036942097061  0.4763799405585  0.4589655983756 1.0
C      1  0.4523259515565  0.4638894683367  0.1988457239297 1.0
C      1  0.4863574634749  0.4474749940615  0.5749288792124 1.0
END
