TITL C-9681-9713-79 -3.73 3375.00 -668.67205777 0 0 82 (C1) n - 1
REM
REM Run started: at 2021.01.04 20:27:21 in /gpfs/home/chem/mssmkc/CARBON/AIRSS/Generating-Clusters/Str-Search/Higher-Symm/C4-100
REM VASP from code version vasp.5.4.4.18Apr17-6-g9f103f2a35 (build Oct 11 2019 16:45:47) gamma-only
REM
REM
REM
REM
REM ./C.cell (6bd13a13d554368a30d355f37ece5b26)
REM AIRSS Version 0.9.1 bugfix July 2018 build 013d7b7c2542+ Fri, 06 Jul 2018 19:26:36 +0100
REM compiler GCC version 6.3.0
REM options -cpp -iprefix /gpfs/warwick/csc/orac/software/Core/GCCcore/6.3.0/bin/../lib/gcc/x86_64-pc-linux-gnu/6.3.0/ -mtune=generic -march=x86-64 -g -O0
REM seed -1627951594 -1688112633 1074044428 -415753789 -506564708 1867506330 -1683338111 750795050 -1430603172 -1141351249 -1986980028 -959909641
REM
REM C.POTCAR (d86ddea03c3ceb6dc662c8ad6801f873)
REM 
CELL 1.54180   15.00000   15.00000   15.00000   90.00000   90.00000   90.00000
LATT -1
SFAC C  
C      1  0.5058508248383  0.6279229376227  0.4056289017326 1.0
C      1  0.5917353888883  0.5891509143134  0.5488651804940 1.0
C      1  0.4273297448395  0.5917855065110  0.5582032647504 1.0
C      1  0.6442334550870  0.2568566942665  0.4515728482862 1.0
C      1  0.4661523044307  0.2569961500680  0.6571788596267 1.0
C      1  0.3768893225815  0.2608569635376  0.3949384997574 1.0
C      1  0.6672849438110  0.5334903913677  0.6759209333575 1.0
C      1  0.2790398624032  0.5466649136604  0.5637974960436 1.0
C      1  0.5737701558293  0.5386918709906  0.2795810620999 1.0
C      1  0.4626827747698  0.3429366102727  0.7164778425595 1.0
C      1  0.3317821201912  0.3480505762008  0.3619888309447 1.0
C      1  0.7007456880623  0.3413897210514  0.4287262442925 1.0
C      1  0.5323577689319  0.4886129542760  0.7644538637289 1.0
C      1  0.2979965743989  0.5034125817528  0.4092240819442 1.0
C      1  0.7161487009308  0.4879168047614  0.3504261901366 1.0
C      1  0.2795161548708  0.4486844250573  0.5844393117210 1.0
C      1  0.5473000718681  0.4441820946368  0.2702706575320 1.0
C      1  0.6826935147027  0.4384995624660  0.6573884912661 1.0
C      1  0.6002794747974  0.3713763965746  0.3070466187421 1.0
C      1  0.6197955464857  0.3685035134233  0.6854559977165 1.0
C      1  0.2818767091948  0.3758805117441  0.5161735881745 1.0
C      1  0.2780877337194  0.5755604613599  0.4764943455395 1.0
C      1  0.6583733709394  0.5563110419278  0.3149477020532 1.0
C      1  0.5947871757469  0.5540953684180  0.7315864334355 1.0
C      1  0.5422224291399  0.7866190778972  0.3235422119909 1.0
C      1  0.6050243106285  0.7858218863489  0.5448649105595 1.0
C      1  0.3249106186073  0.7615459278751  0.5691143645760 1.0
C      1  0.4478435424489  0.3471100445100  0.6160293404097 1.0
C      1  0.4263211181536  0.3476758109240  0.4010264735663 1.0
C      1  0.6177016380337  0.3462083582537  0.4881283015593 1.0
C      1  0.5480472243197  0.2155528097069  0.6342543597390 1.0
C      1  0.3593163054719  0.2226316691280  0.4799827554341 1.0
C      1  0.5844558749083  0.2170852104760  0.3896316718893 1.0
C      1  0.4058301069675  0.3611366640008  0.2948284794670 1.0
C      1  0.7231111159050  0.3521833530554  0.5245197920823 1.0
C      1  0.3680474172824  0.3557310975424  0.6877671182747 1.0
C      1  0.4554673934860  0.2815908505798  0.3260724238736 1.0
C      1  0.6669043470747  0.2766032622152  0.5517450639292 1.0
C      1  0.3680635167001  0.2782652303650  0.6268348412636 1.0
C      1  0.4095326398141  0.5037712374225  0.4169083631761 1.0
C      1  0.6057832346600  0.5061476008850  0.4925363468403 1.0
C      1  0.4569740417185  0.5058054858333  0.6014252218922 1.0
C      1  0.7514436384519  0.6364752976731  0.4441142552279 1.0
C      1  0.4399713281820  0.6406042226413  0.7489394664740 1.0
C      1  0.3377577086888  0.6417265430828  0.3360207886320 1.0
C      1  0.3398917304018  0.7479047871150  0.6519015567953 1.0
C      1  0.4667995669365  0.7505306066821  0.2944171422150 1.0
C      1  0.6820761922321  0.7475999537803  0.5457217949991 1.0
C      1  0.3642858997732  0.6690123984699  0.6907566652007 1.0
C      1  0.4212514778578  0.6711163496206  0.2888252325991 1.0
C      1  0.7272172354998  0.6691652086587  0.5356088247752 1.0
C      1  0.7318557491540  0.4301027491173  0.5758083856796 1.0
C      1  0.3244060995993  0.4370493706667  0.6664069801241 1.0
C      1  0.4523468222182  0.4384676414855  0.2661565290743 1.0
C      1  0.5199335854073  0.7980293178564  0.5309560653773 1.0
C      1  0.3613641153838  0.7430701126047  0.4876673507423 1.0
C      1  0.4995354665382  0.7317564240339  0.3944655222084 1.0
C      1  0.4469559414662  0.5409186675707  0.7538731777547 1.0
C      1  0.3236093853783  0.5505656197733  0.3224292056610 1.0
C      1  0.7482215314790  0.5381709230054  0.4333825166474 1.0
C      1  0.4886839898024  0.5907813405440  0.3086343908721 1.0
C      1  0.6862667639967  0.5853375950786  0.5858783593614 1.0
C      1  0.3463775168875  0.5910489332419  0.6284309095226 1.0
C      1  0.5892671547669  0.5979477364175  0.4497631600903 1.0
C      1  0.5126229760400  0.5936141770647  0.6048943090681 1.0
C      1  0.4246678729379  0.5952942532731  0.4581760067486 1.0
C      1  0.6164196172937  0.2799217287809  0.6372414304397 1.0
C      1  0.3203316197078  0.2833960515836  0.5388886558698 1.0
C      1  0.5558698658379  0.2830829441728  0.3292294149950 1.0
C      1  0.6843105690714  0.3975653384375  0.3505418098448 1.0
C      1  0.5421635288892  0.3972774077652  0.7372912609469 1.0
C      1  0.2809833101667  0.4057279394859  0.4254261981224 1.0
C      1  0.6711406747091  0.6165478581360  0.3942764703729 1.0
C      1  0.5212623127021  0.6162506919727  0.7021022864941 1.0
C      1  0.3366646895056  0.6539608703716  0.4387717922942 1.0
C      1  0.7076332277325  0.5076225938847  0.5210846702746 1.0
C      1  0.3875799163383  0.5115267442073  0.6765496879123 1.0
C      1  0.4195886096876  0.5167508429080  0.3136339054656 1.0
C      1  0.4574493421375  0.4220782016306  0.4548293932343 1.0
C      1  0.5541568693034  0.4216662609775  0.4929708229312 1.0
C      1  0.4742596044282  0.4196602548708  0.5560176307469 1.0
C      1  0.4537967357706  0.7710277980773  0.4739107877467 1.0
END
