TITL C-9681-9713-66 -3.863 3375.00 -643.26679005 0 0 78 (C1) n - 1
REM
REM Run started: at 2021.01.04 18:03:23 in /gpfs/home/chem/mssmkc/CARBON/AIRSS/Generating-Clusters/Str-Search/Higher-Symm/C4-100
REM VASP from code version vasp.5.4.4.18Apr17-6-g9f103f2a35 (build Oct 11 2019 16:45:47) gamma-only
REM
REM
REM
REM
REM ./C.cell (6bd13a13d554368a30d355f37ece5b26)
REM AIRSS Version 0.9.1 bugfix July 2018 build 013d7b7c2542+ Fri, 06 Jul 2018 19:26:36 +0100
REM compiler GCC version 6.3.0
REM options -cpp -iprefix /gpfs/warwick/csc/orac/software/Core/GCCcore/6.3.0/bin/../lib/gcc/x86_64-pc-linux-gnu/6.3.0/ -mtune=generic -march=x86-64 -g -O0
REM seed 945353824 1464990370 77864615 -193364697 -1347356943 842284068 30355636 2116647625 -2022832465 -1285767750 -117951740 747515575
REM
REM C.POTCAR (d86ddea03c3ceb6dc662c8ad6801f873)
REM 
CELL 1.54180   15.00000   15.00000   15.00000   90.00000   90.00000   90.00000
LATT -1
SFAC C  
C      1  0.3745498648842  0.5341108814841  0.7141440914605 1.0
C      1  0.3582559824866  0.4247642976733  0.3105268135930 1.0
C      1  0.7842352262069  0.4815450313291  0.4809560294437 1.0
C      1  0.4560711609903  0.2572287542922  0.5798111496206 1.0
C      1  0.4103867646099  0.2534414357616  0.4195269039570 1.0
C      1  0.5679392920675  0.2489489053774  0.4618572042129 1.0
C      1  0.2093034856865  0.4266555505532  0.4913971450674 1.0
C      1  0.6713649422706  0.3907582142942  0.2645854630697 1.0
C      1  0.6283989177217  0.4215960852291  0.7136158914644 1.0
C      1  0.7954282724601  0.5244877029315  0.5635148592055 1.0
C      1  0.2981434426124  0.5789923991351  0.6696245599734 1.0
C      1  0.4742365963042  0.5858780623554  0.2582431489935 1.0
C      1  0.4876877792105  0.3123875334686  0.6553142745777 1.0
C      1  0.3223058011448  0.2959938312367  0.4060599464543 1.0
C      1  0.6326197658056  0.2931792884395  0.4052381249980 1.0
C      1  0.3331782384006  0.7041311112068  0.4375139670391 1.0
C      1  0.5600856365447  0.7111237170428  0.3744637638965 1.0
C      1  0.6695954503477  0.6665252280380  0.7210730000151 1.0
C      1  0.2570986843037  0.5115705715004  0.6139694163796 1.0
C      1  0.5172280941295  0.5150138360615  0.2145262880055 1.0
C      1  0.7508184429260  0.4731875077937  0.6322870987966 1.0
C      1  0.5387548608613  0.4365821591942  0.7443388129427 1.0
C      1  0.2255276578196  0.4270200516537  0.3951886564147 1.0
C      1  0.7237744740231  0.3829387689589  0.3286673905802 1.0
C      1  0.3545957791436  0.5403853742803  0.4544665451588 1.0
C      1  0.6745882222431  0.6040143035030  0.4292634547371 1.0
C      1  0.4926826880442  0.6611304840227  0.7258374207124 1.0
C      1  0.7427516012725  0.5954810586811  0.2704224468263 1.0
C      1  0.5966079636807  0.5791260565557  0.8011029076488 1.0
C      1  0.2091615093545  0.5878758376150  0.3957351721022 1.0
C      1  0.2389537912295  0.5131015862409  0.3521723874259 1.0
C      1  0.7954278814615  0.5892442396177  0.3349249070887 1.0
C      1  0.5231586417731  0.5215700938075  0.7853736315309 1.0
C      1  0.4506344136038  0.6322896485590  0.5687912372546 1.0
C      1  0.4397639592381  0.5536904148145  0.5138663274513 1.0
C      1  0.5306592193877  0.5367127767107  0.4884263719313 1.0
C      1  0.7389212305453  0.3974368629360  0.4938067016295 1.0
C      1  0.3820851165451  0.4418023712225  0.6863617681881 1.0
C      1  0.4256581566865  0.4004440500639  0.2604969775390 1.0
C      1  0.3981183989382  0.6044145305380  0.3128778879704 1.0
C      1  0.7961730089852  0.6131383723423  0.5264116002489 1.0
C      1  0.2850864012780  0.6685691263220  0.6505606558524 1.0
C      1  0.6081384791277  0.5619222872298  0.4774886020251 1.0
C      1  0.4747950605086  0.6743400475574  0.6353179957807 1.0
C      1  0.3694215076449  0.4841781402525  0.5285167282221 1.0
C      1  0.3900733515569  0.2517600518856  0.5175860842344 1.0
C      1  0.4981974260848  0.2576023340691  0.3919430592294 1.0
C      1  0.5485711513569  0.2476228868758  0.5502289414358 1.0
C      1  0.3177639569026  0.4335337484357  0.6062210841144 1.0
C      1  0.5086433356481  0.4200684930616  0.2299683150022 1.0
C      1  0.7195951664686  0.3928129507271  0.5894885339372 1.0
C      1  0.2838020822367  0.6206457320082  0.4529838099886 1.0
C      1  0.6367950410702  0.6616392618559  0.3615227002426 1.0
C      1  0.5805217850579  0.6674807800857  0.7620561625161 1.0
C      1  0.6795752368839  0.5718408616660  0.7563918528022 1.0
C      1  0.1961851229277  0.5902044350366  0.4878410335113 1.0
C      1  0.6518586915447  0.6237107024532  0.2707011990708 1.0
C      1  0.3430553849686  0.5220399177134  0.3445813095666 1.0
C      1  0.7716562054112  0.5716832766208  0.4297832675970 1.0
C      1  0.4498339008870  0.5756008844927  0.7554749319991 1.0
C      1  0.4627351255109  0.3919141792640  0.7008558166102 1.0
C      1  0.2926475697374  0.3692290599807  0.3578976174521 1.0
C      1  0.7078799585863  0.3509643166940  0.4160354528682 1.0
C      1  0.1974043907187  0.5114199617883  0.5394973213426 1.0
C      1  0.5703411135687  0.5900874992665  0.2367831344509 1.0
C      1  0.6975680052383  0.4922760489027  0.7092084477285 1.0
C      1  0.2661910299571  0.3677725375084  0.5447722891251 1.0
C      1  0.5808316740857  0.3656780001652  0.2635339561393 1.0
C      1  0.6473812142367  0.3582271226996  0.6441588515402 1.0
C      1  0.3956422657307  0.6884564766256  0.3658625925569 1.0
C      1  0.7593577465128  0.6775315943762  0.5799841147624 1.0
C      1  0.2963791786778  0.7287337758415  0.5909889391035 1.0
C      1  0.3053876541713  0.2955844241610  0.5023201477662 1.0
C      1  0.5679292639226  0.3007046301685  0.3332438192691 1.0
C      1  0.5787500609316  0.2977714251486  0.6277258336838 1.0
C      1  0.4803068580968  0.7313765643788  0.3689210477082 1.0
C      1  0.7165186850185  0.6971171834149  0.6497048477007 1.0
C      1  0.3262484017823  0.7579802947444  0.5130675574586 1.0
END
