TITL C-9681-9713-61 -2.972 3375.00 -504.73623995 0 0 63 (C1) n - 1
REM
REM Run started: at 2021.01.04 16:35:20 in /gpfs/home/chem/mssmkc/CARBON/AIRSS/Generating-Clusters/Str-Search/Higher-Symm/C4-100
REM VASP from code version vasp.5.4.4.18Apr17-6-g9f103f2a35 (build Oct 11 2019 16:45:47) gamma-only
REM
REM
REM
REM
REM ./C.cell (6bd13a13d554368a30d355f37ece5b26)
REM AIRSS Version 0.9.1 bugfix July 2018 build 013d7b7c2542+ Fri, 06 Jul 2018 19:26:36 +0100
REM compiler GCC version 6.3.0
REM options -cpp -iprefix /gpfs/warwick/csc/orac/software/Core/GCCcore/6.3.0/bin/../lib/gcc/x86_64-pc-linux-gnu/6.3.0/ -mtune=generic -march=x86-64 -g -O0
REM seed -1061647604 2045196624 -610278674 -1409687851 1109374615 155337818 1108461048 700744230 -237225555 -1126864407 -2023534511 690198305
REM
REM C.POTCAR (d86ddea03c3ceb6dc662c8ad6801f873)
REM 
CELL 1.54180   15.00000   15.00000   15.00000   90.00000   90.00000   90.00000
LATT -1
SFAC C  
C      1  0.5203757400564  0.3507254347603  0.6861543354409 1.0
C      1  0.4281152227389  0.3733974310296  0.6902002057591 1.0
C      1  0.3737486399754  0.4503441059873  0.6970273062979 1.0
C      1  0.3788149394110  0.5452622439117  0.7080748730026 1.0
C      1  0.4370061274628  0.6198898207560  0.7111456848669 1.0
C      1  0.5312226744740  0.6355593721166  0.7079397917303 1.0
C      1  0.6035458469956  0.5752990702746  0.7011847109950 1.0
C      1  0.6345905089428  0.4861584812280  0.6913759336319 1.0
C      1  0.6025368064136  0.3971839015832  0.6870841019962 1.0
C      1  0.2751662446563  0.5945520394152  0.5652394693414 1.0
C      1  0.3820874797860  0.7084045794359  0.5516431305816 1.0
C      1  0.5348708648611  0.7300355149013  0.5281284552859 1.0
C      1  0.6993523767421  0.6406676589304  0.5715324266277 1.0
C      1  0.7394823707663  0.4889252065542  0.5360849222679 1.0
C      1  0.6785960482564  0.3295036876557  0.5393558053495 1.0
C      1  0.5264109148596  0.2506566627612  0.5344407969214 1.0
C      1  0.3595272605986  0.2933378115422  0.5442546825913 1.0
C      1  0.2666320744784  0.4358871742788  0.5450313398180 1.0
C      1  0.3651680206014  0.4911599759709  0.3283383147302 1.0
C      1  0.3857334480111  0.5862940429369  0.3121580691039 1.0
C      1  0.4615457039547  0.6431392676154  0.3120495213335 1.0
C      1  0.5554019772984  0.6299193501949  0.3242516879160 1.0
C      1  0.6267383595459  0.5621677744423  0.3255200642574 1.0
C      1  0.6349605298380  0.4706986855095  0.3261065281718 1.0
C      1  0.5784957200008  0.3878553055107  0.3273707931255 1.0
C      1  0.4906098880818  0.3628412101532  0.3281505922010 1.0
C      1  0.4013697000684  0.4071354139921  0.3286797593325 1.0
C      1  0.4478350563926  0.7545827188290  0.5018958067346 1.0
C      1  0.6931612140741  0.7037372160232  0.5016318849171 1.0
C      1  0.7631259989816  0.5816672986273  0.5283936335982 1.0
C      1  0.7589155468095  0.3886513015835  0.5246136398598 1.0
C      1  0.6275531539957  0.2405602423883  0.5225118414951 1.0
C      1  0.4283270478673  0.2200476016578  0.5284640929560 1.0
C      1  0.2677585015106  0.3373018659334  0.5275845313987 1.0
C      1  0.2178114851907  0.5227626799151  0.5398976523219 1.0
C      1  0.3005168171443  0.6733087446655  0.5155413122055 1.0
C      1  0.3151401089747  0.3137655225900  0.4545303437798 1.0
C      1  0.2481950686757  0.4887119615410  0.4570880830273 1.0
C      1  0.2916901143800  0.6783595292590  0.4226448627716 1.0
C      1  0.4324457444156  0.7774638677364  0.4104309961504 1.0
C      1  0.6100603430379  0.7297084712141  0.4668400744630 1.0
C      1  0.7428781962688  0.6359667420238  0.4471542322572 1.0
C      1  0.7602178958042  0.4370842722680  0.4471770216658 1.0
C      1  0.6565546272021  0.2865308646435  0.4500974755964 1.0
C      1  0.4756971248242  0.2307273920122  0.4498654686335 1.0
C      1  0.6175840873497  0.5955410843519  0.6032604582777 1.0
C      1  0.6475301934178  0.4914418650747  0.5880381206678 1.0
C      1  0.6107251524684  0.3930274324089  0.5843872830972 1.0
C      1  0.5192709097299  0.3424879454848  0.5824480927371 1.0
C      1  0.4174466571986  0.3675421284940  0.5878970923396 1.0
C      1  0.3560643264957  0.4536366511656  0.5949130396275 1.0
C      1  0.3595175761955  0.5600103762434  0.6091747522639 1.0
C      1  0.4269611916915  0.6395126159486  0.6093498359710 1.0
C      1  0.5314893869236  0.6572116400503  0.5994697439211 1.0
C      1  0.3657776517264  0.3290290565721  0.3775131142716 1.0
C      1  0.2847570031083  0.5164344991048  0.3793585086365 1.0
C      1  0.3041882677773  0.6127064751300  0.3615019700215 1.0
C      1  0.4414173278849  0.7310653166480  0.3427123905354 1.0
C      1  0.6123600186312  0.6879462473223  0.3784792407890 1.0
C      1  0.6886084549615  0.6270109734915  0.3718047977969 1.0
C      1  0.7031446365299  0.4202550071518  0.3740837664725 1.0
C      1  0.6515233572928  0.3397652516923  0.3733641416381 1.0
C      1  0.4516440661916  0.2874356173059  0.3773564944262 1.0
END
