TITL C-98542-6645-17 -3.925 3375.00 -644.67486382 0 0 80 (D2h) n - 1
REM
REM Run started: at 2020.11.28 20:07:47 in /rds/project/t2_vol4/rds-t2-cs072/BORA/CARBON/AIRSS/Generating-Clusters/Str-Search/Higher-Symm/C10-100
REM VASP from code version vasp.5.4.4.18Apr17-6-g9f103f2a35 (build Oct 11 2019 16:45:47) gamma-only
REM
REM
REM
REM
REM ./C.cell (f39ce9773e2efe3fa5bbdf770a4156b8)
REM AIRSS Version 0.9.1 bugfix July 2018 build 013d7b7c2542+ Fri, 06 Jul 2018 19:26:36 +0100
REM compiler GCC version 4.8.5 20150623 (Red Hat 4.8.5-39)
REM options -cpp -mtune=generic -march=x86-64 -g -O0
REM seed 41896771 47551742 1678970494 863055348 1663018583 -840193479 -1423158900 1624019031 518542431 2111111525 581932538 -582361465
REM
REM C.POTCAR (d86ddea03c3ceb6dc662c8ad6801f873)
REM 
CELL 1.54180   15.00000   15.00000   15.00000   90.00000   90.00000   90.00000
LATT -1
SFAC C  
C      1  0.4460254162942  0.3796365590729  0.4492159178467 1.0
C      1  0.5539745904759  0.3796365353018  0.5507841765973 1.0
C      1  0.4460254094669  0.6203634651152  0.4492158236888 1.0
C      1  0.5539745835827  0.6203634400938  0.5507840822569 1.0
C      1  0.5539745804530  0.3796365349399  0.4492159170100 1.0
C      1  0.4460254143698  0.3796365107820  0.5507841757953 1.0
C      1  0.5539745854956  0.6203634881394  0.4492158235603 1.0
C      1  0.4460254196689  0.6203634659179  0.5507840823077 1.0
C      1  0.2486432556396  0.3777664462708  0.5907040861552 1.0
C      1  0.7513567686660  0.3777664665443  0.4092961075557 1.0
C      1  0.2486432317333  0.6222335377672  0.5907038913542 1.0
C      1  0.7513567452054  0.6222335505724  0.4092959129280 1.0
C      1  0.7513567496458  0.3777664002323  0.5907041036205 1.0
C      1  0.2486432283139  0.3777664138150  0.4092960923323 1.0
C      1  0.7513567735011  0.6222335830041  0.5907039087918 1.0
C      1  0.2486432508434  0.6222336037198  0.4092958980246 1.0
C      1  0.2228452071117  0.5455235861535  0.6073140040190 1.0
C      1  0.7771547834786  0.5455236059012  0.3926858641448 1.0
C      1  0.2228452155904  0.4544763994190  0.6073141363127 1.0
C      1  0.7771547916685  0.4544764083227  0.3926859974004 1.0
C      1  0.7771548525127  0.5455235764862  0.6073138145718 1.0
C      1  0.2228451545784  0.5455235848201  0.3926860497630 1.0
C      1  0.7771548443861  0.4544764095940  0.6073139479750 1.0
C      1  0.2228451464334  0.4544764291159  0.3926861845236 1.0
C      1  0.3993208543985  0.3667873828710  0.2655734512925 1.0
C      1  0.6006791285193  0.3667874350187  0.7344265737769 1.0
C      1  0.3993208717880  0.6332125644305  0.2655734259298 1.0
C      1  0.6006791447606  0.6332126165243  0.7344265490723 1.0
C      1  0.6006791515307  0.3667873914694  0.2655734355663 1.0
C      1  0.3993208640162  0.3667874420393  0.7344265865878 1.0
C      1  0.6006791357569  0.6332125571314  0.2655734128181 1.0
C      1  0.3993208487889  0.6332126082250  0.7344265646154 1.0
C      1  0.5543262486034  0.5526314937028  0.2934994715186 1.0
C      1  0.4456737396432  0.5526315583323  0.7065004553245 1.0
C      1  0.5543262604870  0.4473684416804  0.2934995441772 1.0
C      1  0.4456737520435  0.4473685060935  0.7065005274884 1.0
C      1  0.4456737394880  0.5526314959032  0.2934994619600 1.0
C      1  0.5543262727712  0.5526315594610  0.7065004649717 1.0
C      1  0.4456737281063  0.4473684413623  0.2934995354311 1.0
C      1  0.5543262603130  0.4473685041517  0.7065005380047 1.0
C      1  0.3919945914648  0.7015080609040  0.3118685691076 1.0
C      1  0.6080054511049  0.7015080503289  0.6881312953779 1.0
C      1  0.3919945497391  0.2984919500394  0.3118687043566 1.0
C      1  0.6080054090580  0.2984919398196  0.6881314317032 1.0
C      1  0.6080054382175  0.7015080384909  0.3118685417517 1.0
C      1  0.3919945209707  0.7015080286908  0.6881313207659 1.0
C      1  0.6080054789965  0.2984919707331  0.3118686795593 1.0
C      1  0.3919945620688  0.2984919627017  0.6881314583950 1.0
C      1  0.5800090651138  0.4549329775101  0.3929216052329 1.0
C      1  0.4199909341035  0.4549329760372  0.6070784660368 1.0
C      1  0.5800090659674  0.5450670288641  0.3929215348634 1.0
C      1  0.4199909347002  0.5450670172448  0.6070783955482 1.0
C      1  0.4199909301944  0.4549328283762  0.3929216253060 1.0
C      1  0.5800090714510  0.4549328180788  0.6070784442484 1.0
C      1  0.4199909283757  0.5450671779539  0.3929215550257 1.0
C      1  0.5800090699093  0.5450671755388  0.6070783737586 1.0
C      1  0.4469668368504  0.7817951118915  0.4543575577967 1.0
C      1  0.5530331729681  0.7817951125303  0.5456423750134 1.0
C      1  0.4469668265758  0.2182048874979  0.4543576247895 1.0
C      1  0.5530331637424  0.2182048876024  0.5456424423861 1.0
C      1  0.5530331741580  0.7817951206880  0.4543575274151 1.0
C      1  0.4469668181176  0.7817951200251  0.5456424055384 1.0
C      1  0.5530331823210  0.2182048791952  0.4543575945131 1.0
C      1  0.4469668253656  0.2182048791778  0.5456424728214 1.0
C      1  0.6096019894409  0.2859810739814  0.5910228281520 1.0
C      1  0.3903979722792  0.2859810663363  0.4089772605964 1.0
C      1  0.6096020279991  0.7140189340211  0.5910227396813 1.0
C      1  0.3903980108544  0.7140189250339  0.4089771718257 1.0
C      1  0.3903980066058  0.2859810902262  0.5910228324440 1.0
C      1  0.6096020308390  0.2859810844295  0.4089772557952 1.0
C      1  0.3903979693256  0.7140189149030  0.5910227439979 1.0
C      1  0.6096019935012  0.7140189095416  0.4089771680855 1.0
C      1  0.3016547512293  0.6886051595077  0.5464959944983 1.0
C      1  0.6983452334026  0.6886051613233  0.4535038845411 1.0
C      1  0.3016547657963  0.3113948395427  0.5464961155128 1.0
C      1  0.6983452483980  0.3113948404111  0.4535040056417 1.0
C      1  0.6983452362361  0.6886051843870  0.5464960175465 1.0
C      1  0.3016547775427  0.6886051852860  0.4535038617465 1.0
C      1  0.6983452218958  0.3113948150052  0.5464961388128 1.0
C      1  0.3016547629895  0.3113948166451  0.4535039827401 1.0
END
