TITL C-98542-6645-23 -3.061 3375.00 -500.92158239 0 0 62 (C2) n - 1
REM
REM Run started: at 2020.11.28 23:20:13 in /rds/project/t2_vol4/rds-t2-cs072/BORA/CARBON/AIRSS/Generating-Clusters/Str-Search/Higher-Symm/C10-100
REM VASP from code version vasp.5.4.4.18Apr17-6-g9f103f2a35 (build Oct 11 2019 16:45:47) gamma-only
REM
REM
REM
REM
REM ./C.cell (f39ce9773e2efe3fa5bbdf770a4156b8)
REM AIRSS Version 0.9.1 bugfix July 2018 build 013d7b7c2542+ Fri, 06 Jul 2018 19:26:36 +0100
REM compiler GCC version 4.8.5 20150623 (Red Hat 4.8.5-39)
REM options -cpp -mtune=generic -march=x86-64 -g -O0
REM seed 550189275 535095954 -1715845929 -186026576 2032731256 -207154823 917418996 -349025220 1103635829 -380950638 -982820119 -39591167
REM
REM C.POTCAR (d86ddea03c3ceb6dc662c8ad6801f873)
REM 
CELL 1.54180   15.00000   15.00000   15.00000   90.00000   90.00000   90.00000
LATT -1
SFAC C  
C      1  0.3819791583197  0.2634053867177  0.5505080189512 1.0
C      1  0.6180171146833  0.2634091676650  0.4494923717660 1.0
C      1  0.6413076783302  0.7073307849842  0.5884556444907 1.0
C      1  0.3587043925437  0.7073280901436  0.4115589235972 1.0
C      1  0.6245333696478  0.4689810216367  0.6943963082064 1.0
C      1  0.3754674258991  0.4689810581913  0.3056011701379 1.0
C      1  0.3962703066079  0.5295924993689  0.7384027046169 1.0
C      1  0.6037272483038  0.5295936886938  0.2615952144713 1.0
C      1  0.4878773703490  0.7668172034109  0.5467999230030 1.0
C      1  0.5121344243940  0.7668155860670  0.4531985382224 1.0
C      1  0.5199082045261  0.1903516962043  0.5438746034997 1.0
C      1  0.4800899843093  0.1903521250341  0.4561233938867 1.0
C      1  0.6739196651466  0.4680698590530  0.6145450516134 1.0
C      1  0.3260797003454  0.4680721054177  0.3854521852463 1.0
C      1  0.3225394045144  0.5694453349167  0.6106136713862 1.0
C      1  0.6774586035420  0.5694617672722  0.3893910973761 1.0
C      1  0.4314831673277  0.5314122401440  0.2617246107803 1.0
C      1  0.5685153989962  0.5314098266131  0.7382740719506 1.0
C      1  0.5772040649710  0.4362403328461  0.2738777118056 1.0
C      1  0.4227946177545  0.4362391555042  0.7261214347893 1.0
C      1  0.4223483186023  0.6244343838905  0.2873313299552 1.0
C      1  0.5776493297292  0.6244313614589  0.7126708691903 1.0
C      1  0.5769436843488  0.3555958450836  0.3229254172414 1.0
C      1  0.4230536384181  0.3555932163006  0.6770750274321 1.0
C      1  0.4180588336625  0.6844800606061  0.6625424096823 1.0
C      1  0.5819404647645  0.6844833437395  0.3374468421830 1.0
C      1  0.5877482217290  0.3073834216365  0.6244059021875 1.0
C      1  0.4122492924588  0.3073837866985  0.3755934629623 1.0
C      1  0.5351250481037  0.5989120929031  0.5218180638626 1.0
C      1  0.4648906168467  0.5989051161328  0.4781850042951 1.0
C      1  0.4619675522904  0.4281977221484  0.5169698808746 1.0
C      1  0.5380222471031  0.4282017248661  0.4830322184825 1.0
C      1  0.5955085484133  0.7435348881116  0.4108808408677 1.0
C      1  0.4045014778390  0.7435357651083  0.5891104916294 1.0
C      1  0.4013606072259  0.2474205967989  0.4555274765866 1.0
C      1  0.5986356977916  0.2474219099006  0.5444710729086 1.0
C      1  0.4453316200791  0.7435146713487  0.3870119781355 1.0
C      1  0.5546745072384  0.7435161473122  0.6129929697085 1.0
C      1  0.5429815684060  0.2249324504644  0.3968284777874 1.0
C      1  0.4570164017504  0.2249291127470  0.6031714066018 1.0
C      1  0.6329034397513  0.6035013368450  0.3174540144588 1.0
C      1  0.3670940689605  0.6034987905795  0.6825402599428 1.0
C      1  0.3673201580644  0.3876076429248  0.3539527316831 1.0
C      1  0.6326768427819  0.3876074434414  0.6460449782541 1.0
C      1  0.4851986598628  0.6910631262282  0.3160944956992 1.0
C      1  0.5148000961367  0.6910596703934  0.6839037234400 1.0
C      1  0.5041103788342  0.2922268709930  0.3407199498451 1.0
C      1  0.4958873163814  0.2922242395353  0.6592800111694 1.0
C      1  0.3472102079900  0.6415774127851  0.3450368649989 1.0
C      1  0.6527933031128  0.6415795530173  0.6549759454226 1.0
C      1  0.6393649311963  0.3416712931386  0.4010339829668 1.0
C      1  0.3606307350350  0.3416664907509  0.5989684940434 1.0
C      1  0.3137035754745  0.5308408121303  0.4543240952211 1.0
C      1  0.6862960305743  0.5308385796088  0.5456733623001 1.0
C      1  0.6809768525012  0.5064012110915  0.4520872699986 1.0
C      1  0.3190147917275  0.5063948288886  0.5479094142792 1.0
C      1  0.6271461219835  0.6097620345710  0.5597765714656 1.0
C      1  0.3728676774248  0.6097540122028  0.4402294016272 1.0
C      1  0.3785655996855  0.4270985203793  0.5554564706452 1.0
C      1  0.6214224645151  0.4271046610323  0.4445428975981 1.0
C      1  0.4824598655712  0.5003204265339  0.7587228221182 1.0
C      1  0.5175379051225  0.5003222957880  0.2412744504507 1.0
END
