TITL C-98542-6645-9 -3.576 3375.00 -648.13073568 0 0 80 (C2v) n - 1
REM
REM Run started: at 2020.11.28 16:51:06 in /rds/project/t2_vol4/rds-t2-cs072/BORA/CARBON/AIRSS/Generating-Clusters/Str-Search/Higher-Symm/C10-100
REM VASP from code version vasp.5.4.4.18Apr17-6-g9f103f2a35 (build Oct 11 2019 16:45:47) gamma-only
REM
REM
REM
REM
REM ./C.cell (f39ce9773e2efe3fa5bbdf770a4156b8)
REM AIRSS Version 0.9.1 bugfix July 2018 build 013d7b7c2542+ Fri, 06 Jul 2018 19:26:36 +0100
REM compiler GCC version 4.8.5 20150623 (Red Hat 4.8.5-39)
REM options -cpp -mtune=generic -march=x86-64 -g -O0
REM seed 1817172706 1748141054 432824831 1328336654 1525609551 -1957064314 1763049585 1137444206 114204292 1352352814 1975780325 370152688
REM
REM C.POTCAR (d86ddea03c3ceb6dc662c8ad6801f873)
REM 
CELL 1.54180   15.00000   15.00000   15.00000   90.00000   90.00000   90.00000
LATT -1
SFAC C  
C      1  0.6740364244260  0.4517530880204  0.6831783304977 1.0
C      1  0.6768006042076  0.6744856806030  0.4530214514590 1.0
C      1  0.6768252398451  0.3761760570649  0.3661814600961 1.0
C      1  0.3312756406546  0.4517431240797  0.6831639305461 1.0
C      1  0.3286227659209  0.6745380861243  0.4529442614073 1.0
C      1  0.3287653676700  0.3759623094217  0.3661642955956 1.0
C      1  0.6740194532033  0.5473289143568  0.6830716339756 1.0
C      1  0.6768824327103  0.3245004352749  0.4531193280709 1.0
C      1  0.6766875300270  0.6228387210440  0.3661145146175 1.0
C      1  0.3312639079850  0.5472898845821  0.6832771399988 1.0
C      1  0.3286636794084  0.3243424745250  0.4530052934304 1.0
C      1  0.3286533601876  0.6228571285628  0.3660935300125 1.0
C      1  0.1862197150894  0.5464260401163  0.5716935942759 1.0
C      1  0.1870760729221  0.5489070510754  0.4084384109550 1.0
C      1  0.1866016299232  0.3997482185183  0.4892896899355 1.0
C      1  0.8197290024278  0.5467437595136  0.5719843193145 1.0
C      1  0.8184373513489  0.5490603925142  0.4086523311759 1.0
C      1  0.8190595381793  0.4000278929007  0.4893038751067 1.0
C      1  0.1861162637199  0.4523684370184  0.5718067463516 1.0
C      1  0.1871781843290  0.4498952516105  0.4085839358146 1.0
C      1  0.1866933149669  0.5989460445319  0.4891790150557 1.0
C      1  0.8195574570709  0.4526349102807  0.5718369800386 1.0
C      1  0.8186112792344  0.4500624008521  0.4085202022398 1.0
C      1  0.8191133884371  0.5992461184163  0.4893392501039 1.0
C      1  0.4562171875886  0.5518929735475  0.2556041863103 1.0
C      1  0.4561401117647  0.2652691677096  0.5755153087900 1.0
C      1  0.4560402253176  0.6832520340291  0.6683495891293 1.0
C      1  0.5487004369081  0.5518199736373  0.2556839352227 1.0
C      1  0.5488893617765  0.2652307124636  0.5755965839954 1.0
C      1  0.5488952735149  0.6832855133838  0.6682600493833 1.0
C      1  0.4562747911987  0.4469508556667  0.2556601401244 1.0
C      1  0.4561104193035  0.7336610427516  0.5754646231066 1.0
C      1  0.4559020914197  0.3156711338166  0.6684050050232 1.0
C      1  0.5487572251681  0.4470258774298  0.2556727854293 1.0
C      1  0.5488495613462  0.7336694399293  0.5755092861456 1.0
C      1  0.5487610004361  0.3157420731067  0.6682760551730 1.0
C      1  0.5538059077950  0.4492588330400  0.5883174663384 1.0
C      1  0.5540490628291  0.5985941352548  0.5000487189190 1.0
C      1  0.5539922738774  0.4497731399870  0.4123029710879 1.0
C      1  0.4514343552314  0.4493145559425  0.5882685678818 1.0
C      1  0.4512921219366  0.5985943266660  0.5000156759965 1.0
C      1  0.4513515519100  0.4497477042097  0.4122841688361 1.0
C      1  0.5537663448550  0.5496461652644  0.5882814468435 1.0
C      1  0.5540220993509  0.4002745711805  0.5000832248138 1.0
C      1  0.5539703760661  0.5491297894439  0.4122723578089 1.0
C      1  0.4514034819018  0.5496924260841  0.5882754754469 1.0
C      1  0.4512664336729  0.4002873439140  0.5000603267880 1.0
C      1  0.4513176766626  0.5491098151469  0.4122580237305 1.0
C      1  0.2747551687452  0.4169142079395  0.6031078502610 1.0
C      1  0.2636333766576  0.6513250452833  0.5166066370981 1.0
C      1  0.2646298972192  0.4450012935499  0.3531879841900 1.0
C      1  0.7310685671522  0.4168215045537  0.6033931772644 1.0
C      1  0.7419946021168  0.6514145835099  0.5166283421788 1.0
C      1  0.7411642450106  0.4450706454919  0.3530461105496 1.0
C      1  0.2746937487719  0.5821676056613  0.6032325279226 1.0
C      1  0.2636350438006  0.3475357477497  0.5166855957587 1.0
C      1  0.2645249596704  0.5538312169302  0.3530092519502 1.0
C      1  0.7309729629052  0.5821122499054  0.6032122217936 1.0
C      1  0.7420495963540  0.3477017391092  0.5166907478410 1.0
C      1  0.7410148644055  0.5538974604181  0.3531921915991 1.0
C      1  0.5826736819247  0.5899436072725  0.6839317731448 1.0
C      1  0.5826756844787  0.6082694692296  0.3312657906942 1.0
C      1  0.5831994122033  0.3014007336104  0.4875706632213 1.0
C      1  0.4225798725181  0.5898581611574  0.6840706539920 1.0
C      1  0.4225860547447  0.6083055432002  0.3312929112705 1.0
C      1  0.4221970632246  0.3013612583175  0.4874626969951 1.0
C      1  0.5826343144229  0.4090694051840  0.6840164468443 1.0
C      1  0.5828022060610  0.3906876000688  0.3313241746559 1.0
C      1  0.5831751813086  0.6974790035375  0.4875044613552 1.0
C      1  0.4225275573670  0.4091237251258  0.6840161932380 1.0
C      1  0.4226945706427  0.3905177305051  0.3313377452394 1.0
C      1  0.4221945317142  0.6974703995766  0.4873953843386 1.0
C      1  0.5026419543933  0.6727149242739  0.3466638756323 1.0
C      1  0.5027986434162  0.3261666943000  0.3467231532204 1.0
C      1  0.5027401222763  0.2820322772906  0.4249463261570 1.0
C      1  0.5027004924657  0.7168454093157  0.4248884772299 1.0
C      1  0.5026436303782  0.5445982623379  0.7297336141303 1.0
C      1  0.5026091211011  0.4544205978453  0.7297430388850 1.0
C      1  0.7176199108303  0.4994280734208  0.5437737043179 1.0
C      1  0.2882785859928  0.4995778997148  0.5436159846312 1.0
END
