TITL C-98773-3633-7 -5.75 3375.00 -1039.54964423 0 0 124 (C1) n - 1
REM
REM Run started: at 2020.12.23 12:45:27 in /rds/project/t2_vol4/rds-t2-cs072/BORA/CARBON/AIRSS/Generating-Clusters/Str-Search/Higher-Symm/C100-200
REM VASP from code version vasp.5.4.4.18Apr17-6-g9f103f2a35 (build Oct 11 2019 16:45:47) gamma-only
REM
REM
REM
REM
REM ./C.cell (533062f00bc710175b3da973d35f2034)
REM AIRSS Version 0.9.1 bugfix July 2018 build 013d7b7c2542+ Fri, 06 Jul 2018 19:26:36 +0100
REM compiler GCC version 4.8.5 20150623 (Red Hat 4.8.5-39)
REM options -cpp -mtune=generic -march=x86-64 -g -O0
REM seed 1742594342 207042672 60436735 1997318046 19209739 -132962747 -1771374395 -765730021 14127029 -75300624 1118218489 1352617166
REM
REM C.POTCAR (d86ddea03c3ceb6dc662c8ad6801f873)
REM 
CELL 1.54180   15.00000   15.00000   15.00000   90.00000   90.00000   90.00000
LATT -1
SFAC C  
C      1  0.7366456182739  0.5874231949022  0.6614008613821 1.0
C      1  0.5833694544827  0.6428906444805  0.7165052202714 1.0
C      1  0.6739503981011  0.7266515628322  0.5831707572628 1.0
C      1  0.7251218065909  0.4123960538961  0.3379016474563 1.0
C      1  0.2799946056701  0.5814450806400  0.3370784727303 1.0
C      1  0.2765304935861  0.4180600008863  0.6724346957559 1.0
C      1  0.5896830129493  0.3431443982340  0.2581018681977 1.0
C      1  0.4157046565499  0.6570084158136  0.2691338858262 1.0
C      1  0.4181688193736  0.3406514805411  0.7321637927152 1.0
C      1  0.6564884605687  0.2750887062744  0.4090009581759 1.0
C      1  0.3426828535994  0.7223911321997  0.4097271913456 1.0
C      1  0.3665674801305  0.2898272440697  0.5780889359731 1.0
C      1  0.7376734553510  0.6592688960066  0.5849425314586 1.0
C      1  0.5529614560423  0.7867113064411  0.7001433302310 1.0
C      1  0.6730667026055  0.5858249293707  0.7313556948047 1.0
C      1  0.7246704508510  0.3402098477310  0.4079402661008 1.0
C      1  0.2253409076439  0.3044752603587  0.5475627182094 1.0
C      1  0.2762290574585  0.6559324093671  0.4092421185147 1.0
C      1  0.5789881018168  0.2789468427765  0.3373354840018 1.0
C      1  0.4210865527758  0.2725046305308  0.6661656144311 1.0
C      1  0.4146548832833  0.7240943884619  0.3397165363449 1.0
C      1  0.6576025171991  0.4123300716725  0.2669709892329 1.0
C      1  0.3444547021061  0.4158524377188  0.7356912692932 1.0
C      1  0.3451897924359  0.5905450445055  0.2592080158191 1.0
C      1  0.5663317266423  0.8248958584965  0.5042635641688 1.0
C      1  0.8342334162374  0.4967310315596  0.5650212700992 1.0
C      1  0.5031758176793  0.5754073528148  0.8334865260184 1.0
C      1  0.5656910662835  0.1724750388824  0.4947666266838 1.0
C      1  0.4286922168719  0.8267198002291  0.4981567664038 1.0
C      1  0.4287645596159  0.1707672993979  0.4924231995079 1.0
C      1  0.8325527363375  0.4970509726240  0.4264386769295 1.0
C      1  0.1613925167658  0.5012937329876  0.4178627114448 1.0
C      1  0.1765677641311  0.4928838389404  0.5592972592265 1.0
C      1  0.5066020066086  0.4370828908341  0.1551744060301 1.0
C      1  0.5071865466507  0.5748713511143  0.1624922808012 1.0
C      1  0.5065813740560  0.4356387166317  0.8318232976394 1.0
C      1  0.5744431043852  0.5036648740219  0.8288711434305 1.0
C      1  0.8355644792537  0.5658434248399  0.4950816061466 1.0
C      1  0.4893348802541  0.8359515426196  0.5711856286297 1.0
C      1  0.5759368232426  0.5050103280596  0.1616566826257 1.0
C      1  0.4364296781797  0.5047722928307  0.8343072049008 1.0
C      1  0.4383314903451  0.5071589132240  0.1558294935035 1.0
C      1  0.8303104369463  0.4286530046921  0.4960221985149 1.0
C      1  0.1655921964790  0.4286465346892  0.4828365338829 1.0
C      1  0.1730476113884  0.5640222346148  0.4932703368169 1.0
C      1  0.4983519412725  0.1622809616598  0.4218465722794 1.0
C      1  0.4992081813881  0.1749937772814  0.5630576613432 1.0
C      1  0.5009247697381  0.8241242234864  0.4332139459950 1.0
C      1  0.5962902993345  0.2667683013179  0.6633793017289 1.0
C      1  0.2678758887215  0.6572501823071  0.5869047991633 1.0
C      1  0.6622402463504  0.5894919759441  0.2705577287906 1.0
C      1  0.5929264456356  0.7266146044451  0.3396031398469 1.0
C      1  0.4170521875026  0.2764444946016  0.3292863197140 1.0
C      1  0.3929106795804  0.7373268284012  0.6653872550194 1.0
C      1  0.2701249882286  0.3383605340871  0.3888189025186 1.0
C      1  0.7341729131547  0.6611465185320  0.4066278566001 1.0
C      1  0.7315706415002  0.3361975359053  0.5888684028841 1.0
C      1  0.6698478462382  0.4065615070358  0.7318823759434 1.0
C      1  0.3360536824401  0.5922917525516  0.7320406706201 1.0
C      1  0.3446637141001  0.4135464858034  0.2496397778604 1.0
C      1  0.5927304425202  0.6591276650732  0.2715046274672 1.0
C      1  0.2674147220269  0.5891033080804  0.6606746518116 1.0
C      1  0.6633799390925  0.2683087948760  0.5891898561533 1.0
C      1  0.5976003959536  0.3363566785475  0.7323235889926 1.0
C      1  0.4108848489249  0.3442455621469  0.2491354740750 1.0
C      1  0.4031952034018  0.6654897489898  0.7319050205481 1.0
C      1  0.2780491279436  0.4203272883181  0.3281719416288 1.0
C      1  0.7354614914001  0.4060311932202  0.6611717283128 1.0
C      1  0.7314475150292  0.5899994460784  0.3370884585497 1.0
C      1  0.6645578319880  0.7294649136093  0.4081791769237 1.0
C      1  0.3309376857033  0.7286445023649  0.5883620106460 1.0
C      1  0.3395502714827  0.2749298696769  0.3987925438916 1.0
C      1  0.4488534622226  0.6400864956772  0.5146848205847 1.0
C      1  0.6302641951310  0.4918798997822  0.4284182877110 1.0
C      1  0.5204875101691  0.4431496882507  0.6494895379266 1.0
C      1  0.4276153376667  0.3610762154279  0.5366890794085 1.0
C      1  0.5786551752341  0.6293912316325  0.4952612162623 1.0
C      1  0.5661331942939  0.3712206355529  0.5156874410620 1.0
C      1  0.6475785131985  0.4996913482927  0.5625613833885 1.0
C      1  0.3920068234304  0.5110743143081  0.5942964333733 1.0
C      1  0.3567256329224  0.4986321569351  0.4675471223677 1.0
C      1  0.4904127669480  0.5577920338265  0.3792112198241 1.0
C      1  0.4870888446858  0.4216777143364  0.3822953271448 1.0
C      1  0.5348589330230  0.5832523764483  0.6475092383880 1.0
C      1  0.4606636317606  0.5156119890376  0.6544781549518 1.0
C      1  0.6367369102914  0.4290844755503  0.4998710054433 1.0
C      1  0.5027595969858  0.6288985919396  0.4386841703814 1.0
C      1  0.4200565300422  0.4918987503460  0.3867189988447 1.0
C      1  0.5884049485578  0.5046428520806  0.6301173691875 1.0
C      1  0.5548180882955  0.4902209200001  0.3747881272816 1.0
C      1  0.6400679892847  0.5639510386368  0.4909349680154 1.0
C      1  0.3859043593143  0.5719720130266  0.5260312263750 1.0
C      1  0.3587775286206  0.4321885521204  0.5420528537038 1.0
C      1  0.5092129554346  0.3779951590751  0.5865201431660 1.0
C      1  0.4900793905162  0.3567710961386  0.4598324015332 1.0
C      1  0.5304367483137  0.6535860046332  0.5771995164399 1.0
C      1  0.6377859584603  0.2321160318036  0.4971917552822 1.0
C      1  0.2282943089912  0.4997429676893  0.6404512725101 1.0
C      1  0.5053942149128  0.6406974629876  0.2273281003516 1.0
C      1  0.6441738060951  0.7705446906731  0.4984858794975 1.0
C      1  0.3583954402637  0.2310873176230  0.4881783270446 1.0
C      1  0.3579013223018  0.7662051903596  0.4987857204857 1.0
C      1  0.2103236565005  0.5027381957210  0.3388824273207 1.0
C      1  0.7706375844948  0.4992289862950  0.3568829568247 1.0
C      1  0.7755779916348  0.4964956846247  0.6374560031652 1.0
C      1  0.5079912385879  0.3621648907970  0.7728889626548 1.0
C      1  0.4952504813463  0.6480768239051  0.7763647201371 1.0
C      1  0.5033023897712  0.3636864915511  0.2114098991123 1.0
C      1  0.6422681104316  0.5023002869652  0.2256859592345 1.0
C      1  0.2311621939063  0.6357334197079  0.4958993930286 1.0
C      1  0.5065144218739  0.2292018453130  0.6410443763906 1.0
C      1  0.6497110842765  0.4976539623579  0.7727765890978 1.0
C      1  0.3652968306965  0.5048792398182  0.2126904342427 1.0
C      1  0.3636920920906  0.5049578136588  0.7760326215858 1.0
C      1  0.2121924180143  0.3493479055699  0.4647536870246 1.0
C      1  0.7681207141815  0.3592087054633  0.4976962279503 1.0
C      1  0.7780259048080  0.6383588153889  0.4951576827687 1.0
C      1  0.5024855215951  0.7647411003884  0.3614451453739 1.0
C      1  0.4691469094494  0.7958946854993  0.6541049002150 1.0
C      1  0.4992410930404  0.2088634837434  0.3415498308540 1.0
C      1  0.2922649736903  0.3616580229622  0.5913886087816 1.0
C      1  0.3248899902863  0.4969399074003  0.3780150639674 1.0
C      1  0.4929478409658  0.3255056236243  0.3722062918121 1.0
C      1  0.5931178525382  0.7170882268971  0.6437120622733 1.0
END
