TITL C-98289-8891-8 -5.47 3375.00 -912.86660940 0 0 112 (C1) n - 1
REM
REM Run started: at 2020.12.01 19:16:34 in /rds/project/t2_vol4/rds-t2-cs072/BORA/CARBON/AIRSS/Generating-Clusters/Str-Search/Higher-Symm/C100-200
REM VASP from code version vasp.5.4.4.18Apr17-6-g9f103f2a35 (build Oct 11 2019 16:45:47) gamma-only
REM
REM
REM
REM
REM ./C.cell (533062f00bc710175b3da973d35f2034)
REM AIRSS Version 0.9.1 bugfix July 2018 build 013d7b7c2542+ Fri, 06 Jul 2018 19:26:36 +0100
REM compiler GCC version 4.8.5 20150623 (Red Hat 4.8.5-39)
REM options -cpp -mtune=generic -march=x86-64 -g -O0
REM seed -1404370957 177219393 -1727010862 -234316595 -1538420202 -2015213356 -1936365736 -986668817 751637673 478207657 1255444886 -2063114416
REM
REM C.POTCAR (d86ddea03c3ceb6dc662c8ad6801f873)
REM 
CELL 1.54180   15.00000   15.00000   15.00000   90.00000   90.00000   90.00000
LATT -1
SFAC C  
C      1  0.5288836480808  0.6582185073009  0.7742225156215 1.0
C      1  0.2360585566099  0.6415638015314  0.3641253413755 1.0
C      1  0.7488624322746  0.6267005272892  0.3717460866585 1.0
C      1  0.5302625893608  0.5609767107198  0.3100039805785 1.0
C      1  0.6517429475995  0.4905172759441  0.6692980172039 1.0
C      1  0.3959299536056  0.6042603917698  0.5138271035976 1.0
C      1  0.5179945062294  0.6906665655973  0.4192235813643 1.0
C      1  0.5899801378799  0.7542616653483  0.5174444561817 1.0
C      1  0.4943069458683  0.7227147360855  0.5026371947889 1.0
C      1  0.6830152256413  0.2582049927988  0.4855422316632 1.0
C      1  0.4014941880092  0.2557881870157  0.6482864772340 1.0
C      1  0.3941968503077  0.2587713950915  0.3486919525750 1.0
C      1  0.4035957856519  0.6973288226745  0.5435192619736 1.0
C      1  0.4967809409523  0.6624386527379  0.3259398804935 1.0
C      1  0.6504722253824  0.7426187668585  0.5867255239458 1.0
C      1  0.5250624875011  0.3391321019767  0.2948113958163 1.0
C      1  0.6663103075547  0.3192474644266  0.6235372608647 1.0
C      1  0.3138377130995  0.2788967669998  0.6070791923288 1.0
C      1  0.7333774699046  0.6888652380280  0.5812678838250 1.0
C      1  0.3605437473453  0.7028712039858  0.6431432462259 1.0
C      1  0.4167801143651  0.6739048042408  0.2637465489803 1.0
C      1  0.4474661031271  0.6060670233640  0.7678984835407 1.0
C      1  0.2724979414620  0.5800240004886  0.2973755173422 1.0
C      1  0.7805862452195  0.5784076972022  0.4492362159536 1.0
C      1  0.7450385092260  0.6465139139451  0.6673621565484 1.0
C      1  0.2712656442676  0.6589802190606  0.6201001075508 1.0
C      1  0.4594436007197  0.6681623447815  0.1785017131707 1.0
C      1  0.4490263044510  0.5102566536662  0.7985498430699 1.0
C      1  0.2577348122090  0.4822496492605  0.2986981138251 1.0
C      1  0.7945910823153  0.4829618470665  0.4293044607695 1.0
C      1  0.3692506001131  0.5348563759761  0.4800001437057 1.0
C      1  0.5779428775015  0.5181847122315  0.3692126953301 1.0
C      1  0.5795350185337  0.5002978503801  0.6314948601654 1.0
C      1  0.7240391735820  0.4550759849754  0.7217496209122 1.0
C      1  0.2334439233029  0.4446726065515  0.6110172965329 1.0
C      1  0.5400545201198  0.5179835179423  0.2134594397178 1.0
C      1  0.7959334759624  0.5726620561192  0.6290174669714 1.0
C      1  0.2868784961882  0.5896649404255  0.6854131463910 1.0
C      1  0.4008848997440  0.5915093313888  0.1644429193951 1.0
C      1  0.4808815339378  0.4426510981306  0.7424322677474 1.0
C      1  0.2730165239849  0.4331888251272  0.3779379273902 1.0
C      1  0.7264077833217  0.4360131542806  0.3844464520083 1.0
C      1  0.8058820887886  0.4886861004394  0.6676216709728 1.0
C      1  0.2544624263133  0.4979947604578  0.6892681486740 1.0
C      1  0.4536211610492  0.5151950994159  0.1608416782002 1.0
C      1  0.2767603461526  0.8221426416452  0.3415778158928 1.0
C      1  0.6104652332142  0.7302509830455  0.4230409170568 1.0
C      1  0.4661176366923  0.7936200979441  0.7012693373526 1.0
C      1  0.2587137043712  0.7312498690629  0.3513521538866 1.0
C      1  0.6944050879586  0.7017158600725  0.3783967370543 1.0
C      1  0.5394066495470  0.7420165539933  0.7221096348982 1.0
C      1  0.6299497485384  0.4554388605299  0.4058071369555 1.0
C      1  0.4983306869081  0.4555238662721  0.6457157688205 1.0
C      1  0.3526624387037  0.4566548764867  0.4325942158476 1.0
C      1  0.3195437492066  0.7371228189670  0.4991817391721 1.0
C      1  0.5709901236302  0.7124672954985  0.2701035963982 1.0
C      1  0.6234092980803  0.7363401265973  0.6804035159610 1.0
C      1  0.4461088830325  0.2081048939415  0.4135702186955 1.0
C      1  0.5942415372366  0.2150879161731  0.4901179466631 1.0
C      1  0.4546142053568  0.2081489417751  0.5780328882009 1.0
C      1  0.5210118840414  0.4082457718483  0.2233289245259 1.0
C      1  0.7402253978143  0.3653541286960  0.6694490521750 1.0
C      1  0.2866581259202  0.3679925859327  0.6499861073361 1.0
C      1  0.7430571652641  0.5949202913110  0.2825632196204 1.0
C      1  0.6197251101759  0.6265961264329  0.7929238716133 1.0
C      1  0.2073903484562  0.6244818007339  0.4572994748577 1.0
C      1  0.2513618911677  0.3386459165371  0.3834403124051 1.0
C      1  0.7369369865204  0.3462916749181  0.3521355422949 1.0
C      1  0.4906486373086  0.3478909130992  0.7660889303833 1.0
C      1  0.6347606887714  0.7518573076067  0.3261870638123 1.0
C      1  0.3849267163716  0.7903043769351  0.6834121646468 1.0
C      1  0.3060479861633  0.7815915314111  0.4207848959997 1.0
C      1  0.7806781559643  0.6143851119860  0.5370089193034 1.0
C      1  0.3720826925370  0.6280634152372  0.7135309488989 1.0
C      1  0.3408918534904  0.6146881067763  0.2426846397004 1.0
C      1  0.2472442412417  0.6790967934198  0.5292189373426 1.0
C      1  0.5551615732843  0.6742564039409  0.1815974178349 1.0
C      1  0.6761495152800  0.6714870184066  0.7274898357564 1.0
C      1  0.2758899133493  0.4225406040453  0.7409855811048 1.0
C      1  0.4370238071375  0.4243435572431  0.1811357100508 1.0
C      1  0.8180332514970  0.4013922945560  0.6286424498919 1.0
C      1  0.3111425408799  0.2357729160828  0.5184436522801 1.0
C      1  0.5788980422816  0.2710890720750  0.3303811170248 1.0
C      1  0.5960216532874  0.2626350022296  0.6509211667023 1.0
C      1  0.7048472546208  0.4811831899896  0.8163231691299 1.0
C      1  0.1892093375891  0.4785467519345  0.5398721384820 1.0
C      1  0.6075974164433  0.5911614915830  0.1837041505896 1.0
C      1  0.8639815044746  0.3910238422225  0.5478786832551 1.0
C      1  0.3070656671662  0.4241161429021  0.8294602472167 1.0
C      1  0.3463195508195  0.3977768879965  0.1845372826752 1.0
C      1  0.7259461936177  0.2656404927012  0.4032453185781 1.0
C      1  0.4497695932749  0.2717322651842  0.7301177130885 1.0
C      1  0.3022928911315  0.2646562357214  0.3598383612520 1.0
C      1  0.5415063761094  0.2179629386683  0.4084112912211 1.0
C      1  0.5488867905806  0.2172921829059  0.5757064581552 1.0
C      1  0.4010726896222  0.1986260779458  0.5003074862344 1.0
C      1  0.2626531689684  0.2645553749966  0.4457765485102 1.0
C      1  0.6733412819604  0.2788605989351  0.3269463717167 1.0
C      1  0.5436488450005  0.2768961936057  0.7279995605019 1.0
C      1  0.6953580062214  0.5898618154555  0.2144165034575 1.0
C      1  0.6547636946855  0.5477641648507  0.8261441826199 1.0
C      1  0.1758696825819  0.5444479870788  0.4901129801941 1.0
C      1  0.4310089986098  0.4053452429093  0.4173071475911 1.0
C      1  0.5934761529534  0.4025443453360  0.4803848664306 1.0
C      1  0.4561179912211  0.4061586251822  0.5792948833595 1.0
C      1  0.3804862247428  0.3561136026242  0.6146728045070 1.0
C      1  0.4409725065651  0.3433733607503  0.3420129215678 1.0
C      1  0.6543421867068  0.3416805471147  0.5283921048582 1.0
C      1  0.2801834834167  0.4304956268818  0.2227523769201 1.0
C      1  0.8574544073957  0.4316688490439  0.4762643895643 1.0
C      1  0.3777832257507  0.4682947393633  0.8421243892171 1.0
C      1  0.4970065522708  0.4040501615538  0.4904676315068 1.0
END
