TITL C-994-5573-1 -4.9 3375.00 -833.79999567 0 0 102 (C1) n - 1
REM
REM Run started: at 2020.11.25 04:27:43 in /rds/project/t2_vol4/rds-t2-cs072/BORA/CARBON/AIRSS/Generating-Clusters/Str-Search/Higher-Symm
REM VASP from code version vasp.5.4.4.18Apr17-6-g9f103f2a35 (build Oct 11 2019 16:45:47) gamma-only
REM
REM
REM
REM
REM ./C.cell (e5ae0387ce4d49c7c0135a1433873289)
REM AIRSS Version 0.9.1 bugfix July 2018 build 013d7b7c2542+ Fri, 06 Jul 2018 19:26:36 +0100
REM compiler GCC version 4.8.5 20150623 (Red Hat 4.8.5-39)
REM options -cpp -mtune=generic -march=x86-64 -g -O0
REM seed 1474538122 1417758579 1632801274 2132230160 -338794313 -1137036075 -1590105609 1979122478 1475462531 346667733 -1489897868 -29538600
REM
REM C.POTCAR (d86ddea03c3ceb6dc662c8ad6801f873)
REM 
CELL 1.54180   15.00000   15.00000   15.00000   90.00000   90.00000   90.00000
LATT -1
SFAC C  
C      1  0.4991474320948  0.4048279227243  0.5407365410740 1.0
C      1  0.5433888538288  0.3756434571475  0.6317452400858 1.0
C      1  0.6038166800867  0.5323701824876  0.5552378601755 1.0
C      1  0.5633621323389  0.6260514444513  0.5603188410815 1.0
C      1  0.4724676635334  0.5878975121105  0.5320120785285 1.0
C      1  0.3566062960223  0.4384223169324  0.4755971675286 1.0
C      1  0.4000970421582  0.4064789592755  0.5508850767271 1.0
C      1  0.2996502192706  0.2727962736435  0.6339288227600 1.0
C      1  0.5331312774781  0.2250536972337  0.6427346813924 1.0
C      1  0.7373213590626  0.3753470521638  0.5961507044251 1.0
C      1  0.7602852220179  0.6229295691555  0.5781189675290 1.0
C      1  0.5780474434084  0.7949444676905  0.5840363361421 1.0
C      1  0.3535968631335  0.7219578433487  0.6257456387755 1.0
C      1  0.2352511311849  0.5050377924742  0.6040264060072 1.0
C      1  0.5471460942760  0.5710349456233  0.3840812775988 1.0
C      1  0.4641659466948  0.5619949650382  0.4350664774565 1.0
C      1  0.4195637501764  0.4822969277857  0.4111101139051 1.0
C      1  0.4800364857390  0.4196695654482  0.3600495808283 1.0
C      1  0.5351759406112  0.3909211940511  0.4442378254147 1.0
C      1  0.6047564840643  0.4467987571274  0.4164629072782 1.0
C      1  0.6373435074664  0.5214358493607  0.4655555903239 1.0
C      1  0.7704477037522  0.3438735362187  0.4436704498575 1.0
C      1  0.7908032839779  0.6298487957256  0.4148722499484 1.0
C      1  0.6052467210309  0.8432829009943  0.4100648146858 1.0
C      1  0.2425897264760  0.7375977833711  0.4021617132554 1.0
C      1  0.2009215653783  0.5097357750679  0.4533064615404 1.0
C      1  0.3690547230502  0.2367122572061  0.4055936051874 1.0
C      1  0.5847029851104  0.1799398473925  0.4043929328713 1.0
C      1  0.2908857997059  0.3620481504167  0.6652606465957 1.0
C      1  0.4557879782035  0.2587021672087  0.6866142358109 1.0
C      1  0.6763089979795  0.3552222719631  0.6634229386431 1.0
C      1  0.7364154674268  0.5448068087563  0.6281874705247 1.0
C      1  0.6600436831060  0.7651434802315  0.6218604905130 1.0
C      1  0.4301994592509  0.7523226837665  0.6705977467942 1.0
C      1  0.2996238651184  0.5562468320467  0.6515132310021 1.0
C      1  0.7186332243268  0.6325190836908  0.3615619865741 1.0
C      1  0.5287018720261  0.8253181110625  0.3589248897496 1.0
C      1  0.2361713790307  0.7564472827616  0.3218311827805 1.0
C      1  0.2183855863336  0.4734493113657  0.3721446029458 1.0
C      1  0.4015735696469  0.2756606846856  0.3409199544285 1.0
C      1  0.5965880165267  0.1890357677493  0.3232003261618 1.0
C      1  0.7828824825726  0.3892397843651  0.3590136213421 1.0
C      1  0.4226762760327  0.8363071154929  0.2268327147708 1.0
C      1  0.3377185245691  0.8165261951326  0.2063511407285 1.0
C      1  0.3008701584590  0.4349250624237  0.2397950705948 1.0
C      1  0.3745581513281  0.3912068706365  0.2348653924388 1.0
C      1  0.6350176313960  0.3060388029283  0.2096170271617 1.0
C      1  0.6685650747828  0.3919297065321  0.2304841948194 1.0
C      1  0.6610585049039  0.5598569452700  0.2358768275091 1.0
C      1  0.2585802206006  0.4245165150266  0.4539728115807 1.0
C      1  0.3439193701101  0.2189862464652  0.4940677521607 1.0
C      1  0.5802752243324  0.2011366303875  0.4952183225784 1.0
C      1  0.8189672580995  0.4252603270211  0.4386953270944 1.0
C      1  0.6352705042654  0.6118614990240  0.4202951810626 1.0
C      1  0.4942941910947  0.7898098262041  0.4429004204044 1.0
C      1  0.2689328771501  0.7203176123466  0.4891945942028 1.0
C      1  0.4930220085287  0.4044290457843  0.7850817493538 1.0
C      1  0.5768576547409  0.4456767701220  0.7775224613495 1.0
C      1  0.5752143284131  0.5297570822695  0.8262090657956 1.0
C      1  0.5462240238338  0.6056241226704  0.7676330299024 1.0
C      1  0.4631755723984  0.5922310097692  0.8131192423490 1.0
C      1  0.3986773414769  0.5284281652348  0.7806539514509 1.0
C      1  0.4408192616090  0.4645677846757  0.8390852342264 1.0
C      1  0.3458470143958  0.7608804811637  0.5340157923827 1.0
C      1  0.2032846092548  0.5616822372534  0.5297537711916 1.0
C      1  0.2723691541629  0.2708094255090  0.5401929450059 1.0
C      1  0.5078394560911  0.1857246892359  0.5585815679295 1.0
C      1  0.7220211463095  0.3154967488285  0.5180983458861 1.0
C      1  0.8042612821464  0.5904532408698  0.4962204872839 1.0
C      1  0.5843424675422  0.7749718488414  0.4828840046639 1.0
C      1  0.4664102063027  0.5493335567898  0.6304604970822 1.0
C      1  0.3837825003105  0.5111475835119  0.6828425847793 1.0
C      1  0.3807411899619  0.4082452743326  0.6570495030380 1.0
C      1  0.4636012718031  0.3589205394638  0.6994674989572 1.0
C      1  0.6159875052521  0.4331366044698  0.6869999041617 1.0
C      1  0.6387845393829  0.5255487606926  0.6492081923023 1.0
C      1  0.5570929719620  0.5947227583550  0.6696444247223 1.0
C      1  0.2383491006360  0.4740968903484  0.2842510083062 1.0
C      1  0.4273178946297  0.3557577267581  0.2996757810177 1.0
C      1  0.6109298546568  0.2365380176865  0.2481495944400 1.0
C      1  0.7418026292905  0.4028223773809  0.2800344594843 1.0
C      1  0.6994454393197  0.6269229012291  0.2687216813473 1.0
C      1  0.4869498632202  0.8439480957311  0.2783394412310 1.0
C      1  0.2708702280576  0.7846202212012  0.2445557264065 1.0
C      1  0.7746733119640  0.4649434421130  0.5862071359971 1.0
C      1  0.6981262876486  0.6993901507451  0.5706970397011 1.0
C      1  0.4850513069216  0.7905973398686  0.6012079038660 1.0
C      1  0.2943640651005  0.6471519797266  0.6252080255495 1.0
C      1  0.2321252634405  0.4096576738282  0.6051802786596 1.0
C      1  0.3801330856435  0.2247497739355  0.6433902338876 1.0
C      1  0.6074005660642  0.2898595930016  0.6245273769535 1.0
C      1  0.4316119999430  0.7956682047435  0.5154151735727 1.0
C      1  0.2377357066815  0.6504263045734  0.5453762984444 1.0
C      1  0.2317459026265  0.3561032050833  0.5225724065156 1.0
C      1  0.4086410564005  0.1872395602152  0.5571474934657 1.0
C      1  0.6423818250887  0.2635366605158  0.5351028376676 1.0
C      1  0.8151013435157  0.4924789939801  0.5041084434222 1.0
C      1  0.6219749952716  0.6806371276989  0.4980768575003 1.0
C      1  0.5136524419237  0.4977520697747  0.5627811428291 1.0
C      1  0.6204157510054  0.4782496691307  0.2488352639285 1.0
C      1  0.4974859542149  0.5313505487978  0.8856125461553 1.0
C      1  0.5616191390547  0.4811306758782  0.3311740324797 1.0
END
