TITL C-3036483-1610-818 3.1044553263335e-07 3375 -365.064838345862 0 0 60 (S4) n - 1
REM
REM in /home/bkarasulu/work/CARBON/AIRSS/Generating-Clusters/REBO/Higher-Symm/Only-C60
REM
REM
REM
REM
REM
REM ./C.cell (a2850807a9bf4ad07a5b6933b78d9264)
REM AIRSS Version 0.9.1 bugfix July 2018 build 013d7b7c2542+ Fri, 06 Jul 2018 19:26:36 +0100
REM compiler GCC version 9.2.1 20190827 (Red Hat 9.2.1-1)
REM options -cpp -mtune=generic -march=x86-64 -g -O0 -fpre-include=/usr/include/finclude/math-vector-fortran.h
REM seed 853363701 316551654 1974916458 1502045918 -386770494 357207668 -1715963603 -1727586552 -366154494 1588343127 -196815604 453430856 2038339909 2128061294 -598994435 1125437184 798547969 1806978705 1437998376 1761694258 779943140 1510884667 1232136050 -717240687 320209094 -1337876431 -1472845010 -1462493163 1134939572 503443543 1105955184 68894933 -892389543
REM
CELL 1.54180   15.00000   15.00000   15.00000   90.00000   90.00000   90.00000
LATT -1
SFAC C  
C      1  0.6164450000000  0.5006430000000  0.7323000000000 1.0
C      1  0.3835550000000  0.7323000000000  0.4993570000000 1.0
C      1  0.6164450000000  0.4993570000000  0.2677000000000 1.0
C      1  0.3835550000000  0.2677000000000  0.5006430000000 1.0
C      1  0.6215300000000  0.3787600000000  0.6261640000000 1.0
C      1  0.3784700000000  0.6261640000000  0.6212400000000 1.0
C      1  0.6215300000000  0.6212400000000  0.3738360000000 1.0
C      1  0.3784700000000  0.3738360000000  0.3787600000000 1.0
C      1  0.5401560000000  0.6317820000000  0.6683000000000 1.0
C      1  0.4598440000000  0.6683000000000  0.3682180000000 1.0
C      1  0.5401560000000  0.3682180000000  0.3317000000000 1.0
C      1  0.4598440000000  0.3317000000000  0.6317820000000 1.0
C      1  0.4435620000000  0.7472180000000  0.4268280000000 1.0
C      1  0.5564380000000  0.4268280000000  0.2527820000000 1.0
C      1  0.4435620000000  0.2527820000000  0.5731720000000 1.0
C      1  0.5564380000000  0.5731720000000  0.7472180000000 1.0
C      1  0.3103610000000  0.4416040000000  0.4351080000000 1.0
C      1  0.6896390000000  0.4351080000000  0.5583960000000 1.0
C      1  0.3103610000000  0.5583960000000  0.5648920000000 1.0
C      1  0.6896390000000  0.5648920000000  0.4416040000000 1.0
C      1  0.5176410000000  0.6987680000000  0.6026340000000 1.0
C      1  0.4823590000000  0.6026340000000  0.3012320000000 1.0
C      1  0.5176410000000  0.3012320000000  0.3973660000000 1.0
C      1  0.4823590000000  0.3973660000000  0.6987680000000 1.0
C      1  0.5777910000000  0.5825180000000  0.2983290000000 1.0
C      1  0.4222090000000  0.2983290000000  0.4174820000000 1.0
C      1  0.5777910000000  0.4174820000000  0.7016710000000 1.0
C      1  0.4222090000000  0.7016710000000  0.5825180000000 1.0
C      1  0.5531490000000  0.6308270000000  0.4591780000000 1.0
C      1  0.4468510000000  0.4591780000000  0.3691730000000 1.0
C      1  0.5531490000000  0.3691730000000  0.5408220000000 1.0
C      1  0.4468510000000  0.5408220000000  0.6308270000000 1.0
C      1  0.5523050000000  0.4634470000000  0.3808680000000 1.0
C      1  0.4476950000000  0.3808680000000  0.5365530000000 1.0
C      1  0.5523050000000  0.5365530000000  0.6191320000000 1.0
C      1  0.4476950000000  0.6191320000000  0.4634470000000 1.0
C      1  0.3251310000000  0.4439420000000  0.6797420000000 1.0
C      1  0.6748690000000  0.6797420000000  0.5560580000000 1.0
C      1  0.3251310000000  0.5560580000000  0.3202580000000 1.0
C      1  0.6748690000000  0.3202580000000  0.4439420000000 1.0
C      1  0.7154240000000  0.4040080000000  0.4646310000000 1.0
C      1  0.2845760000000  0.4646310000000  0.5959920000000 1.0
C      1  0.7154240000000  0.5959920000000  0.5353690000000 1.0
C      1  0.2845760000000  0.5353690000000  0.4040080000000 1.0
C      1  0.5866860000000  0.4776780000000  0.5451440000000 1.0
C      1  0.4133140000000  0.5451440000000  0.5223220000000 1.0
C      1  0.5866860000000  0.5223220000000  0.4548560000000 1.0
C      1  0.4133140000000  0.4548560000000  0.4776780000000 1.0
C      1  0.4167880000000  0.5324630000000  0.3072890000000 1.0
C      1  0.5832120000000  0.3072890000000  0.4675370000000 1.0
C      1  0.4167880000000  0.4675370000000  0.6927110000000 1.0
C      1  0.5832120000000  0.6927110000000  0.5324630000000 1.0
C      1  0.7199620000000  0.4742720000000  0.4013310000000 1.0
C      1  0.2800380000000  0.4013310000000  0.5257280000000 1.0
C      1  0.7199620000000  0.5257280000000  0.5986690000000 1.0
C      1  0.2800380000000  0.5986690000000  0.4742720000000 1.0
C      1  0.3002170000000  0.3083910000000  0.5269090000000 1.0
C      1  0.6997830000000  0.5269090000000  0.6916090000000 1.0
C      1  0.3002170000000  0.6916090000000  0.4730910000000 1.0
C      1  0.6997830000000  0.4730910000000  0.3083910000000 1.0
END
