TITL C-3036486-2224-702 -3.01716862872614e-06 3375 -341.74559717736 0 0 60 (C3) n - 1
REM
REM in /home/bkarasulu/work/CARBON/AIRSS/Generating-Clusters/REBO/Higher-Symm/Only-C60
REM
REM
REM
REM
REM
REM ./C.cell (a2850807a9bf4ad07a5b6933b78d9264)
REM AIRSS Version 0.9.1 bugfix July 2018 build 013d7b7c2542+ Fri, 06 Jul 2018 19:26:36 +0100
REM compiler GCC version 9.2.1 20190827 (Red Hat 9.2.1-1)
REM options -cpp -mtune=generic -march=x86-64 -g -O0 -fpre-include=/usr/include/finclude/math-vector-fortran.h
REM seed -1830185897 152911425 -2128514794 1369308113 -82496635 1465659771 -118292421 -2095667112 -33845921 1477945519 1362295387 -371692868 397718622 -1278539929 -594587776 87910396 -1203246565 -247126888 1971019792 995109612 1046294453 -1335754487 561032221 2080175068 537322749 -9821733 -1115889374 2032365737 -530339029 -14575120 -1589012769 -745129507 -2114996661
REM
CELL 1.54180   15.00000   15.00000   15.00000   90.00000   90.00000   90.00000
LATT -1
SFAC C  
C      1  0.5944310000000  0.5788400000000  0.5500010000000 1.0
C      1  0.5944310000000  0.4172780000000  0.5432770000000 1.0
C      1  0.5944310000000  0.5038820000000  0.4067220000000 1.0
C      1  0.5074200000000  0.5087080000000  0.2627310000000 1.0
C      1  0.5074190000000  0.7011270000000  0.6261760000000 1.0
C      1  0.5074190000000  0.2901650000000  0.6110930000000 1.0
C      1  0.4931250000000  0.2966330000000  0.3882750000000 1.0
C      1  0.4931250000000  0.6984390000000  0.3797420000000 1.0
C      1  0.4931240000000  0.5049270000000  0.7319830000000 1.0
C      1  0.5062070000000  0.4048830000000  0.7358550000000 1.0
C      1  0.5062080000000  0.3433030000000  0.2996990000000 1.0
C      1  0.5062080000000  0.7518150000000  0.4644470000000 1.0
C      1  0.4316860000000  0.5842230000000  0.4443320000000 1.0
C      1  0.4316870000000  0.5060980000000  0.6007740000000 1.0
C      1  0.4316860000000  0.4096780000000  0.4548950000000 1.0
C      1  0.6597850000000  0.5836130000000  0.6422970000000 1.0
C      1  0.6597850000000  0.3349610000000  0.5012630000000 1.0
C      1  0.6597850000000  0.5814270000000  0.3564410000000 1.0
C      1  0.6566640000000  0.4107790000000  0.4255410000000 1.0
C      1  0.6566640000000  0.6090940000000  0.4599620000000 1.0
C      1  0.6566640000000  0.4801270000000  0.6144980000000 1.0
C      1  0.4498630000000  0.4220330000000  0.2707540000000 1.0
C      1  0.4498620000000  0.7375160000000  0.5471010000000 1.0
C      1  0.4498610000000  0.3404510000000  0.6821440000000 1.0
C      1  0.3162400000000  0.4309870000000  0.5822180000000 1.0
C      1  0.3162410000000  0.4633030000000  0.3991230000000 1.0
C      1  0.3162410000000  0.6057100000000  0.5186570000000 1.0
C      1  0.5353900000000  0.4213910000000  0.3728450000000 1.0
C      1  0.5353910000000  0.6494250000000  0.4955000000000 1.0
C      1  0.5353910000000  0.4291840000000  0.6316560000000 1.0
C      1  0.3250920000000  0.3989770000000  0.4839870000000 1.0
C      1  0.3250930000000  0.5643780000000  0.4205160000000 1.0
C      1  0.3250930000000  0.5366450000000  0.5954940000000 1.0
C      1  0.3578260000000  0.4359430000000  0.3146830000000 1.0
C      1  0.3578250000000  0.6925170000000  0.5371830000000 1.0
C      1  0.3578250000000  0.3715390000000  0.6481320000000 1.0
C      1  0.7092280000000  0.6750640000000  0.5023180000000 1.0
C      1  0.7092280000000  0.4104610000000  0.6504520000000 1.0
C      1  0.7092280000000  0.4144750000000  0.3472320000000 1.0
C      1  0.4523930000000  0.5996980000000  0.5466640000000 1.0
C      1  0.4523930000000  0.4097390000000  0.5630100000000 1.0
C      1  0.4523930000000  0.4905630000000  0.3903270000000 1.0
C      1  0.3604090000000  0.2949210000000  0.4756180000000 1.0
C      1  0.3604090000000  0.6236550000000  0.3345870000000 1.0
C      1  0.3604080000000  0.5814250000000  0.6897940000000 1.0
C      1  0.5946650000000  0.6780250000000  0.6387860000000 1.0
C      1  0.5946650000000  0.2907960000000  0.5847820000000 1.0
C      1  0.5946660000000  0.5311800000000  0.2764330000000 1.0
C      1  0.4082120000000  0.7007320000000  0.3383430000000 1.0
C      1  0.4082100000000  0.5396330000000  0.7546670000000 1.0
C      1  0.4082110000000  0.2596360000000  0.4069890000000 1.0
C      1  0.5349240000000  0.5405300000000  0.6326960000000 1.0
C      1  0.5349240000000  0.3648170000000  0.4687520000000 1.0
C      1  0.5349240000000  0.5946530000000  0.3985520000000 1.0
C      1  0.6936430000000  0.4922670000000  0.2951230000000 1.0
C      1  0.6936420000000  0.6812960000000  0.5957420000000 1.0
C      1  0.6936420000000  0.3264380000000  0.6091360000000 1.0
C      1  0.4127980000000  0.5450450000000  0.3030060000000 1.0
C      1  0.4127970000000  0.6480800000000  0.6375070000000 1.0
C      1  0.4127970000000  0.3068750000000  0.5594870000000 1.0
END
