TITL C-3036486-2224-786 -0.000162258999467064 3375 -354.34818422608 0 0 60 (C3i) n - 1
REM
REM in /home/bkarasulu/work/CARBON/AIRSS/Generating-Clusters/REBO/Higher-Symm/Only-C60
REM
REM
REM
REM
REM
REM ./C.cell (a2850807a9bf4ad07a5b6933b78d9264)
REM AIRSS Version 0.9.1 bugfix July 2018 build 013d7b7c2542+ Fri, 06 Jul 2018 19:26:36 +0100
REM compiler GCC version 9.2.1 20190827 (Red Hat 9.2.1-1)
REM options -cpp -mtune=generic -march=x86-64 -g -O0 -fpre-include=/usr/include/finclude/math-vector-fortran.h
REM seed 1121479341 -584302447 1243449030 -303915770 -920029441 506581067 1167508819 -287212478 1071347178 -1622218773 478866730 711776925 1870743520 -2100321412 1630412633 1601285012 -1163304636 -2007485677 118410473 -57372894 2090746621 1007979192 1907744883 -1842191673 1640414940 -1611568683 -11476278 -472625974 349475647 460431069 793426130 -610375068 466489590
REM
CELL 1.54180   15.00000   15.00000   15.00000   90.00000   90.00000   90.00000
LATT -1
SFAC C  
C      1  0.6696780000000  0.5401350000000  0.3740420000000 1.0
C      1  0.3303250000000  0.6291540000000  0.4717770000000 1.0
C      1  0.6696760000000  0.5890150000000  0.5977410000000 1.0
C      1  0.3303220000000  0.4598650000000  0.6259580000000 1.0
C      1  0.6696750000000  0.3708460000000  0.5282230000000 1.0
C      1  0.3303250000000  0.4109850000000  0.4022590000000 1.0
C      1  0.4492170000000  0.4048390000000  0.7279270000000 1.0
C      1  0.5507770000000  0.2550280000000  0.5315520000000 1.0
C      1  0.4492220000000  0.3501900000000  0.3036230000000 1.0
C      1  0.5507830000000  0.5951610000000  0.2720730000000 1.0
C      1  0.4492230000000  0.7449720000000  0.4684480000000 1.0
C      1  0.5507780000000  0.6498100000000  0.6963770000000 1.0
C      1  0.6074710000000  0.5054620000000  0.7238980000000 1.0
C      1  0.3925240000000  0.3088320000000  0.6166780000000 1.0
C      1  0.6074730000000  0.3033680000000  0.3927840000000 1.0
C      1  0.3925290000000  0.4945380000000  0.2761020000000 1.0
C      1  0.6074760000000  0.6911680000000  0.3833220000000 1.0
C      1  0.3925270000000  0.6966320000000  0.6072160000000 1.0
C      1  0.5307580000000  0.7341670000000  0.5265310000000 1.0
C      1  0.4692410000000  0.5941080000000  0.7160600000000 1.0
C      1  0.5307540000000  0.3599400000000  0.6895300000000 1.0
C      1  0.4692420000000  0.2658330000000  0.4734690000000 1.0
C      1  0.5307590000000  0.4058920000000  0.2839400000000 1.0
C      1  0.4692460000000  0.6400600000000  0.3104700000000 1.0
C      1  0.7594800000000  0.5771120000000  0.5905490000000 1.0
C      1  0.2405180000000  0.4601440000000  0.6120530000000 1.0
C      1  0.7594790000000  0.3830260000000  0.5215130000000 1.0
C      1  0.2405200000000  0.4228870000000  0.4094510000000 1.0
C      1  0.7594820000000  0.5398560000000  0.3879470000000 1.0
C      1  0.2405210000000  0.6169740000000  0.4784870000000 1.0
C      1  0.6148860000000  0.5981580000000  0.5210220000000 1.0
C      1  0.3851130000000  0.5308760000000  0.5955170000000 1.0
C      1  0.6148840000000  0.4327160000000  0.5745000000000 1.0
C      1  0.3851140000000  0.4018420000000  0.4789780000000 1.0
C      1  0.6148870000000  0.4691240000000  0.4044830000000 1.0
C      1  0.3851160000000  0.5672840000000  0.4255000000000 1.0
C      1  0.3958570000000  0.5808840000000  0.3257260000000 1.0
C      1  0.6041470000000  0.6913650000000  0.4829120000000 1.0
C      1  0.3958530000000  0.6104840000000  0.6571820000000 1.0
C      1  0.6041430000000  0.4191160000000  0.6742740000000 1.0
C      1  0.3958530000000  0.3086350000000  0.5170890000000 1.0
C      1  0.6041470000000  0.3895160000000  0.3428180000000 1.0
C      1  0.5181050000000  0.4884840000000  0.5998900000000 1.0
C      1  0.4818930000000  0.4077350000000  0.5399710000000 1.0
C      1  0.5181060000000  0.4192510000000  0.4400820000000 1.0
C      1  0.4818950000000  0.5115160000000  0.4001100000000 1.0
C      1  0.5181070000000  0.5922650000000  0.4600290000000 1.0
C      1  0.4818940000000  0.5807490000000  0.5599180000000 1.0
C      1  0.6281980000000  0.6149320000000  0.3271570000000 1.0
C      1  0.3718060000000  0.7071550000000  0.5131110000000 1.0
C      1  0.6281940000000  0.5922200000000  0.6859580000000 1.0
C      1  0.3718020000000  0.3850680000000  0.6728430000000 1.0
C      1  0.6281940000000  0.2928450000000  0.4868890000000 1.0
C      1  0.3718060000000  0.4077800000000  0.3140420000000 1.0
C      1  0.5005080000000  0.3160430000000  0.5993000000000 1.0
C      1  0.4994890000000  0.3220250000000  0.3903380000000 1.0
C      1  0.5005130000000  0.5059820000000  0.2910380000000 1.0
C      1  0.4994920000000  0.6839570000000  0.4007000000000 1.0
C      1  0.5005110000000  0.6779750000000  0.6096620000000 1.0
C      1  0.4994870000000  0.4940180000000  0.7089620000000 1.0
END
