TITL C-3036481-494-689 1.93830604069817e-06 3375 -346.500888058113 0 0 60 (C6) n - 1
REM
REM in /home/bkarasulu/work/CARBON/AIRSS/Generating-Clusters/REBO/Higher-Symm/Only-C60
REM
REM
REM
REM
REM
REM ./C.cell (a2850807a9bf4ad07a5b6933b78d9264)
REM AIRSS Version 0.9.1 bugfix July 2018 build 013d7b7c2542+ Fri, 06 Jul 2018 19:26:36 +0100
REM compiler GCC version 9.2.1 20190827 (Red Hat 9.2.1-1)
REM options -cpp -mtune=generic -march=x86-64 -g -O0 -fpre-include=/usr/include/finclude/math-vector-fortran.h
REM seed 205382174 729996872 -144135404 -1796154726 866938882 -1523827280 -2079612347 -2021817463 1045862911 360637850 -1727905411 220900559 -2106189526 -255089646 802167255 1260689268 1931282890 954079213 -1798134409 -337658215 504898803 -1070614429 40595342 -1794756585 -1404461959 1005495554 -1659572081 -109323868 -1534392822 1064636410 -2064670270 787363365 1055323972
REM
CELL 1.54180   15.00000   15.00000   15.00000   90.00000   90.00000   90.00000
LATT -1
SFAC C  
C      1  0.4947130000000  0.4604870000000  0.3918670000000 1.0
C      1  0.4037120000000  0.4604880000000  0.4505130000000 1.0
C      1  0.4089970000000  0.4604850000000  0.5586450000000 1.0
C      1  0.5052880000000  0.4604800000000  0.6081370000000 1.0
C      1  0.5962940000000  0.4604750000000  0.5494900000000 1.0
C      1  0.5910050000000  0.4604800000000  0.4413550000000 1.0
C      1  0.4809410000000  0.3036560000000  0.3918700000000 1.0
C      1  0.3968270000000  0.3036560000000  0.4624400000000 1.0
C      1  0.4158860000000  0.3036560000000  0.5705690000000 1.0
C      1  0.5190570000000  0.3036560000000  0.6081290000000 1.0
C      1  0.6031710000000  0.3036560000000  0.5375590000000 1.0
C      1  0.5841130000000  0.3036560000000  0.4294300000000 1.0
C      1  0.6063850000000  0.6821740000000  0.5268490000000 1.0
C      1  0.5764450000000  0.6821790000000  0.4212840000000 1.0
C      1  0.4700540000000  0.6821860000000  0.3944360000000 1.0
C      1  0.3936080000000  0.6821840000000  0.4731430000000 1.0
C      1  0.4235460000000  0.6821760000000  0.5787050000000 1.0
C      1  0.5299360000000  0.6821720000000  0.6055570000000 1.0
C      1  0.4327310000000  0.5691030000000  0.5850330000000 1.0
C      1  0.5400050000000  0.5690970000000  0.6007770000000 1.0
C      1  0.6072770000000  0.5690970000000  0.5157520000000 1.0
C      1  0.5672810000000  0.5691020000000  0.4149760000000 1.0
C      1  0.4600030000000  0.5691080000000  0.3992260000000 1.0
C      1  0.3927280000000  0.5691080000000  0.4842560000000 1.0
C      1  0.7611430000000  0.5167850000000  0.4683250000000 1.0
C      1  0.6031400000000  0.5167860000000  0.2580060000000 1.0
C      1  0.3419970000000  0.5167850000000  0.2896820000000 1.0
C      1  0.2388590000000  0.5167850000000  0.5316750000000 1.0
C      1  0.3968590000000  0.5167860000000  0.7419940000000 1.0
C      1  0.6580040000000  0.5167860000000  0.7103210000000 1.0
C      1  0.4225580000000  0.5610690000000  0.2716280000000 1.0
C      1  0.2635030000000  0.5610690000000  0.4528810000000 1.0
C      1  0.3409430000000  0.5610690000000  0.6812540000000 1.0
C      1  0.5774430000000  0.5610690000000  0.7283780000000 1.0
C      1  0.7365040000000  0.5610700000000  0.5471210000000 1.0
C      1  0.6590570000000  0.5610700000000  0.3187440000000 1.0
C      1  0.2907910000000  0.6488170000000  0.4533190000000 1.0
C      1  0.3549690000000  0.6488150000000  0.6578390000000 1.0
C      1  0.5641790000000  0.6488160000000  0.7045180000000 1.0
C      1  0.7092090000000  0.6488170000000  0.5466750000000 1.0
C      1  0.6450270000000  0.6488170000000  0.3421550000000 1.0
C      1  0.4358180000000  0.6488170000000  0.2954800000000 1.0
C      1  0.3178180000000  0.5011860000000  0.6071520000000 1.0
C      1  0.5017050000000  0.5011870000000  0.7113530000000 1.0
C      1  0.6838900000000  0.5011880000000  0.6041990000000 1.0
C      1  0.6821840000000  0.5011900000000  0.3928480000000 1.0
C      1  0.4982960000000  0.5011880000000  0.2886520000000 1.0
C      1  0.3161150000000  0.5011860000000  0.3958030000000 1.0
C      1  0.4372640000000  0.3411690000000  0.6726160000000 1.0
C      1  0.6181220000000  0.3411700000000  0.6406370000000 1.0
C      1  0.6808560000000  0.3411700000000  0.4680210000000 1.0
C      1  0.5627340000000  0.3411680000000  0.3273830000000 1.0
C      1  0.3818760000000  0.3411680000000  0.3593620000000 1.0
C      1  0.3191420000000  0.3411680000000  0.5319780000000 1.0
C      1  0.5694600000000  0.4155530000000  0.2749070000000 1.0
C      1  0.3397930000000  0.4155520000000  0.3272980000000 1.0
C      1  0.2703320000000  0.4155520000000  0.5523910000000 1.0
C      1  0.4305380000000  0.4155530000000  0.7250920000000 1.0
C      1  0.6602030000000  0.4155540000000  0.6727010000000 1.0
C      1  0.7296650000000  0.4155540000000  0.4476100000000 1.0
END
