TITL C-3036479-9801-1052 -5.62887261669255e-06 3375 -349.514058375833 0 0 60 (S12) n - 1
REM
REM in /home/bkarasulu/work/CARBON/AIRSS/Generating-Clusters/REBO/Higher-Symm/Only-C60
REM
REM
REM
REM
REM
REM ./C.cell (a2850807a9bf4ad07a5b6933b78d9264)
REM AIRSS Version 0.9.1 bugfix July 2018 build 013d7b7c2542+ Fri, 06 Jul 2018 19:26:36 +0100
REM compiler GCC version 9.2.1 20190827 (Red Hat 9.2.1-1)
REM options -cpp -mtune=generic -march=x86-64 -g -O0 -fpre-include=/usr/include/finclude/math-vector-fortran.h
REM seed 1640757301 986378493 1224416649 1595424191 -77766385 1589532828 -734408197 -1939967399 -1897463192 -514398530 -1761342106 -2040571130 -1231102604 160398208 -1233452792 -89621911 521994509 -1813820154 27840371 436166330 1855378681 1334143887 340037584 142654721 -1200746211 1705679314 97314304 -1634665302 1047314887 508629195 900388806 1546293623 638649955
REM
CELL 1.54180   15.00000   15.00000   15.00000   90.00000   90.00000   90.00000
LATT -1
SFAC C  
C      1  0.4328280000000  0.3327100000000  0.6400000000000 1.0
C      1  0.3718270000000  0.6672900000000  0.5876570000000 1.0
C      1  0.3451710000000  0.3327100000000  0.5118270000000 1.0
C      1  0.3600000000000  0.6672900000000  0.4328280000000 1.0
C      1  0.4123430000000  0.3327100000000  0.3718270000000 1.0
C      1  0.4881730000000  0.6672900000000  0.3451710000000 1.0
C      1  0.5671720000000  0.3327100000000  0.3600000000000 1.0
C      1  0.6281730000000  0.6672900000000  0.4123430000000 1.0
C      1  0.6548290000000  0.3327100000000  0.4881730000000 1.0
C      1  0.6400000000000  0.6672900000000  0.5671720000000 1.0
C      1  0.5876570000000  0.3327100000000  0.6281730000000 1.0
C      1  0.5118270000000  0.6672900000000  0.6548290000000 1.0
C      1  0.2889000000000  0.4259680000000  0.4841070000000 1.0
C      1  0.3251290000000  0.5740320000000  0.3806860000000 1.0
C      1  0.4082140000000  0.4259680000000  0.3092360000000 1.0
C      1  0.5158930000000  0.5740320000000  0.2889000000000 1.0
C      1  0.6193140000000  0.4259680000000  0.3251290000000 1.0
C      1  0.6907640000000  0.5740320000000  0.4082140000000 1.0
C      1  0.7111000000000  0.4259680000000  0.5158930000000 1.0
C      1  0.6748710000000  0.5740320000000  0.6193140000000 1.0
C      1  0.5917860000000  0.4259680000000  0.6907640000000 1.0
C      1  0.4841070000000  0.5740320000000  0.7111000000000 1.0
C      1  0.3806860000000  0.4259680000000  0.6748710000000 1.0
C      1  0.3092360000000  0.5740320000000  0.5917860000000 1.0
C      1  0.5899190000000  0.5389980000000  0.6860190000000 1.0
C      1  0.4848630000000  0.4610020000000  0.7060570000000 1.0
C      1  0.3838620000000  0.5389980000000  0.6708820000000 1.0
C      1  0.3139810000000  0.4610020000000  0.5899190000000 1.0
C      1  0.2939430000000  0.5389980000000  0.4848630000000 1.0
C      1  0.3291180000000  0.4610020000000  0.3838620000000 1.0
C      1  0.4100810000000  0.5389980000000  0.3139810000000 1.0
C      1  0.5151370000000  0.4610020000000  0.2939430000000 1.0
C      1  0.6161380000000  0.5389980000000  0.3291180000000 1.0
C      1  0.6860190000000  0.4610020000000  0.4100810000000 1.0
C      1  0.7060570000000  0.5389980000000  0.5151370000000 1.0
C      1  0.6708820000000  0.4610020000000  0.6161380000000 1.0
C      1  0.4937940000000  0.7444220000000  0.4026000000000 1.0
C      1  0.5433250000000  0.2555780000000  0.4125460000000 1.0
C      1  0.5812480000000  0.7444220000000  0.4459250000000 1.0
C      1  0.5974000000000  0.2555780000000  0.4937940000000 1.0
C      1  0.5874540000000  0.7444220000000  0.5433250000000 1.0
C      1  0.5540750000000  0.2555780000000  0.5812480000000 1.0
C      1  0.5062060000000  0.7444220000000  0.5974000000000 1.0
C      1  0.4566750000000  0.2555780000000  0.5874540000000 1.0
C      1  0.4187520000000  0.7444220000000  0.5540750000000 1.0
C      1  0.4026000000000  0.2555780000000  0.5062060000000 1.0
C      1  0.4125460000000  0.7444220000000  0.4566750000000 1.0
C      1  0.4459250000000  0.2555780000000  0.4187520000000 1.0
C      1  0.4071280000000  0.4219360000000  0.5443890000000 1.0
C      1  0.3973760000000  0.5780640000000  0.4920060000000 1.0
C      1  0.4151220000000  0.4219360000000  0.4417640000000 1.0
C      1  0.4556110000000  0.5780640000000  0.4071280000000 1.0
C      1  0.5079940000000  0.4219360000000  0.3973760000000 1.0
C      1  0.5582360000000  0.5780640000000  0.4151220000000 1.0
C      1  0.5928720000000  0.4219360000000  0.4556110000000 1.0
C      1  0.6026240000000  0.5780640000000  0.5079940000000 1.0
C      1  0.5848780000000  0.4219360000000  0.5582360000000 1.0
C      1  0.5443890000000  0.5780640000000  0.5928720000000 1.0
C      1  0.4920060000000  0.4219360000000  0.6026240000000 1.0
C      1  0.4417640000000  0.5780640000000  0.5848780000000 1.0
END
