TITL C-3036481-494-144 4.12863444801568e-06 3375 -353.141498900639 0 0 60 (C3) n - 1
REM
REM in /home/bkarasulu/work/CARBON/AIRSS/Generating-Clusters/REBO/Higher-Symm/Only-C60
REM
REM
REM
REM
REM
REM ./C.cell (a2850807a9bf4ad07a5b6933b78d9264)
REM AIRSS Version 0.9.1 bugfix July 2018 build 013d7b7c2542+ Fri, 06 Jul 2018 19:26:36 +0100
REM compiler GCC version 9.2.1 20190827 (Red Hat 9.2.1-1)
REM options -cpp -mtune=generic -march=x86-64 -g -O0 -fpre-include=/usr/include/finclude/math-vector-fortran.h
REM seed 2084968337 1613982475 -1246635683 924363177 -927279446 -1477442956 1654362721 -1261412991 -319190882 775310930 -1334595702 -2029116624 -1770809556 87959868 669319664 -1797842975 2043312652 1500277053 -7992699 2108213290 -68259011 906078756 233821157 1727130430 -423203136 1014941072 861360752 -1381291301 -801761020 -601524891 275170460 1244224690 -766730253
REM
CELL 1.54180   15.00000   15.00000   15.00000   90.00000   90.00000   90.00000
LATT -1
SFAC C  
C      1  0.6887630000000  0.6269180000000  0.3859470000000 1.0
C      1  0.6887740000000  0.5353340000000  0.6669240000000 1.0
C      1  0.6887870000000  0.3377930000000  0.4471210000000 1.0
C      1  0.7487920000000  0.3973710000000  0.5860630000000 1.0
C      1  0.7487820000000  0.4768080000000  0.3680660000000 1.0
C      1  0.7487730000000  0.6258810000000  0.5458600000000 1.0
C      1  0.1881490000000  0.5601560000000  0.5171640000000 1.0
C      1  0.1881580000000  0.4550250000000  0.5435430000000 1.0
C      1  0.1881540000000  0.4847450000000  0.4393070000000 1.0
C      1  0.3544310000000  0.6029670000000  0.3389580000000 1.0
C      1  0.3544380000000  0.5879680000000  0.6697070000000 1.0
C      1  0.3544570000000  0.3090300000000  0.4913420000000 1.0
C      1  0.3482700000000  0.3407260000000  0.5803500000000 1.0
C      1  0.3482520000000  0.5100350000000  0.3219040000000 1.0
C      1  0.3482450000000  0.6492020000000  0.5977530000000 1.0
C      1  0.6222370000000  0.2981740000000  0.3895090000000 1.0
C      1  0.6222050000000  0.6966140000000  0.3804480000000 1.0
C      1  0.6222250000000  0.5052410000000  0.7300370000000 1.0
C      1  0.4441640000000  0.5821510000000  0.6925680000000 1.0
C      1  0.4441840000000  0.2921500000000  0.4748660000000 1.0
C      1  0.4441550000000  0.6256850000000  0.3325680000000 1.0
C      1  0.4513590000000  0.4067110000000  0.6934690000000 1.0
C      1  0.4513550000000  0.3790910000000  0.3224790000000 1.0
C      1  0.4513310000000  0.7141870000000  0.4840540000000 1.0
C      1  0.5096580000000  0.5867950000000  0.6068640000000 1.0
C      1  0.5096740000000  0.3640570000000  0.5217340000000 1.0
C      1  0.5096570000000  0.5491500000000  0.3714020000000 1.0
C      1  0.4373320000000  0.4736440000000  0.3277610000000 1.0
C      1  0.4373200000000  0.6623340000000  0.5633000000000 1.0
C      1  0.4373450000000  0.3640070000000  0.6089420000000 1.0
C      1  0.3710000000000  0.3289090000000  0.3328360000000 1.0
C      1  0.3709690000000  0.7303000000000  0.4354250000000 1.0
C      1  0.3709970000000  0.4407600000000  0.7317450000000 1.0
C      1  0.6731710000000  0.3736160000000  0.5365080000000 1.0
C      1  0.6731560000000  0.5315930000000  0.3722780000000 1.0
C      1  0.6731540000000  0.5948320000000  0.5912050000000 1.0
C      1  0.2685140000000  0.4098360000000  0.5989880000000 1.0
C      1  0.2685060000000  0.4593310000000  0.3724430000000 1.0
C      1  0.2684950000000  0.6307770000000  0.5285800000000 1.0
C      1  0.7634930000000  0.3802630000000  0.4061510000000 1.0
C      1  0.7634730000000  0.6411730000000  0.4432050000000 1.0
C      1  0.7634890000000  0.4786280000000  0.6506320000000 1.0
C      1  0.8264390000000  0.5638330000000  0.4973990000000 1.0
C      1  0.8264470000000  0.4703710000000  0.5565520000000 1.0
C      1  0.8264460000000  0.4658750000000  0.4460340000000 1.0
C      1  0.5353860000000  0.4533820000000  0.7081420000000 1.0
C      1  0.5353890000000  0.3430560000000  0.3555530000000 1.0
C      1  0.5353620000000  0.7035700000000  0.4363030000000 1.0
C      1  0.5611970000000  0.4083570000000  0.4309450000000 1.0
C      1  0.5611820000000  0.6056320000000  0.4551570000000 1.0
C      1  0.5611940000000  0.4860260000000  0.6138960000000 1.0
C      1  0.3101060000000  0.5369440000000  0.4458960000000 1.0
C      1  0.3101090000000  0.5283630000000  0.5590640000000 1.0
C      1  0.3101150000000  0.4346470000000  0.4950490000000 1.0
C      1  0.5912010000000  0.4145430000000  0.5597230000000 1.0
C      1  0.5911920000000  0.4910170000000  0.3961230000000 1.0
C      1  0.5911860000000  0.5944620000000  0.5441500000000 1.0
C      1  0.3064060000000  0.4919000000000  0.6653600000000 1.0
C      1  0.3064120000000  0.3608230000000  0.4103230000000 1.0
C      1  0.3063890000000  0.6472310000000  0.4243260000000 1.0
END
