TITL C-3036481-494-587 0.00549760411417248 3375 -342.168491086731 0 0 60 (C1) n - 1
REM
REM in /home/bkarasulu/work/CARBON/AIRSS/Generating-Clusters/REBO/Higher-Symm/Only-C60
REM
REM
REM
REM
REM
REM ./C.cell (a2850807a9bf4ad07a5b6933b78d9264)
REM AIRSS Version 0.9.1 bugfix July 2018 build 013d7b7c2542+ Fri, 06 Jul 2018 19:26:36 +0100
REM compiler GCC version 9.2.1 20190827 (Red Hat 9.2.1-1)
REM options -cpp -mtune=generic -march=x86-64 -g -O0 -fpre-include=/usr/include/finclude/math-vector-fortran.h
REM seed -353800178 2014908484 -1975750846 770690268 -219300769 -34296402 1595810462 728032877 -1506808015 -1508300561 1850240971 -1312520370 2137991629 1761546052 1858679539 872559821 -1566330401 -394829149 1557307928 1103817313 -1054886535 2122713625 -331318371 1600258499 -267691806 1766582476 -31355382 -1689012811 1567103632 273929107 -909917949 -1804548115 -388559442
REM
CELL 1.54180   15.00000   15.00000   15.00000   90.00000   90.00000   90.00000
LATT -1
SFAC C  
C      1  0.5833690000000  0.7250690000000  0.4594470000000 1.0
C      1  0.4245890000000  0.5937580000000  0.2485240000000 1.0
C      1  0.7457600000000  0.5170340000000  0.5234150000000 1.0
C      1  0.4508920000000  0.6955230000000  0.6214220000000 1.0
C      1  0.5825850000000  0.4961120000000  0.3229380000000 1.0
C      1  0.4625080000000  0.3265290000000  0.6584410000000 1.0
C      1  0.4115470000000  0.3996220000000  0.3696920000000 1.0
C      1  0.3480490000000  0.2631420000000  0.5330240000000 1.0
C      1  0.4595100000000  0.5950030000000  0.4589640000000 1.0
C      1  0.3304950000000  0.6122630000000  0.3791400000000 1.0
C      1  0.4450070000000  0.5322670000000  0.3650490000000 1.0
C      1  0.3932310000000  0.6491540000000  0.5104770000000 1.0
C      1  0.3898600000000  0.6892260000000  0.3834980000000 1.0
C      1  0.4831700000000  0.6797900000000  0.3317170000000 1.0
C      1  0.3781440000000  0.5235890000000  0.6142160000000 1.0
C      1  0.4069320000000  0.7441230000000  0.5470290000000 1.0
C      1  0.5058460000000  0.7508710000000  0.4015930000000 1.0
C      1  0.5072170000000  0.6186740000000  0.6217360000000 1.0
C      1  0.6009940000000  0.6081630000000  0.7157350000000 1.0
C      1  0.3386000000000  0.4228400000000  0.6091740000000 1.0
C      1  0.6509230000000  0.4679160000000  0.3817200000000 1.0
C      1  0.4655170000000  0.3027510000000  0.3935020000000 1.0
C      1  0.4669740000000  0.2460740000000  0.5903940000000 1.0
C      1  0.3173040000000  0.3201200000000  0.5981660000000 1.0
C      1  0.4604910000000  0.4162160000000  0.2473540000000 1.0
C      1  0.3068100000000  0.5628020000000  0.4580830000000 1.0
C      1  0.6072630000000  0.6432870000000  0.6221360000000 1.0
C      1  0.6999970000000  0.5469740000000  0.4310280000000 1.0
C      1  0.6367010000000  0.3757980000000  0.4080790000000 1.0
C      1  0.3329080000000  0.5865090000000  0.5591280000000 1.0
C      1  0.3811360000000  0.4712030000000  0.2934440000000 1.0
C      1  0.5109810000000  0.4251160000000  0.4203960000000 1.0
C      1  0.5349630000000  0.5574290000000  0.7528660000000 1.0
C      1  0.5948040000000  0.3860070000000  0.6656160000000 1.0
C      1  0.4163370000000  0.7671730000000  0.4503970000000 1.0
C      1  0.5289200000000  0.4139200000000  0.3082860000000 1.0
C      1  0.5573140000000  0.3017870000000  0.4008700000000 1.0
C      1  0.5229240000000  0.5823930000000  0.3038800000000 1.0
C      1  0.4782760000000  0.4894960000000  0.7490950000000 1.0
C      1  0.5245640000000  0.4451690000000  0.5982910000000 1.0
C      1  0.4112530000000  0.4194780000000  0.6899920000000 1.0
C      1  0.3305690000000  0.3875640000000  0.4353320000000 1.0
C      1  0.4723230000000  0.5301270000000  0.6193420000000 1.0
C      1  0.5524590000000  0.6182740000000  0.4764820000000 1.0
C      1  0.5758360000000  0.4471850000000  0.5020530000000 1.0
C      1  0.6879420000000  0.4328950000000  0.5158390000000 1.0
C      1  0.3403480000000  0.5703440000000  0.2929740000000 1.0
C      1  0.6414990000000  0.3147070000000  0.6068840000000 1.0
C      1  0.3780640000000  0.2994680000000  0.4505450000000 1.0
C      1  0.6785300000000  0.5322230000000  0.6042240000000 1.0
C      1  0.6018630000000  0.3166910000000  0.4998620000000 1.0
C      1  0.7152320000000  0.3539660000000  0.5586000000000 1.0
C      1  0.4304290000000  0.4894800000000  0.4660290000000 1.0
C      1  0.5127800000000  0.3863320000000  0.7342860000000 1.0
C      1  0.6163830000000  0.5446360000000  0.5143360000000 1.0
C      1  0.5193370000000  0.3376430000000  0.5618880000000 1.0
C      1  0.6530870000000  0.4761840000000  0.6700130000000 1.0
C      1  0.3332540000000  0.4629710000000  0.5049560000000 1.0
C      1  0.6435940000000  0.6838860000000  0.5470920000000 1.0
C      1  0.6618060000000  0.6450550000000  0.4413110000000 1.0
END
