TITL C-3036485-3770-149 2.74971565912899e-06 3375 -349.212127868319 0 0 60 (C2) n - 1
REM
REM in /home/bkarasulu/work/CARBON/AIRSS/Generating-Clusters/REBO/Higher-Symm/Only-C60
REM
REM
REM
REM
REM
REM ./C.cell (a2850807a9bf4ad07a5b6933b78d9264)
REM AIRSS Version 0.9.1 bugfix July 2018 build 013d7b7c2542+ Fri, 06 Jul 2018 19:26:36 +0100
REM compiler GCC version 9.2.1 20190827 (Red Hat 9.2.1-1)
REM options -cpp -mtune=generic -march=x86-64 -g -O0 -fpre-include=/usr/include/finclude/math-vector-fortran.h
REM seed 361432748 89200659 -1774193198 -1635320705 1362683980 -650301099 -537645878 -1560514591 -1847689247 281476138 -2083921008 1228208390 -1569389898 1303184821 -183618352 -1392546930 1596356162 1480776074 1119629530 964538991 -1703223601 890895174 1379511864 1925228912 1603625018 1597531650 -2128312906 1197532405 -1488821857 -1604507594 -1545096817 1833185515 -1449321902
REM
CELL 1.54180   15.00000   15.00000   15.00000   90.00000   90.00000   90.00000
LATT -1
SFAC C  
C      1  0.5327580000000  0.3385150000000  0.3520880000000 1.0
C      1  0.5347740000000  0.7170520000000  0.4134980000000 1.0
C      1  0.5129510000000  0.4530470000000  0.7135840000000 1.0
C      1  0.4672470000000  0.6614880000000  0.3520910000000 1.0
C      1  0.4652290000000  0.2829500000000  0.4134920000000 1.0
C      1  0.4870410000000  0.5469480000000  0.7135850000000 1.0
C      1  0.5793860000000  0.4358500000000  0.5013060000000 1.0
C      1  0.5921840000000  0.5427740000000  0.4718140000000 1.0
C      1  0.5696730000000  0.5217100000000  0.5777070000000 1.0
C      1  0.4206140000000  0.5641500000000  0.5013050000000 1.0
C      1  0.4078170000000  0.4572270000000  0.4718100000000 1.0
C      1  0.4303240000000  0.4782880000000  0.5777040000000 1.0
C      1  0.6123170000000  0.5240460000000  0.2768190000000 1.0
C      1  0.6264820000000  0.7217560000000  0.6044630000000 1.0
C      1  0.6145510000000  0.2868490000000  0.6160340000000 1.0
C      1  0.3876920000000  0.4759590000000  0.2768140000000 1.0
C      1  0.3735140000000  0.2782410000000  0.6044530000000 1.0
C      1  0.3854450000000  0.7131480000000  0.6160340000000 1.0
C      1  0.3226080000000  0.5004010000000  0.5645060000000 1.0
C      1  0.3010520000000  0.4374950000000  0.4710800000000 1.0
C      1  0.3141630000000  0.5508340000000  0.4630900000000 1.0
C      1  0.6773900000000  0.4995980000000  0.5645120000000 1.0
C      1  0.6989490000000  0.5625060000000  0.4710880000000 1.0
C      1  0.6858380000000  0.4491670000000  0.4630950000000 1.0
C      1  0.6246820000000  0.7190170000000  0.4315260000000 1.0
C      1  0.6049160000000  0.4319980000000  0.7102260000000 1.0
C      1  0.6174590000000  0.3600410000000  0.3285530000000 1.0
C      1  0.3753210000000  0.2809850000000  0.4315170000000 1.0
C      1  0.3950770000000  0.5679980000000  0.7102240000000 1.0
C      1  0.3825480000000  0.6399620000000  0.3285520000000 1.0
C      1  0.2919200000000  0.5993220000000  0.3812080000000 1.0
C      1  0.2999250000000  0.5443900000000  0.6521990000000 1.0
C      1  0.2821750000000  0.3436430000000  0.4503940000000 1.0
C      1  0.7080840000000  0.4006810000000  0.3812130000000 1.0
C      1  0.7000700000000  0.4556070000000  0.6522050000000 1.0
C      1  0.7178260000000  0.6563580000000  0.4504050000000 1.0
C      1  0.6576410000000  0.3534140000000  0.6633060000000 1.0
C      1  0.6636920000000  0.4475870000000  0.2907700000000 1.0
C      1  0.6732020000000  0.7253630000000  0.5249980000000 1.0
C      1  0.3423530000000  0.6465830000000  0.6633030000000 1.0
C      1  0.3363150000000  0.5524170000000  0.2907650000000 1.0
C      1  0.3267970000000  0.2746360000000  0.5249870000000 1.0
C      1  0.5318220000000  0.2955270000000  0.5723670000000 1.0
C      1  0.5300040000000  0.5365060000000  0.3209290000000 1.0
C      1  0.5443980000000  0.6798370000000  0.6249150000000 1.0
C      1  0.4681760000000  0.7044710000000  0.5723710000000 1.0
C      1  0.4700030000000  0.4634970000000  0.3209270000000 1.0
C      1  0.4555970000000  0.3201610000000  0.6249100000000 1.0
C      1  0.5425100000000  0.5874000000000  0.6475280000000 1.0
C      1  0.5302640000000  0.3447070000000  0.4842430000000 1.0
C      1  0.5273970000000  0.5852160000000  0.4133420000000 1.0
C      1  0.4574850000000  0.4125970000000  0.6475250000000 1.0
C      1  0.4697360000000  0.6552930000000  0.4842460000000 1.0
C      1  0.4726060000000  0.4147860000000  0.4133390000000 1.0
C      1  0.7795350000000  0.4791230000000  0.6927130000000 1.0
C      1  0.7890640000000  0.3564260000000  0.3777470000000 1.0
C      1  0.7970070000000  0.6759630000000  0.4070740000000 1.0
C      1  0.2204580000000  0.5208730000000  0.6927030000000 1.0
C      1  0.2109410000000  0.6435770000000  0.3777400000000 1.0
C      1  0.2029960000000  0.3240390000000  0.4070590000000 1.0
END
