TITL C-3036480-97-862 0.0273884415583844 3375 -346.550738172985 0 0 60 (C1) n - 1
REM
REM in /home/bkarasulu/work/CARBON/AIRSS/Generating-Clusters/REBO/Higher-Symm/Only-C60
REM
REM
REM
REM
REM
REM ./C.cell (a2850807a9bf4ad07a5b6933b78d9264)
REM AIRSS Version 0.9.1 bugfix July 2018 build 013d7b7c2542+ Fri, 06 Jul 2018 19:26:36 +0100
REM compiler GCC version 9.2.1 20190827 (Red Hat 9.2.1-1)
REM options -cpp -mtune=generic -march=x86-64 -g -O0 -fpre-include=/usr/include/finclude/math-vector-fortran.h
REM seed 2128152602 -322787990 -361787663 1236997381 491146537 615779765 1530679600 -1418974589 -1263901793 -849542645 -2007067428 511579864 -1918453132 2140123670 524893298 -290952000 -618091504 -1543938885 2096828537 -1553140257 572767336 -1561488428 1609041880 -682889553 1771560744 1723034654 -716311555 -1779329025 1704690598 878151283 1398804860 327378214 -710382900
REM
CELL 1.54180   15.00000   15.00000   15.00000   90.00000   90.00000   90.00000
LATT -1
SFAC C  
C      1  0.3066600000000  0.4660350000000  0.5944150000000 1.0
C      1  0.4641060000000  0.5697680000000  0.7222200000000 1.0
C      1  0.4893950000000  0.6398050000000  0.3746170000000 1.0
C      1  0.3861730000000  0.4062150000000  0.3260970000000 1.0
C      1  0.5544650000000  0.3927810000000  0.3380220000000 1.0
C      1  0.6302290000000  0.3412480000000  0.5896130000000 1.0
C      1  0.5546970000000  0.4415460000000  0.7246160000000 1.0
C      1  0.7122740000000  0.5867250000000  0.6206030000000 1.0
C      1  0.7245680000000  0.5104730000000  0.4601840000000 1.0
C      1  0.4547170000000  0.7556880000000  0.4304860000000 1.0
C      1  0.4341750000000  0.6882840000000  0.6086100000000 1.0
C      1  0.5487190000000  0.3467550000000  0.6675710000000 1.0
C      1  0.5584780000000  0.5732630000000  0.5756380000000 1.0
C      1  0.5611900000000  0.5470720000000  0.6844660000000 1.0
C      1  0.6958100000000  0.4099020000000  0.4971730000000 1.0
C      1  0.6542540000000  0.6623040000000  0.5962870000000 1.0
C      1  0.4748730000000  0.2725660000000  0.5066650000000 1.0
C      1  0.4040260000000  0.2952100000000  0.4484840000000 1.0
C      1  0.7221440000000  0.4064620000000  0.6039100000000 1.0
C      1  0.3799610000000  0.7075690000000  0.4066200000000 1.0
C      1  0.4935100000000  0.6614980000000  0.6789290000000 1.0
C      1  0.3844950000000  0.5430800000000  0.5992540000000 1.0
C      1  0.6465560000000  0.4469310000000  0.6678950000000 1.0
C      1  0.4125580000000  0.5713250000000  0.2542650000000 1.0
C      1  0.7446940000000  0.5115770000000  0.5669910000000 1.0
C      1  0.4909730000000  0.4139700000000  0.5525220000000 1.0
C      1  0.5868230000000  0.6830290000000  0.6640550000000 1.0
C      1  0.3804140000000  0.6137350000000  0.4608180000000 1.0
C      1  0.3399690000000  0.4893450000000  0.4861980000000 1.0
C      1  0.4309790000000  0.3714620000000  0.6118090000000 1.0
C      1  0.5480840000000  0.4685930000000  0.2530160000000 1.0
C      1  0.6514680000000  0.4129920000000  0.3145570000000 1.0
C      1  0.5310040000000  0.3913190000000  0.4277200000000 1.0
C      1  0.3172820000000  0.5486620000000  0.3914940000000 1.0
C      1  0.2671210000000  0.3899270000000  0.4366960000000 1.0
C      1  0.5123280000000  0.5712130000000  0.2354930000000 1.0
C      1  0.4506720000000  0.4799290000000  0.3093270000000 1.0
C      1  0.5736820000000  0.4618020000000  0.5828000000000 1.0
C      1  0.3963590000000  0.6204330000000  0.5564560000000 1.0
C      1  0.6185160000000  0.5175660000000  0.4996870000000 1.0
C      1  0.5306320000000  0.6990090000000  0.4513100000000 1.0
C      1  0.5551370000000  0.6269830000000  0.3011220000000 1.0
C      1  0.2272380000000  0.4640190000000  0.4954440000000 1.0
C      1  0.4453410000000  0.4524700000000  0.4650260000000 1.0
C      1  0.3181820000000  0.4915210000000  0.7013630000000 1.0
C      1  0.5314900000000  0.2886410000000  0.5719200000000 1.0
C      1  0.6020980000000  0.6489700000000  0.5016690000000 1.0
C      1  0.3090180000000  0.4414880000000  0.3657690000000 1.0
C      1  0.4491110000000  0.5427810000000  0.4038310000000 1.0
C      1  0.4064980000000  0.4937760000000  0.7301220000000 1.0
C      1  0.6392380000000  0.5911590000000  0.3274650000000 1.0
C      1  0.3425960000000  0.3691250000000  0.5785660000000 1.0
C      1  0.6516620000000  0.5084970000000  0.2820660000000 1.0
C      1  0.6005050000000  0.3717340000000  0.4855570000000 1.0
C      1  0.6598550000000  0.5922040000000  0.4250130000000 1.0
C      1  0.3751700000000  0.6254270000000  0.3301080000000 1.0
C      1  0.3270300000000  0.3343950000000  0.4907740000000 1.0
C      1  0.4557650000000  0.4011180000000  0.7102460000000 1.0
C      1  0.6709540000000  0.5472600000000  0.6990420000000 1.0
C      1  0.4140850000000  0.3213620000000  0.3573100000000 1.0
END
