TITL C-3036484-3770-322 -0.0759434904844655 3375 -339.195830977661 0 0 60 (C2h) n - 1
REM
REM in /home/bkarasulu/work/CARBON/AIRSS/Generating-Clusters/REBO/Higher-Symm/Only-C60
REM
REM
REM
REM
REM
REM ./C.cell (a2850807a9bf4ad07a5b6933b78d9264)
REM AIRSS Version 0.9.1 bugfix July 2018 build 013d7b7c2542+ Fri, 06 Jul 2018 19:26:36 +0100
REM compiler GCC version 9.2.1 20190827 (Red Hat 9.2.1-1)
REM options -cpp -mtune=generic -march=x86-64 -g -O0 -fpre-include=/usr/include/finclude/math-vector-fortran.h
REM seed -931725958 1209672396 -1490968776 -1776733699 1646344876 -86070483 -111714481 1156558676 -945584136 1057828938 466199151 -1842292212 1687955373 -1210770949 -843661147 1795417984 -84842872 2049633823 -240353320 375229511 1797956845 805426405 -234348758 -613262861 -1086306782 -363198588 172325350 -2756117 -1391307 1610247383 1834354704 1295709424 -2032436635
REM
CELL 1.54180   15.00000   15.00000   15.00000   90.00000   90.00000   90.00000
LATT -1
SFAC C  
C      1  0.6561170000000  0.3507000000000  0.3648510000000 1.0
C      1  0.3438180000000  0.3507010000000  0.6351330000000 1.0
C      1  0.6561180000000  0.6493000000000  0.3648510000000 1.0
C      1  0.3438190000000  0.6493000000000  0.6351330000000 1.0
C      1  0.3445260000000  0.3502070000000  0.3653040000000 1.0
C      1  0.6554530000000  0.3502140000000  0.6346650000000 1.0
C      1  0.3445260000000  0.6497940000000  0.3653040000000 1.0
C      1  0.6554540000000  0.6497850000000  0.6346660000000 1.0
C      1  0.6514660000000  0.7020400000000  0.4533930000000 1.0
C      1  0.3484860000000  0.7021420000000  0.5466390000000 1.0
C      1  0.6514660000000  0.2979600000000  0.4533930000000 1.0
C      1  0.3484860000000  0.2978570000000  0.5466390000000 1.0
C      1  0.3490010000000  0.7023300000000  0.4540790000000 1.0
C      1  0.6510560000000  0.7023950000000  0.5459300000000 1.0
C      1  0.3490010000000  0.2976690000000  0.4540790000000 1.0
C      1  0.6510560000000  0.2976050000000  0.5459300000000 1.0
C      1  0.5545900000000  0.4449880000000  0.6354950000000 1.0
C      1  0.4455230000000  0.4449200000000  0.3644580000000 1.0
C      1  0.5545910000000  0.5550070000000  0.6354940000000 1.0
C      1  0.4455240000000  0.5550850000000  0.3644560000000 1.0
C      1  0.4453070000000  0.4449150000000  0.6359680000000 1.0
C      1  0.5547480000000  0.4449610000000  0.3641120000000 1.0
C      1  0.4453080000000  0.5550910000000  0.6359700000000 1.0
C      1  0.5547490000000  0.5550340000000  0.3641140000000 1.0
C      1  0.4423520000000  0.7328180000000  0.6029710000000 1.0
C      1  0.5576700000000  0.7328760000000  0.3970640000000 1.0
C      1  0.4423530000000  0.2671840000000  0.6029710000000 1.0
C      1  0.5576700000000  0.2671220000000  0.3970650000000 1.0
C      1  0.5567850000000  0.7328870000000  0.6015430000000 1.0
C      1  0.4432100000000  0.7328910000000  0.3983920000000 1.0
C      1  0.5567850000000  0.2671110000000  0.6015420000000 1.0
C      1  0.4432100000000  0.2671110000000  0.3983910000000 1.0
C      1  0.5553870000000  0.6554520000000  0.6834250000000 1.0
C      1  0.4444680000000  0.6555170000000  0.3164430000000 1.0
C      1  0.5553890000000  0.3445450000000  0.6834260000000 1.0
C      1  0.4444700000000  0.3444870000000  0.3164440000000 1.0
C      1  0.4434810000000  0.6552060000000  0.6844540000000 1.0
C      1  0.5562900000000  0.6551960000000  0.3157660000000 1.0
C      1  0.4434830000000  0.3447980000000  0.6844530000000 1.0
C      1  0.5562920000000  0.3448010000000  0.3157650000000 1.0
C      1  0.3902160000000  0.5665710000000  0.4568420000000 1.0
C      1  0.6099360000000  0.5666170000000  0.5431140000000 1.0
C      1  0.3902150000000  0.4334290000000  0.4568420000000 1.0
C      1  0.6099350000000  0.4333830000000  0.5431140000000 1.0
C      1  0.6098830000000  0.5664550000000  0.4566240000000 1.0
C      1  0.3901870000000  0.5664370000000  0.5433090000000 1.0
C      1  0.6098820000000  0.4335440000000  0.4566240000000 1.0
C      1  0.3901860000000  0.4335640000000  0.5433090000000 1.0
C      1  0.3133360000000  0.4497170000000  0.3783390000000 1.0
C      1  0.6867810000000  0.4497000000000  0.6217600000000 1.0
C      1  0.3133380000000  0.5502830000000  0.3783390000000 1.0
C      1  0.6867820000000  0.5503000000000  0.6217600000000 1.0
C      1  0.6868970000000  0.4498510000000  0.3782050000000 1.0
C      1  0.3131070000000  0.4498690000000  0.6217370000000 1.0
C      1  0.6868980000000  0.5501490000000  0.3782050000000 1.0
C      1  0.3131080000000  0.5501310000000  0.6217370000000 1.0
C      1  0.4485890000000  0.2235120000000  0.5011800000000 1.0
C      1  0.5513340000000  0.2236140000000  0.4988080000000 1.0
C      1  0.4485820000000  0.7764960000000  0.5011800000000 1.0
C      1  0.5513270000000  0.7763790000000  0.4988080000000 1.0
END
