TITL C-3036486-2224-920 -6.10498243150096e-06 3375 -355.997925945871 0 0 60 (C6) n - 1
REM
REM in /home/bkarasulu/work/CARBON/AIRSS/Generating-Clusters/REBO/Higher-Symm/Only-C60
REM
REM
REM
REM
REM
REM ./C.cell (a2850807a9bf4ad07a5b6933b78d9264)
REM AIRSS Version 0.9.1 bugfix July 2018 build 013d7b7c2542+ Fri, 06 Jul 2018 19:26:36 +0100
REM compiler GCC version 9.2.1 20190827 (Red Hat 9.2.1-1)
REM options -cpp -mtune=generic -march=x86-64 -g -O0 -fpre-include=/usr/include/finclude/math-vector-fortran.h
REM seed -1455364050 1733874410 -624833757 -735365490 -118610940 -159430392 384628764 -1749353442 1338226993 1165839994 924843904 -69624302 700979975 1437715867 -1913525246 472578758 -213560537 -809679785 1448925207 939293970 -125875852 -1036049145 -92163652 -2060027354 46724962 -1290684093 -151294945 -1867169179 66355844 -1729481242 -1389610558 -1345239681 1480876767
REM
CELL 1.54180   15.00000   15.00000   15.00000   90.00000   90.00000   90.00000
LATT -1
SFAC C  
C      1  0.4535430000000  0.5994070000000  0.3500620000000 1.0
C      1  0.3906830000000  0.5094710000000  0.3500620000000 1.0
C      1  0.4371390000000  0.4100640000000  0.3500620000000 1.0
C      1  0.5464570000000  0.4005930000000  0.3500620000000 1.0
C      1  0.6093170000000  0.4905290000000  0.3500620000000 1.0
C      1  0.5628610000000  0.5899360000000  0.3500620000000 1.0
C      1  0.4152160000000  0.2399720000000  0.4210970000000 1.0
C      1  0.6827990000000  0.2965600000000  0.4210970000000 1.0
C      1  0.7675830000000  0.5565890000000  0.4210970000000 1.0
C      1  0.5847840000000  0.7600280000000  0.4210970000000 1.0
C      1  0.3172010000000  0.7034400000000  0.4210970000000 1.0
C      1  0.2324170000000  0.4434110000000  0.4210970000000 1.0
C      1  0.5203920000000  0.2402490000000  0.4490570000000 1.0
C      1  0.7351470000000  0.3877850000000  0.4490570000000 1.0
C      1  0.7147550000000  0.6475360000000  0.4490570000000 1.0
C      1  0.4796080000000  0.7597510000000  0.4490570000000 1.0
C      1  0.2648530000000  0.6122150000000  0.4490570000000 1.0
C      1  0.2852450000000  0.3524640000000  0.4490570000000 1.0
C      1  0.2736080000000  0.5979570000000  0.5607160000000 1.0
C      1  0.3019710000000  0.3529180000000  0.5607160000000 1.0
C      1  0.5283620000000  0.2549600000000  0.5607160000000 1.0
C      1  0.7263920000000  0.4020430000000  0.5607160000000 1.0
C      1  0.6980290000000  0.6470820000000  0.5607160000000 1.0
C      1  0.4716380000000  0.7450400000000  0.5607160000000 1.0
C      1  0.2391760000000  0.5159980000000  0.4926220000000 1.0
C      1  0.3557340000000  0.2821190000000  0.4926220000000 1.0
C      1  0.6165570000000  0.2661210000000  0.4926220000000 1.0
C      1  0.7608240000000  0.4840020000000  0.4926220000000 1.0
C      1  0.6442660000000  0.7178810000000  0.4926220000000 1.0
C      1  0.3834430000000  0.7338790000000  0.4926220000000 1.0
C      1  0.5147770000000  0.6776360000000  0.6383280000000 1.0
C      1  0.3535520000000  0.6016150000000  0.6383280000000 1.0
C      1  0.3387750000000  0.4239790000000  0.6383280000000 1.0
C      1  0.4852230000000  0.3223640000000  0.6383280000000 1.0
C      1  0.6464480000000  0.3983850000000  0.6383280000000 1.0
C      1  0.6612250000000  0.5760210000000  0.6383280000000 1.0
C      1  0.5297180000000  0.5876920000000  0.4942910000000 1.0
C      1  0.4389160000000  0.5695820000000  0.4942910000000 1.0
C      1  0.4091980000000  0.4818910000000  0.4942910000000 1.0
C      1  0.4702820000000  0.4123080000000  0.4942910000000 1.0
C      1  0.5610840000000  0.4304180000000  0.4942910000000 1.0
C      1  0.5908020000000  0.5181090000000  0.4942910000000 1.0
C      1  0.5793170000000  0.4453800000000  0.6849560000000 1.0
C      1  0.5869610000000  0.5413810000000  0.6849560000000 1.0
C      1  0.5076440000000  0.5960010000000  0.6849560000000 1.0
C      1  0.4206830000000  0.5546200000000  0.6849560000000 1.0
C      1  0.4130390000000  0.4586190000000  0.6849560000000 1.0
C      1  0.4923560000000  0.4039990000000  0.6849560000000 1.0
C      1  0.6699900000000  0.5794390000000  0.3728970000000 1.0
C      1  0.5161980000000  0.6869350000000  0.3728970000000 1.0
C      1  0.3462080000000  0.6074960000000  0.3728970000000 1.0
C      1  0.3300100000000  0.4205610000000  0.3728970000000 1.0
C      1  0.4838020000000  0.3130650000000  0.3728970000000 1.0
C      1  0.6537920000000  0.3925040000000  0.3728970000000 1.0
C      1  0.6804070000000  0.5379980000000  0.5359730000000 1.0
C      1  0.5572960000000  0.6752360000000  0.5359730000000 1.0
C      1  0.3768890000000  0.6372380000000  0.5359730000000 1.0
C      1  0.3195930000000  0.4620020000000  0.5359730000000 1.0
C      1  0.4427040000000  0.3247640000000  0.5359730000000 1.0
C      1  0.6231110000000  0.3627620000000  0.5359730000000 1.0
END
