TITL C-3036481-494-528 -0.0624935580919034 3375 -321.727436545608 0 0 60 (C5) n - 1
REM
REM in /home/bkarasulu/work/CARBON/AIRSS/Generating-Clusters/REBO/Higher-Symm/Only-C60
REM
REM
REM
REM
REM
REM ./C.cell (a2850807a9bf4ad07a5b6933b78d9264)
REM AIRSS Version 0.9.1 bugfix July 2018 build 013d7b7c2542+ Fri, 06 Jul 2018 19:26:36 +0100
REM compiler GCC version 9.2.1 20190827 (Red Hat 9.2.1-1)
REM options -cpp -mtune=generic -march=x86-64 -g -O0 -fpre-include=/usr/include/finclude/math-vector-fortran.h
REM seed -853984218 131291879 -2100034762 -1932515589 -387575629 485432758 -482653413 -1635826830 -755902650 157393312 -1340606706 -603100173 -1345264736 -1696046640 1373664745 -2063983958 -500705320 -789599485 88770919 1796693392 139163306 -1911008363 1921741812 -1429256575 1972259120 271904665 -369663167 2126972155 865147977 -700889630 1079755886 -1630110699 466466874
REM
CELL 1.54180   15.00000   15.00000   15.00000   90.00000   90.00000   90.00000
LATT -1
SFAC C  
C      1  0.6673740000000  0.4836150000000  0.1882690000000 1.0
C      1  0.2553840000000  0.4836490000000  0.2444130000000 1.0
C      1  0.1813740000000  0.4836340000000  0.6532960000000 1.0
C      1  0.5476180000000  0.4834950000000  0.8505550000000 1.0
C      1  0.8480600000000  0.4832330000000  0.5629560000000 1.0
C      1  0.5627970000000  0.3850950000000  0.2824920000000 1.0
C      1  0.3125800000000  0.3850130000000  0.3729130000000 1.0
C      1  0.3214110000000  0.3850590000000  0.6390000000000 1.0
C      1  0.5769900000000  0.3852270000000  0.7127770000000 1.0
C      1  0.7261460000000  0.3851070000000  0.4923130000000 1.0
C      1  0.6219590000000  0.5500590000000  0.7190150000000 1.0
C      1  0.7459770000000  0.5499390000000  0.4516540000000 1.0
C      1  0.5300280000000  0.5499740000000  0.2512690000000 1.0
C      1  0.2727160000000  0.5499170000000  0.3946000000000 1.0
C      1  0.3294430000000  0.5499480000000  0.6837790000000 1.0
C      1  0.6039550000000  0.4796000000000  0.2562310000000 1.0
C      1  0.3003160000000  0.4795870000000  0.3257900000000 1.0
C      1  0.2727170000000  0.4795920000000  0.6360450000000 1.0
C      1  0.5591410000000  0.4796760000000  0.7583070000000 1.0
C      1  0.7638600000000  0.4795120000000  0.5235310000000 1.0
C      1  0.4871490000000  0.5639880000000  0.5795980000000 1.0
C      1  0.5716550000000  0.5637420000000  0.5368020000000 1.0
C      1  0.5570680000000  0.5636680000000  0.4431700000000 1.0
C      1  0.4635150000000  0.5638970000000  0.4281740000000 1.0
C      1  0.4203790000000  0.5641030000000  0.5124780000000 1.0
C      1  0.4152040000000  0.3978880000000  0.7538930000000 1.0
C      1  0.7151510000000  0.3977390000000  0.6590950000000 1.0
C      1  0.7177630000000  0.3975400000000  0.3445280000000 1.0
C      1  0.4194430000000  0.3976390000000  0.2448910000000 1.0
C      1  0.2326930000000  0.3976940000000  0.4977780000000 1.0
C      1  0.2904030000000  0.5553590000000  0.4842370000000 1.0
C      1  0.4201750000000  0.5554440000000  0.6945480000000 1.0
C      1  0.6602660000000  0.5553450000000  0.6360450000000 1.0
C      1  0.6788730000000  0.5552330000000  0.3896160000000 1.0
C      1  0.4502440000000  0.5553180000000  0.2957970000000 1.0
C      1  0.5416880000000  0.6871150000000  0.5849180000000 1.0
C      1  0.5936280000000  0.6870600000000  0.4865870000000 1.0
C      1  0.5161800000000  0.6870060000000  0.4068400000000 1.0
C      1  0.4163990000000  0.6870440000000  0.4558410000000 1.0
C      1  0.4321360000000  0.6870940000000  0.5658870000000 1.0
C      1  0.5064910000000  0.3637370000000  0.3395910000000 1.0
C      1  0.3495390000000  0.3635950000000  0.4440690000000 1.0
C      1  0.4005770000000  0.3637420000000  0.6259650000000 1.0
C      1  0.5890780000000  0.3637240000000  0.6335410000000 1.0
C      1  0.6544650000000  0.3636760000000  0.4564340000000 1.0
C      1  0.3397880000000  0.6372170000000  0.5228900000000 1.0
C      1  0.4722550000000  0.6371780000000  0.6594080000000 1.0
C      1  0.6429180000000  0.6369870000000  0.5756050000000 1.0
C      1  0.6160530000000  0.6368900000000  0.3874550000000 1.0
C      1  0.4287570000000  0.6370630000000  0.3547860000000 1.0
C      1  0.6792000000000  0.4664640000000  0.5893820000000 1.0
C      1  0.6404120000000  0.4663380000000  0.3570930000000 1.0
C      1  0.4074990000000  0.4664140000000  0.3223710000000 1.0
C      1  0.3026660000000  0.4664790000000  0.5330970000000 1.0
C      1  0.4704200000000  0.4665800000000  0.6981200000000 1.0
C      1  0.5817200000000  0.4306590000000  0.5456470000000 1.0
C      1  0.5686190000000  0.4306870000000  0.4363790000000 1.0
C      1  0.4607340000000  0.4306630000000  0.4150680000000 1.0
C      1  0.4070590000000  0.4304190000000  0.5112610000000 1.0
C      1  0.4818950000000  0.4306430000000  0.5919120000000 1.0
END
