TITL C-3036485-3770-1025 -1.07264776968805e-06 3375 -331.645663963969 0 0 60 (Ci) n - 1
REM
REM in /home/bkarasulu/work/CARBON/AIRSS/Generating-Clusters/REBO/Higher-Symm/Only-C60
REM
REM
REM
REM
REM
REM ./C.cell (a2850807a9bf4ad07a5b6933b78d9264)
REM AIRSS Version 0.9.1 bugfix July 2018 build 013d7b7c2542+ Fri, 06 Jul 2018 19:26:36 +0100
REM compiler GCC version 9.2.1 20190827 (Red Hat 9.2.1-1)
REM options -cpp -mtune=generic -march=x86-64 -g -O0 -fpre-include=/usr/include/finclude/math-vector-fortran.h
REM seed -29331530 1262925888 1275662938 -216200988 701068552 -358241957 -377449796 2118788186 1065847193 2115222954 656667201 588828453 -76953921 -85088069 1732245039 1546098428 -279611912 99013695 476893692 981676586 1667414404 -132000990 2098208840 -1689383645 528520239 -1428559537 -868462485 -1708995395 -841391765 522254607 649248143 1659746851 2107497168
REM
CELL 1.54180   15.00000   15.00000   15.00000   90.00000   90.00000   90.00000
LATT -1
SFAC C  
C      1  0.6841750000000  0.5641690000000  0.6871110000000 1.0
C      1  0.6665240000000  0.6691390000000  0.5718840000000 1.0
C      1  0.5440630000000  0.6982780000000  0.6706540000000 1.0
C      1  0.6657720000000  0.4367100000000  0.3297920000000 1.0
C      1  0.3329480000000  0.4533450000000  0.6901510000000 1.0
C      1  0.3128520000000  0.5449990000000  0.2900050000000 1.0
C      1  0.6763720000000  0.3258110000000  0.4304970000000 1.0
C      1  0.2938710000000  0.3238490000000  0.5320000000000 1.0
C      1  0.2951450000000  0.6798170000000  0.4617100000000 1.0
C      1  0.5644300000000  0.3279820000000  0.3283420000000 1.0
C      1  0.4377930000000  0.3188840000000  0.6853590000000 1.0
C      1  0.4537750000000  0.7061490000000  0.3183620000000 1.0
C      1  0.3342280000000  0.5632900000000  0.6702080000000 1.0
C      1  0.3236280000000  0.6741890000000  0.5695030000000 1.0
C      1  0.4355700000000  0.6720180000000  0.6716580000000 1.0
C      1  0.3158250000000  0.4358310000000  0.3128890000000 1.0
C      1  0.6871480000000  0.4550010000000  0.7099950000000 1.0
C      1  0.6670520000000  0.5466550000000  0.3098490000000 1.0
C      1  0.3334760000000  0.3308610000000  0.4281160000000 1.0
C      1  0.7048550000000  0.3201830000000  0.5382900000000 1.0
C      1  0.7061290000000  0.6761510000000  0.4680000000000 1.0
C      1  0.4559370000000  0.3017220000000  0.3293460000000 1.0
C      1  0.5462250000000  0.2938510000000  0.6816380000000 1.0
C      1  0.5622070000000  0.6811160000000  0.3146410000000 1.0
C      1  0.2792390000000  0.5839220000000  0.5513490000000 1.0
C      1  0.5501470000000  0.2601820000000  0.5846990000000 1.0
C      1  0.5715680000000  0.5556960000000  0.2741200000000 1.0
C      1  0.2824110000000  0.4186370000000  0.4403550000000 1.0
C      1  0.7400460000000  0.4161700000000  0.5489650000000 1.0
C      1  0.7438870000000  0.5811300000000  0.4604420000000 1.0
C      1  0.5497940000000  0.7222340000000  0.4077830000000 1.0
C      1  0.4490640000000  0.7164940000000  0.5805310000000 1.0
C      1  0.4497830000000  0.2667460000000  0.4252200000000 1.0
C      1  0.5924900000000  0.4458880000000  0.7498260000000 1.0
C      1  0.4066530000000  0.4543480000000  0.2686320000000 1.0
C      1  0.4260540000000  0.5451210000000  0.7102210000000 1.0
C      1  0.7175890000000  0.5813630000000  0.5596450000000 1.0
C      1  0.4502060000000  0.2777660000000  0.5922170000000 1.0
C      1  0.4075100000000  0.5541120000000  0.2501740000000 1.0
C      1  0.7207610000000  0.4160780000000  0.4486510000000 1.0
C      1  0.2561130000000  0.4188700000000  0.5395580000000 1.0
C      1  0.2599540000000  0.5838300000000  0.4510350000000 1.0
C      1  0.4498530000000  0.7398180000000  0.4153010000000 1.0
C      1  0.5502170000000  0.7332540000000  0.5747800000000 1.0
C      1  0.5509360000000  0.2835060000000  0.4194690000000 1.0
C      1  0.4284320000000  0.4443040000000  0.7258800000000 1.0
C      1  0.5739460000000  0.4548790000000  0.2897790000000 1.0
C      1  0.5933470000000  0.5456520000000  0.7313680000000 1.0
C      1  0.3929780000000  0.7234650000000  0.4928730000000 1.0
C      1  0.6070220000000  0.2765350000000  0.5071270000000 1.0
C      1  0.7225280000000  0.5078680000000  0.3989570000000 1.0
C      1  0.5153540000000  0.3883150000000  0.7331750000000 1.0
C      1  0.7263870000000  0.4903860000000  0.6108270000000 1.0
C      1  0.2736130000000  0.5096140000000  0.3891730000000 1.0
C      1  0.2774720000000  0.4921320000000  0.6010430000000 1.0
C      1  0.3944300000000  0.2810630000000  0.5115140000000 1.0
C      1  0.6055700000000  0.7189370000000  0.4884860000000 1.0
C      1  0.4846460000000  0.6116850000000  0.2668250000000 1.0
C      1  0.5140200000000  0.6011330000000  0.7155040000000 1.0
C      1  0.4859800000000  0.3988670000000  0.2844960000000 1.0
END
