TITL C-3036486-2224-588 -4.47071643238173e-07 3375 -351.905405150548 0 0 60 (C1) n - 1
REM
REM in /home/bkarasulu/work/CARBON/AIRSS/Generating-Clusters/REBO/Higher-Symm/Only-C60
REM
REM
REM
REM
REM
REM ./C.cell (a2850807a9bf4ad07a5b6933b78d9264)
REM AIRSS Version 0.9.1 bugfix July 2018 build 013d7b7c2542+ Fri, 06 Jul 2018 19:26:36 +0100
REM compiler GCC version 9.2.1 20190827 (Red Hat 9.2.1-1)
REM options -cpp -mtune=generic -march=x86-64 -g -O0 -fpre-include=/usr/include/finclude/math-vector-fortran.h
REM seed 56931434 1592431123 -2122074727 735959293 1071291056 1876301380 -1824512465 160936213 1071995492 1460865960 1203397338 2044889143 -1114501227 1451641850 -1928788526 -377793505 -1154155370 -1049910670 421868078 -14621264 774945274 -788944686 -1610807718 -1124293891 1973803780 245403975 170721815 1589460508 -61692960 1549001254 -1794614074 -1603813665 1163308214
REM
CELL 1.54180   15.00000   15.00000   15.00000   90.00000   90.00000   90.00000
LATT -1
SFAC C  
C      1  0.4509380000000  0.4248240000000  0.7487070000000 1.0
C      1  0.5534810000000  0.4221620000000  0.7585060000000 1.0
C      1  0.4620780000000  0.5418540000000  0.2146460000000 1.0
C      1  0.5453080000000  0.5332300000000  0.2127290000000 1.0
C      1  0.5505380000000  0.2733300000000  0.3428260000000 1.0
C      1  0.4449470000000  0.2887720000000  0.3261130000000 1.0
C      1  0.4280950000000  0.7266870000000  0.4795990000000 1.0
C      1  0.5357480000000  0.7042320000000  0.4811580000000 1.0
C      1  0.5499120000000  0.5965510000000  0.5136060000000 1.0
C      1  0.4384920000000  0.6179080000000  0.5118220000000 1.0
C      1  0.4186200000000  0.3812930000000  0.6534730000000 1.0
C      1  0.5993080000000  0.3777450000000  0.6641020000000 1.0
C      1  0.5821520000000  0.5296960000000  0.7328670000000 1.0
C      1  0.4205650000000  0.5282990000000  0.7171790000000 1.0
C      1  0.4068950000000  0.6895460000000  0.6711740000000 1.0
C      1  0.5890130000000  0.6867840000000  0.6665980000000 1.0
C      1  0.3651830000000  0.4367440000000  0.5467740000000 1.0
C      1  0.6462860000000  0.4259970000000  0.5479470000000 1.0
C      1  0.3597240000000  0.4646380000000  0.4450250000000 1.0
C      1  0.6431390000000  0.4536930000000  0.4464310000000 1.0
C      1  0.3919920000000  0.7738190000000  0.5697290000000 1.0
C      1  0.5875660000000  0.7613840000000  0.5571240000000 1.0
C      1  0.4502130000000  0.6193530000000  0.7200850000000 1.0
C      1  0.5481710000000  0.6205320000000  0.7235290000000 1.0
C      1  0.6064120000000  0.3927790000000  0.3064560000000 1.0
C      1  0.3892890000000  0.4074470000000  0.3019920000000 1.0
C      1  0.3093480000000  0.5896900000000  0.5291860000000 1.0
C      1  0.6858630000000  0.5845830000000  0.5270170000000 1.0
C      1  0.4616900000000  0.4786120000000  0.6285610000000 1.0
C      1  0.5674970000000  0.4779440000000  0.6408590000000 1.0
C      1  0.4500360000000  0.6643390000000  0.3876960000000 1.0
C      1  0.5505740000000  0.6496830000000  0.3831200000000 1.0
C      1  0.3879270000000  0.5963500000000  0.3678590000000 1.0
C      1  0.6150080000000  0.5859480000000  0.3653270000000 1.0
C      1  0.2981830000000  0.5131720000000  0.5811820000000 1.0
C      1  0.7027110000000  0.5113410000000  0.5819170000000 1.0
C      1  0.3899560000000  0.3326800000000  0.5548730000000 1.0
C      1  0.6215860000000  0.3250350000000  0.5656670000000 1.0
C      1  0.3601580000000  0.6659890000000  0.5761280000000 1.0
C      1  0.6257250000000  0.6575080000000  0.5673450000000 1.0
C      1  0.3891990000000  0.3072270000000  0.4513080000000 1.0
C      1  0.6167480000000  0.2969070000000  0.4600710000000 1.0
C      1  0.6289260000000  0.3671820000000  0.3953110000000 1.0
C      1  0.3707670000000  0.3787190000000  0.3905440000000 1.0
C      1  0.4497350000000  0.2336380000000  0.4187610000000 1.0
C      1  0.5559370000000  0.2204590000000  0.4333050000000 1.0
C      1  0.5453420000000  0.7800930000000  0.6491410000000 1.0
C      1  0.4496090000000  0.7824210000000  0.6555120000000 1.0
C      1  0.4068800000000  0.5156120000000  0.2959730000000 1.0
C      1  0.5978480000000  0.5035400000000  0.2946240000000 1.0
C      1  0.4615490000000  0.2673340000000  0.6029450000000 1.0
C      1  0.5434950000000  0.2697300000000  0.6129430000000 1.0
C      1  0.3361910000000  0.5649940000000  0.4411350000000 1.0
C      1  0.6636180000000  0.5549640000000  0.4396350000000 1.0
C      1  0.4466820000000  0.5149390000000  0.5311830000000 1.0
C      1  0.5570340000000  0.4963660000000  0.5375650000000 1.0
C      1  0.4582690000000  0.4791410000000  0.3905720000000 1.0
C      1  0.5457840000000  0.4752490000000  0.3915390000000 1.0
C      1  0.4401990000000  0.3467880000000  0.2385180000000 1.0
C      1  0.5458610000000  0.3325250000000  0.2524790000000 1.0
END
