TITL C-3036486-2224-1126 0.0155971625750083 3375 -331.374848385435 0 0 60 (C1) n - 1
REM
REM in /home/bkarasulu/work/CARBON/AIRSS/Generating-Clusters/REBO/Higher-Symm/Only-C60
REM
REM
REM
REM
REM
REM ./C.cell (a2850807a9bf4ad07a5b6933b78d9264)
REM AIRSS Version 0.9.1 bugfix July 2018 build 013d7b7c2542+ Fri, 06 Jul 2018 19:26:36 +0100
REM compiler GCC version 9.2.1 20190827 (Red Hat 9.2.1-1)
REM options -cpp -mtune=generic -march=x86-64 -g -O0 -fpre-include=/usr/include/finclude/math-vector-fortran.h
REM seed -2101522313 -2138874190 -2008362446 -1466456150 541554261 -896571075 47584038 -1603204114 1063934663 1449941622 1142442394 1303770350 503075415 -1231397975 -1313153145 -530056221 -437524957 2004651083 1866696531 -1583272495 -967368186 1796982576 -1814429364 289809995 1521006955 -1741549070 -391285984 2076513541 -144322435 2060823510 -1325654503 1427046007 565735945
REM
CELL 1.54180   15.00000   15.00000   15.00000   90.00000   90.00000   90.00000
LATT -1
SFAC C  
C      1  0.4222860000000  0.6175570000000  0.7091770000000 1.0
C      1  0.4665390000000  0.4754210000000  0.5901150000000 1.0
C      1  0.5104650000000  0.6466100000000  0.6631750000000 1.0
C      1  0.5780460000000  0.5759870000000  0.2925510000000 1.0
C      1  0.2414680000000  0.5445700000000  0.5264950000000 1.0
C      1  0.3849560000000  0.5480150000000  0.6026770000000 1.0
C      1  0.2865080000000  0.5034420000000  0.6162390000000 1.0
C      1  0.4777190000000  0.6459470000000  0.4367520000000 1.0
C      1  0.5701480000000  0.5230570000000  0.5224730000000 1.0
C      1  0.4542020000000  0.4148290000000  0.4628430000000 1.0
C      1  0.5819470000000  0.5703390000000  0.6978190000000 1.0
C      1  0.3879420000000  0.6457350000000  0.5824660000000 1.0
C      1  0.3486990000000  0.5311540000000  0.7070130000000 1.0
C      1  0.3142710000000  0.5011290000000  0.3642580000000 1.0
C      1  0.6668520000000  0.3486260000000  0.4506770000000 1.0
C      1  0.5032480000000  0.4106550000000  0.2523040000000 1.0
C      1  0.5369770000000  0.3270170000000  0.2704690000000 1.0
C      1  0.5991130000000  0.3190370000000  0.3406080000000 1.0
C      1  0.4800610000000  0.5204910000000  0.6914390000000 1.0
C      1  0.4091480000000  0.5431500000000  0.3878290000000 1.0
C      1  0.2999730000000  0.3980530000000  0.5855650000000 1.0
C      1  0.5087580000000  0.3708580000000  0.5754120000000 1.0
C      1  0.4775380000000  0.6872450000000  0.3100500000000 1.0
C      1  0.7244470000000  0.5275940000000  0.6180430000000 1.0
C      1  0.4127050000000  0.7186910000000  0.5558030000000 1.0
C      1  0.3666330000000  0.3629730000000  0.4229560000000 1.0
C      1  0.2723590000000  0.6068970000000  0.4608520000000 1.0
C      1  0.6575440000000  0.4963130000000  0.2915410000000 1.0
C      1  0.5920380000000  0.4320510000000  0.5804590000000 1.0
C      1  0.3682530000000  0.6235550000000  0.4526290000000 1.0
C      1  0.5924200000000  0.4736710000000  0.7446530000000 1.0
C      1  0.6105040000000  0.6182460000000  0.5380960000000 1.0
C      1  0.6417230000000  0.3331830000000  0.6556010000000 1.0
C      1  0.6727150000000  0.3978320000000  0.3471220000000 1.0
C      1  0.3765490000000  0.3676580000000  0.6622850000000 1.0
C      1  0.5801180000000  0.2889940000000  0.4349040000000 1.0
C      1  0.6466380000000  0.4596480000000  0.4622300000000 1.0
C      1  0.2949910000000  0.4239050000000  0.4175680000000 1.0
C      1  0.5064360000000  0.2958450000000  0.4914110000000 1.0
C      1  0.4461860000000  0.6016100000000  0.3072930000000 1.0
C      1  0.5387290000000  0.6812200000000  0.5774760000000 1.0
C      1  0.6517220000000  0.6396910000000  0.4428230000000 1.0
C      1  0.2535230000000  0.4449890000000  0.5018760000000 1.0
C      1  0.5261070000000  0.4801460000000  0.3054420000000 1.0
C      1  0.5383360000000  0.5709110000000  0.3977420000000 1.0
C      1  0.4008080000000  0.3668310000000  0.5515240000000 1.0
C      1  0.5444480000000  0.4577650000000  0.4092660000000 1.0
C      1  0.4215810000000  0.2842660000000  0.4494610000000 1.0
C      1  0.6654340000000  0.5890710000000  0.3635590000000 1.0
C      1  0.6026240000000  0.3859500000000  0.7267100000000 1.0
C      1  0.6899970000000  0.4344620000000  0.6384830000000 1.0
C      1  0.4614250000000  0.5240590000000  0.4878010000000 1.0
C      1  0.4990470000000  0.7404290000000  0.4967530000000 1.0
C      1  0.2469390000000  0.5729320000000  0.3706480000000 1.0
C      1  0.4078820000000  0.4385350000000  0.7229580000000 1.0
C      1  0.6763800000000  0.3628290000000  0.5510820000000 1.0
C      1  0.7322800000000  0.4953850000000  0.5278970000000 1.0
C      1  0.4974390000000  0.7451130000000  0.3852930000000 1.0
C      1  0.6569640000000  0.5925760000000  0.6293320000000 1.0
C      1  0.7192110000000  0.4952530000000  0.3820240000000 1.0
END
