TITL C-3036485-3770-937 0.00416521183687751 3375 -333.296183691677 0 0 60 (D2) n - 1
REM
REM in /home/bkarasulu/work/CARBON/AIRSS/Generating-Clusters/REBO/Higher-Symm/Only-C60
REM
REM
REM
REM
REM
REM ./C.cell (a2850807a9bf4ad07a5b6933b78d9264)
REM AIRSS Version 0.9.1 bugfix July 2018 build 013d7b7c2542+ Fri, 06 Jul 2018 19:26:36 +0100
REM compiler GCC version 9.2.1 20190827 (Red Hat 9.2.1-1)
REM options -cpp -mtune=generic -march=x86-64 -g -O0 -fpre-include=/usr/include/finclude/math-vector-fortran.h
REM seed 377809307 -1365059565 -331637493 -1576736871 1574512973 1539224808 2101805097 -369208960 -233001368 -1104513171 -634447775 -268522097 -1450090427 -763446985 1768204047 843134964 336019366 -1063670347 -353345350 -48483310 1747043953 -1160083383 908673941 1272415985 748843644 250716499 2042470257 -133738367 1274042468 538344045 -700834914 1176900854 132925352
REM
CELL 1.54180   15.00000   15.00000   15.00000   90.00000   90.00000   90.00000
LATT -1
SFAC C  
C      1  0.6973910000000  0.3581510000000  0.5775570000000 1.0
C      1  0.6973910000000  0.6418490000000  0.4224430000000 1.0
C      1  0.3026090000000  0.3581510000000  0.4224430000000 1.0
C      1  0.3026090000000  0.6418490000000  0.5775570000000 1.0
C      1  0.7469580000000  0.4381380000000  0.6225980000000 1.0
C      1  0.7469580000000  0.5618620000000  0.3774020000000 1.0
C      1  0.2530420000000  0.4381380000000  0.3774020000000 1.0
C      1  0.2530420000000  0.5618620000000  0.6225980000000 1.0
C      1  0.6550130000000  0.5894660000000  0.5593830000000 1.0
C      1  0.6550130000000  0.4105340000000  0.4406170000000 1.0
C      1  0.3449870000000  0.5894660000000  0.4406170000000 1.0
C      1  0.3449870000000  0.4105340000000  0.5593830000000 1.0
C      1  0.5404190000000  0.5791230000000  0.4485000000000 1.0
C      1  0.5404190000000  0.4208770000000  0.5515000000000 1.0
C      1  0.4595810000000  0.5791230000000  0.5515000000000 1.0
C      1  0.4595810000000  0.4208770000000  0.4485000000000 1.0
C      1  0.5502480000000  0.4270110000000  0.2976140000000 1.0
C      1  0.5502480000000  0.5729890000000  0.7023860000000 1.0
C      1  0.4497520000000  0.4270110000000  0.7023860000000 1.0
C      1  0.4497520000000  0.5729890000000  0.2976140000000 1.0
C      1  0.7014880000000  0.4981610000000  0.6791300000000 1.0
C      1  0.7014880000000  0.5018390000000  0.3208700000000 1.0
C      1  0.2985120000000  0.4981610000000  0.3208700000000 1.0
C      1  0.2985120000000  0.5018390000000  0.6791300000000 1.0
C      1  0.4584160000000  0.7491050000000  0.4910000000000 1.0
C      1  0.4584160000000  0.2508950000000  0.5090000000000 1.0
C      1  0.5415840000000  0.7491050000000  0.5090000000000 1.0
C      1  0.5415840000000  0.2508950000000  0.4910000000000 1.0
C      1  0.4007380000000  0.5135610000000  0.6756090000000 1.0
C      1  0.4007380000000  0.4864390000000  0.3243910000000 1.0
C      1  0.5992620000000  0.5135610000000  0.3243910000000 1.0
C      1  0.5992620000000  0.4864390000000  0.6756090000000 1.0
C      1  0.3930290000000  0.3452770000000  0.3999890000000 1.0
C      1  0.3930290000000  0.6547230000000  0.6000110000000 1.0
C      1  0.6069710000000  0.3452770000000  0.6000110000000 1.0
C      1  0.6069710000000  0.6547230000000  0.3999890000000 1.0
C      1  0.4407490000000  0.5299020000000  0.4234400000000 1.0
C      1  0.4407490000000  0.4700980000000  0.5765600000000 1.0
C      1  0.5592510000000  0.5299020000000  0.5765600000000 1.0
C      1  0.5592510000000  0.4700980000000  0.4234400000000 1.0
C      1  0.2800640000000  0.4499350000000  0.4869270000000 1.0
C      1  0.2800640000000  0.5500650000000  0.5130730000000 1.0
C      1  0.7199360000000  0.4499350000000  0.5130730000000 1.0
C      1  0.7199360000000  0.5500650000000  0.4869270000000 1.0
C      1  0.4609300000000  0.3498660000000  0.6298920000000 1.0
C      1  0.4609300000000  0.6501340000000  0.3701080000000 1.0
C      1  0.5390700000000  0.3498660000000  0.3701080000000 1.0
C      1  0.5390700000000  0.6501340000000  0.6298920000000 1.0
C      1  0.5746610000000  0.3472650000000  0.4711000000000 1.0
C      1  0.5746610000000  0.6527350000000  0.5289000000000 1.0
C      1  0.4253390000000  0.3472650000000  0.5289000000000 1.0
C      1  0.4253390000000  0.6527350000000  0.4711000000000 1.0
C      1  0.4472080000000  0.3943900000000  0.3185860000000 1.0
C      1  0.4472080000000  0.6056100000000  0.6814140000000 1.0
C      1  0.5527920000000  0.3943900000000  0.6814140000000 1.0
C      1  0.5527920000000  0.6056100000000  0.3185860000000 1.0
C      1  0.2925490000000  0.5880240000000  0.3506490000000 1.0
C      1  0.2925490000000  0.4119760000000  0.6493510000000 1.0
C      1  0.7074510000000  0.5880240000000  0.6493510000000 1.0
C      1  0.7074510000000  0.4119760000000  0.3506490000000 1.0
END
