TITL C-3036486-2224-812 -5.40063157006664e-05 3375 -351.133855545177 0 0 60 (C2) n - 1
REM
REM in /home/bkarasulu/work/CARBON/AIRSS/Generating-Clusters/REBO/Higher-Symm/Only-C60
REM
REM
REM
REM
REM
REM ./C.cell (a2850807a9bf4ad07a5b6933b78d9264)
REM AIRSS Version 0.9.1 bugfix July 2018 build 013d7b7c2542+ Fri, 06 Jul 2018 19:26:36 +0100
REM compiler GCC version 9.2.1 20190827 (Red Hat 9.2.1-1)
REM options -cpp -mtune=generic -march=x86-64 -g -O0 -fpre-include=/usr/include/finclude/math-vector-fortran.h
REM seed -1273390171 -844120887 -659854500 -1736444031 1411672091 823142905 1964492801 -628860903 481897879 -821572825 -1745055502 1711072552 511987677 -1904732542 89937854 -115691149 58689089 82046457 -1176481860 554974502 -812918606 -623708997 2033030834 -715422122 -2113380898 2128927136 -1081262650 1545717661 732171519 -2130999550 -1800711257 -522190372 828108839
REM
CELL 1.54180   15.00000   15.00000   15.00000   90.00000   90.00000   90.00000
LATT -1
SFAC C  
C      1  0.3970040000000  0.4985920000000  0.7370980000000 1.0
C      1  0.6029960000000  0.5014080000000  0.7370980000000 1.0
C      1  0.3637020000000  0.2857590000000  0.4855090000000 1.0
C      1  0.6362980000000  0.7142410000000  0.4855090000000 1.0
C      1  0.4583930000000  0.5315630000000  0.4964680000000 1.0
C      1  0.5416070000000  0.4684360000000  0.4964680000000 1.0
C      1  0.4454450000000  0.2495430000000  0.4919880000000 1.0
C      1  0.5545550000000  0.7504570000000  0.4919880000000 1.0
C      1  0.6015990000000  0.4806410000000  0.4142540000000 1.0
C      1  0.3984010000000  0.5193590000000  0.4142540000000 1.0
C      1  0.3322540000000  0.6554540000000  0.5813230000000 1.0
C      1  0.6677460000000  0.3445460000000  0.5813230000000 1.0
C      1  0.6880810000000  0.5136780000000  0.6892460000000 1.0
C      1  0.3119190000000  0.4863220000000  0.6892460000000 1.0
C      1  0.4571860000000  0.4247810000000  0.7147180000000 1.0
C      1  0.5428140000000  0.5752190000000  0.7147180000000 1.0
C      1  0.2817070000000  0.6091570000000  0.4911200000000 1.0
C      1  0.7182930000000  0.3908430000000  0.4911200000000 1.0
C      1  0.6743900000000  0.6351570000000  0.4136780000000 1.0
C      1  0.3256100000000  0.3648430000000  0.4136780000000 1.0
C      1  0.6323470000000  0.3169910000000  0.4787130000000 1.0
C      1  0.3676530000000  0.6830100000000  0.4787130000000 1.0
C      1  0.2652430000000  0.5126300000000  0.4914730000000 1.0
C      1  0.7347570000000  0.4873700000000  0.4914730000000 1.0
C      1  0.6138670000000  0.4533240000000  0.2600050000000 1.0
C      1  0.3861340000000  0.5466760000000  0.2600050000000 1.0
C      1  0.3909900000000  0.4458900000000  0.2511330000000 1.0
C      1  0.6090100000000  0.5541100000000  0.2511330000000 1.0
C      1  0.3928810000000  0.4864660000000  0.5654710000000 1.0
C      1  0.6071190000000  0.5135340000000  0.5654710000000 1.0
C      1  0.5691820000000  0.5950410000000  0.6240140000000 1.0
C      1  0.4308180000000  0.4049590000000  0.6240140000000 1.0
C      1  0.5571580000000  0.3361800000000  0.3959070000000 1.0
C      1  0.4428420000000  0.6638200000000  0.3959070000000 1.0
C      1  0.3790030000000  0.3698760000000  0.3206090000000 1.0
C      1  0.6209970000000  0.6301240000000  0.3206090000000 1.0
C      1  0.5552690000000  0.4159990000000  0.7182790000000 1.0
C      1  0.4447310000000  0.5840010000000  0.7182780000000 1.0
C      1  0.6805830000000  0.5300510000000  0.4282210000000 1.0
C      1  0.3194170000000  0.4699490000000  0.4282210000000 1.0
C      1  0.5320430000000  0.2639540000000  0.4750820000000 1.0
C      1  0.4679570000000  0.7360460000000  0.4750820000000 1.0
C      1  0.5819880000000  0.3650440000000  0.6396950000000 1.0
C      1  0.4180120000000  0.6349560000000  0.6396950000000 1.0
C      1  0.7331670000000  0.5463730000000  0.5889260000000 1.0
C      1  0.2668330000000  0.4536270000000  0.5889260000000 1.0
C      1  0.4866310000000  0.6196520000000  0.5606200000000 1.0
C      1  0.5133690000000  0.3803480000000  0.5606200000000 1.0
C      1  0.4055790000000  0.5823620000000  0.3447570000000 1.0
C      1  0.5944210000000  0.4176380000000  0.3447570000000 1.0
C      1  0.3186650000000  0.5536840000000  0.6056600000000 1.0
C      1  0.6813350000000  0.4463160000000  0.6056600000000 1.0
C      1  0.5392740000000  0.6127900000000  0.3975050000000 1.0
C      1  0.4607260000000  0.3872100000000  0.3975050000000 1.0
C      1  0.4718740000000  0.4631090000000  0.3186550000000 1.0
C      1  0.5281260000000  0.5368900000000  0.3186550000000 1.0
C      1  0.6801800000000  0.6181510000000  0.5279790000000 1.0
C      1  0.3198200000000  0.3818490000000  0.5279790000000 1.0
C      1  0.5736670000000  0.5973740000000  0.4918970000000 1.0
C      1  0.4263330000000  0.4026260000000  0.4918970000000 1.0
END
