TITL C-3036482-790-421 0.006245789868961 3375 -338.571154391312 0 0 60 (C1) n - 1
REM
REM in /home/bkarasulu/work/CARBON/AIRSS/Generating-Clusters/REBO/Higher-Symm/Only-C60
REM
REM
REM
REM
REM
REM ./C.cell (a2850807a9bf4ad07a5b6933b78d9264)
REM AIRSS Version 0.9.1 bugfix July 2018 build 013d7b7c2542+ Fri, 06 Jul 2018 19:26:36 +0100
REM compiler GCC version 9.2.1 20190827 (Red Hat 9.2.1-1)
REM options -cpp -mtune=generic -march=x86-64 -g -O0 -fpre-include=/usr/include/finclude/math-vector-fortran.h
REM seed 1785819520 610588670 -1719438019 -1741309531 -381141259 1455064863 610559535 1495884335 159624902 1432373341 1633001311 1145515521 463069877 -1419210847 -1867047952 1421501350 -1487426250 -2091025576 -1597202414 -748617726 1868315377 -907070786 1860728166 2021842596 1689322982 2102696393 1315853684 -324652113 306426493 225202325 -1557533958 23024426 -2104250566
REM
CELL 1.54180   15.00000   15.00000   15.00000   90.00000   90.00000   90.00000
LATT -1
SFAC C  
C      1  0.4637380000000  0.2941820000000  0.4265480000000 1.0
C      1  0.4031520000000  0.6495960000000  0.3632860000000 1.0
C      1  0.4043860000000  0.3537830000000  0.3600170000000 1.0
C      1  0.5165450000000  0.5619680000000  0.2703230000000 1.0
C      1  0.4329070000000  0.3026660000000  0.5294540000000 1.0
C      1  0.7202970000000  0.6110730000000  0.6253560000000 1.0
C      1  0.4619190000000  0.5917920000000  0.7379720000000 1.0
C      1  0.6151910000000  0.5902080000000  0.6599620000000 1.0
C      1  0.5378830000000  0.3890750000000  0.7485920000000 1.0
C      1  0.3404180000000  0.6230450000000  0.6465540000000 1.0
C      1  0.5220000000000  0.3497030000000  0.6693920000000 1.0
C      1  0.6391830000000  0.6633620000000  0.4824170000000 1.0
C      1  0.3003240000000  0.6193120000000  0.5573850000000 1.0
C      1  0.4818890000000  0.5663650000000  0.4679360000000 1.0
C      1  0.5120380000000  0.4172340000000  0.5112900000000 1.0
C      1  0.5576660000000  0.3452650000000  0.5768290000000 1.0
C      1  0.4058550000000  0.5571270000000  0.2959050000000 1.0
C      1  0.6307390000000  0.5019990000000  0.5105900000000 1.0
C      1  0.3031300000000  0.5149400000000  0.4033580000000 1.0
C      1  0.4344370000000  0.3780840000000  0.6144080000000 1.0
C      1  0.3570230000000  0.4458620000000  0.6621570000000 1.0
C      1  0.5128780000000  0.4927930000000  0.7597880000000 1.0
C      1  0.7037180000000  0.3953060000000  0.4094410000000 1.0
C      1  0.3372620000000  0.5130370000000  0.5718800000000 1.0
C      1  0.4809910000000  0.5109330000000  0.3933870000000 1.0
C      1  0.6572060000000  0.3598900000000  0.3337700000000 1.0
C      1  0.2787590000000  0.4784870000000  0.4921020000000 1.0
C      1  0.5585420000000  0.3124860000000  0.4266300000000 1.0
C      1  0.6376960000000  0.6056830000000  0.3889980000000 1.0
C      1  0.6376650000000  0.6768740000000  0.5948960000000 1.0
C      1  0.6012700000000  0.4964350000000  0.7018730000000 1.0
C      1  0.4803450000000  0.6663780000000  0.2999140000000 1.0
C      1  0.3203720000000  0.5469980000000  0.6995950000000 1.0
C      1  0.5843050000000  0.6420770000000  0.3100040000000 1.0
C      1  0.5970280000000  0.2860090000000  0.5115840000000 1.0
C      1  0.2961160000000  0.3392140000000  0.3799330000000 1.0
C      1  0.7706700000000  0.5824630000000  0.5530050000000 1.0
C      1  0.3147820000000  0.3951760000000  0.4606630000000 1.0
C      1  0.6891570000000  0.4896380000000  0.4244990000000 1.0
C      1  0.4027390000000  0.4966410000000  0.7527480000000 1.0
C      1  0.4253870000000  0.6460960000000  0.4599250000000 1.0
C      1  0.3893680000000  0.4664350000000  0.3634330000000 1.0
C      1  0.5135910000000  0.5615430000000  0.6255370000000 1.0
C      1  0.4411950000000  0.6447010000000  0.6399510000000 1.0
C      1  0.4348520000000  0.4632770000000  0.2386200000000 1.0
C      1  0.2815120000000  0.6061980000000  0.3957550000000 1.0
C      1  0.4625940000000  0.6890400000000  0.5440650000000 1.0
C      1  0.6635910000000  0.4250800000000  0.5647070000000 1.0
C      1  0.4474700000000  0.4847760000000  0.5747180000000 1.0
C      1  0.2789580000000  0.6542740000000  0.4742290000000 1.0
C      1  0.5734030000000  0.4219460000000  0.4159280000000 1.0
C      1  0.5804770000000  0.5157270000000  0.3520390000000 1.0
C      1  0.7206380000000  0.5878970000000  0.4627630000000 1.0
C      1  0.5536340000000  0.7121500000000  0.5348250000000 1.0
C      1  0.6405640000000  0.4287280000000  0.6559410000000 1.0
C      1  0.7056400000000  0.3625100000000  0.5025770000000 1.0
C      1  0.5591060000000  0.3779860000000  0.3101610000000 1.0
C      1  0.4689270000000  0.3920290000000  0.2856890000000 1.0
C      1  0.4043500000000  0.3950880000000  0.4866210000000 1.0
C      1  0.5525230000000  0.5513620000000  0.5280750000000 1.0
END
