TITL C-3036480-97-15 1.02807719882298e-05 3375 -343.114517507264 0 0 60 (C1) n - 1
REM
REM in /home/bkarasulu/work/CARBON/AIRSS/Generating-Clusters/REBO/Higher-Symm/Only-C60
REM
REM
REM
REM
REM
REM ./C.cell (a2850807a9bf4ad07a5b6933b78d9264)
REM AIRSS Version 0.9.1 bugfix July 2018 build 013d7b7c2542+ Fri, 06 Jul 2018 19:26:36 +0100
REM compiler GCC version 9.2.1 20190827 (Red Hat 9.2.1-1)
REM options -cpp -mtune=generic -march=x86-64 -g -O0 -fpre-include=/usr/include/finclude/math-vector-fortran.h
REM seed -1527173730 1441159913 75885617 -1316365709 839240927 -1858480225 478711230 -1584080078 -318008213 1909680754 2049573549 631681726 -1760512940 1128570045 930884799 -621993946 231794335 804840478 1618734426 -423976517 -103433831 -1997021382 1276318188 149043162 676936235 2050152136 -2058300991 1906317546 1262290307 2017026715 -935742272 1424562885 1576627321
REM
CELL 1.54180   15.00000   15.00000   15.00000   90.00000   90.00000   90.00000
LATT -1
SFAC C  
C      1  0.7626480000000  0.4370560000000  0.4271380000000 1.0
C      1  0.6346450000000  0.7184780000000  0.4056880000000 1.0
C      1  0.3392160000000  0.6722910000000  0.4308570000000 1.0
C      1  0.2689050000000  0.4120590000000  0.4304530000000 1.0
C      1  0.5153690000000  0.2627420000000  0.4393390000000 1.0
C      1  0.7460390000000  0.5469540000000  0.4212700000000 1.0
C      1  0.6166870000000  0.3031590000000  0.4364790000000 1.0
C      1  0.3521240000000  0.3447530000000  0.4461470000000 1.0
C      1  0.2595400000000  0.5963720000000  0.4287110000000 1.0
C      1  0.5286330000000  0.7466900000000  0.4351640000000 1.0
C      1  0.6692950000000  0.4544650000000  0.3651640000000 1.0
C      1  0.6037040000000  0.6265210000000  0.3466700000000 1.0
C      1  0.4253860000000  0.6223000000000  0.3763460000000 1.0
C      1  0.3534740000000  0.4590000000000  0.3777440000000 1.0
C      1  0.5102910000000  0.3553980000000  0.3770300000000 1.0
C      1  0.6573450000000  0.5532400000000  0.3516100000000 1.0
C      1  0.6040830000000  0.3914410000000  0.3707290000000 1.0
C      1  0.4278290000000  0.3929150000000  0.3787510000000 1.0
C      1  0.3507270000000  0.5518030000000  0.3771170000000 1.0
C      1  0.5103300000000  0.6568990000000  0.3709210000000 1.0
C      1  0.3353390000000  0.4603760000000  0.5096770000000 1.0
C      1  0.5162840000000  0.3504080000000  0.5100610000000 1.0
C      1  0.6868250000000  0.4620120000000  0.5049770000000 1.0
C      1  0.6019530000000  0.6441910000000  0.4784720000000 1.0
C      1  0.4102030000000  0.6350040000000  0.5108210000000 1.0
C      1  0.3308130000000  0.5641620000000  0.5082400000000 1.0
C      1  0.5037370000000  0.6615890000000  0.5039090000000 1.0
C      1  0.6624920000000  0.5668710000000  0.4959350000000 1.0
C      1  0.6161410000000  0.3893900000000  0.5106210000000 1.0
C      1  0.4165360000000  0.3842180000000  0.5301910000000 1.0
C      1  0.4467110000000  0.2068730000000  0.4847500000000 1.0
C      1  0.7721780000000  0.3598930000000  0.4978950000000 1.0
C      1  0.7168600000000  0.7105480000000  0.4741980000000 1.0
C      1  0.3525630000000  0.7539700000000  0.4961680000000 1.0
C      1  0.1923930000000  0.4472860000000  0.4862840000000 1.0
C      1  0.4532310000000  0.7844680000000  0.4994560000000 1.0
C      1  0.7801780000000  0.6269130000000  0.4818110000000 1.0
C      1  0.7007480000000  0.2863050000000  0.4933040000000 1.0
C      1  0.3515860000000  0.2489370000000  0.4890770000000 1.0
C      1  0.1921250000000  0.5491940000000  0.4948430000000 1.0
C      1  0.5923180000000  0.3610990000000  0.6185130000000 1.0
C      1  0.6738200000000  0.5465430000000  0.6067820000000 1.0
C      1  0.4926460000000  0.6440930000000  0.6151820000000 1.0
C      1  0.3166460000000  0.5381600000000  0.6186000000000 1.0
C      1  0.3831380000000  0.3419900000000  0.6293900000000 1.0
C      1  0.5953180000000  0.6275300000000  0.5936600000000 1.0
C      1  0.6722410000000  0.4422760000000  0.6187910000000 1.0
C      1  0.4940290000000  0.3204110000000  0.6175160000000 1.0
C      1  0.3232380000000  0.4249510000000  0.6162630000000 1.0
C      1  0.3810530000000  0.6214190000000  0.6175830000000 1.0
C      1  0.3336560000000  0.2502390000000  0.5940840000000 1.0
C      1  0.6902310000000  0.3138440000000  0.5915460000000 1.0
C      1  0.7711060000000  0.5998260000000  0.5833660000000 1.0
C      1  0.4407490000000  0.7380070000000  0.5929500000000 1.0
C      1  0.2101940000000  0.5630350000000  0.5963070000000 1.0
C      1  0.3348910000000  0.7226450000000  0.5955710000000 1.0
C      1  0.6937180000000  0.6730460000000  0.5702790000000 1.0
C      1  0.7682170000000  0.3886160000000  0.5978000000000 1.0
C      1  0.4390810000000  0.2294740000000  0.5863910000000 1.0
C      1  0.2185440000000  0.4556520000000  0.5854080000000 1.0
END
