TITL C-3036486-2224-105 0.00690815872316086 3375 -341.888953881548 0 0 60 (C1) n - 1
REM
REM in /home/bkarasulu/work/CARBON/AIRSS/Generating-Clusters/REBO/Higher-Symm/Only-C60
REM
REM
REM
REM
REM
REM ./C.cell (a2850807a9bf4ad07a5b6933b78d9264)
REM AIRSS Version 0.9.1 bugfix July 2018 build 013d7b7c2542+ Fri, 06 Jul 2018 19:26:36 +0100
REM compiler GCC version 9.2.1 20190827 (Red Hat 9.2.1-1)
REM options -cpp -mtune=generic -march=x86-64 -g -O0 -fpre-include=/usr/include/finclude/math-vector-fortran.h
REM seed -1750409451 766817685 883330591 1196034854 2114881836 -2035289338 -2061083912 -1473192584 -877068452 -631148379 -540426365 770535628 441532345 -405014592 2122531610 2078728914 1091439573 -1525346530 86538105 2011599040 1826586550 1975844620 1404686145 -334676309 300794777 -1782589476 1000450595 -1914555984 1306313506 -1483216325 -1523596123 -150201813 329806409
REM
CELL 1.54180   15.00000   15.00000   15.00000   90.00000   90.00000   90.00000
LATT -1
SFAC C  
C      1  0.6617520000000  0.5604100000000  0.6922220000000 1.0
C      1  0.4334430000000  0.4122430000000  0.5708380000000 1.0
C      1  0.4058750000000  0.5403320000000  0.4991660000000 1.0
C      1  0.6618520000000  0.5731910000000  0.5253460000000 1.0
C      1  0.5374610000000  0.3319460000000  0.4038010000000 1.0
C      1  0.6330910000000  0.3578410000000  0.3782820000000 1.0
C      1  0.6461620000000  0.7040940000000  0.5357510000000 1.0
C      1  0.7119100000000  0.5019430000000  0.3292020000000 1.0
C      1  0.7481350000000  0.5992130000000  0.3763050000000 1.0
C      1  0.3884590000000  0.6650690000000  0.5413660000000 1.0
C      1  0.4603910000000  0.6521590000000  0.6281200000000 1.0
C      1  0.4970820000000  0.3796820000000  0.7107270000000 1.0
C      1  0.7121490000000  0.6504010000000  0.4590160000000 1.0
C      1  0.5459150000000  0.3408050000000  0.5694320000000 1.0
C      1  0.6453310000000  0.4682960000000  0.5228710000000 1.0
C      1  0.4151510000000  0.6606100000000  0.3699460000000 1.0
C      1  0.2504450000000  0.5314360000000  0.4325620000000 1.0
C      1  0.3678410000000  0.5863580000000  0.6183490000000 1.0
C      1  0.4336930000000  0.6885560000000  0.4601540000000 1.0
C      1  0.2708640000000  0.4394650000000  0.6239940000000 1.0
C      1  0.5231670000000  0.7111470000000  0.4866070000000 1.0
C      1  0.6080050000000  0.6834070000000  0.4303070000000 1.0
C      1  0.4693480000000  0.6313150000000  0.2825550000000 1.0
C      1  0.7109270000000  0.4221390000000  0.5885420000000 1.0
C      1  0.5374820000000  0.4725800000000  0.7312190000000 1.0
C      1  0.3744300000000  0.4840330000000  0.7495880000000 1.0
C      1  0.4904100000000  0.5598420000000  0.6759220000000 1.0
C      1  0.3737620000000  0.5599010000000  0.3372340000000 1.0
C      1  0.5474110000000  0.6906650000000  0.5919320000000 1.0
C      1  0.6654590000000  0.3969630000000  0.6683100000000 1.0
C      1  0.4461630000000  0.3281390000000  0.6733900000000 1.0
C      1  0.5674990000000  0.6487470000000  0.2887490000000 1.0
C      1  0.6013250000000  0.3263660000000  0.6470390000000 1.0
C      1  0.2961800000000  0.4998590000000  0.3611850000000 1.0
C      1  0.4479770000000  0.5231910000000  0.2611290000000 1.0
C      1  0.5428630000000  0.4456810000000  0.5520650000000 1.0
C      1  0.2767050000000  0.3489910000000  0.6102750000000 1.0
C      1  0.3596790000000  0.3218510000000  0.4274930000000 1.0
C      1  0.6731940000000  0.4466060000000  0.4211110000000 1.0
C      1  0.6525780000000  0.5980010000000  0.3172940000000 1.0
C      1  0.5042040000000  0.2981530000000  0.4938710000000 1.0
C      1  0.4145530000000  0.4364400000000  0.4668650000000 1.0
C      1  0.4828030000000  0.5336790000000  0.5730360000000 1.0
C      1  0.2665610000000  0.5387080000000  0.5973910000000 1.0
C      1  0.3027270000000  0.5570550000000  0.5065340000000 1.0
C      1  0.4793950000000  0.3338680000000  0.3102520000000 1.0
C      1  0.3749430000000  0.3175250000000  0.5941200000000 1.0
C      1  0.3733080000000  0.4760370000000  0.6427760000000 1.0
C      1  0.5415990000000  0.6015720000000  0.3902080000000 1.0
C      1  0.6316680000000  0.5521540000000  0.4210110000000 1.0
C      1  0.4546540000000  0.5277790000000  0.7750680000000 1.0
C      1  0.6351950000000  0.6220680000000  0.6143480000000 1.0
C      1  0.3575620000000  0.4158120000000  0.3709690000000 1.0
C      1  0.4637270000000  0.5411430000000  0.4020350000000 1.0
C      1  0.6307730000000  0.4300890000000  0.2973590000000 1.0
C      1  0.5312230000000  0.4559710000000  0.2936730000000 1.0
C      1  0.4098600000000  0.2942620000000  0.4989060000000 1.0
C      1  0.6342530000000  0.4754900000000  0.7150870000000 1.0
C      1  0.4220540000000  0.4158330000000  0.2896380000000 1.0
C      1  0.4973710000000  0.4328860000000  0.3974550000000 1.0
END
