TITL C-3036480-97-1077 1.54357997161518e-06 3375 -344.376118237998 0 0 60 (C1) n - 1
REM
REM in /home/bkarasulu/work/CARBON/AIRSS/Generating-Clusters/REBO/Higher-Symm/Only-C60
REM
REM
REM
REM
REM
REM ./C.cell (a2850807a9bf4ad07a5b6933b78d9264)
REM AIRSS Version 0.9.1 bugfix July 2018 build 013d7b7c2542+ Fri, 06 Jul 2018 19:26:36 +0100
REM compiler GCC version 9.2.1 20190827 (Red Hat 9.2.1-1)
REM options -cpp -mtune=generic -march=x86-64 -g -O0 -fpre-include=/usr/include/finclude/math-vector-fortran.h
REM seed 2142273344 1705448369 -1589767969 529353691 -1885833000 -955539845 -1844854156 -368359687 -1164117613 2013409293 -959562110 -1053635743 2114866695 662691632 1072746623 1044686199 -918591150 1221262333 -239235207 269625587 1719956734 628371162 233694957 824491501 1444359623 -1769766559 -1253182314 -1095664829 2090974822 -1030615041 -1286116195 -384345097 569359256
REM
CELL 1.54180   15.00000   15.00000   15.00000   90.00000   90.00000   90.00000
LATT -1
SFAC C  
C      1  0.4262150000000  0.6425410000000  0.7218930000000 1.0
C      1  0.6618490000000  0.4908760000000  0.7211170000000 1.0
C      1  0.4064370000000  0.4083700000000  0.7120570000000 1.0
C      1  0.4316780000000  0.6407470000000  0.2812910000000 1.0
C      1  0.6638790000000  0.4867330000000  0.2850160000000 1.0
C      1  0.4076350000000  0.4063450000000  0.2872630000000 1.0
C      1  0.5303710000000  0.6254740000000  0.7162340000000 1.0
C      1  0.3383870000000  0.4888520000000  0.7195030000000 1.0
C      1  0.5978100000000  0.4062210000000  0.7133980000000 1.0
C      1  0.5354310000000  0.6218220000000  0.2877910000000 1.0
C      1  0.3410160000000  0.4881370000000  0.2804540000000 1.0
C      1  0.5976990000000  0.4040770000000  0.2898380000000 1.0
C      1  0.4054950000000  0.3423730000000  0.4490080000000 1.0
C      1  0.4119190000000  0.6502630000000  0.4519500000000 1.0
C      1  0.6851900000000  0.4875150000000  0.4535390000000 1.0
C      1  0.4140260000000  0.3463060000000  0.5496980000000 1.0
C      1  0.4136710000000  0.6612700000000  0.5518330000000 1.0
C      1  0.6827440000000  0.5034360000000  0.5530230000000 1.0
C      1  0.5933910000000  0.3357200000000  0.4477830000000 1.0
C      1  0.5895940000000  0.6548500000000  0.4503570000000 1.0
C      1  0.3225130000000  0.5008560000000  0.4512290000000 1.0
C      1  0.5901320000000  0.3461610000000  0.5491150000000 1.0
C      1  0.5903920000000  0.6495110000000  0.5515860000000 1.0
C      1  0.3158080000000  0.4951280000000  0.5512510000000 1.0
C      1  0.5515610000000  0.4081720000000  0.1976890000000 1.0
C      1  0.4001380000000  0.5005800000000  0.1944690000000 1.0
C      1  0.5550410000000  0.5778780000000  0.1961950000000 1.0
C      1  0.5486370000000  0.4096810000000  0.8044530000000 1.0
C      1  0.3959520000000  0.5007210000000  0.8064310000000 1.0
C      1  0.5494780000000  0.5796310000000  0.8074150000000 1.0
C      1  0.4568760000000  0.4105590000000  0.1965540000000 1.0
C      1  0.6076620000000  0.4984060000000  0.1974420000000 1.0
C      1  0.4491310000000  0.5836720000000  0.1947550000000 1.0
C      1  0.4539660000000  0.4114570000000  0.8036770000000 1.0
C      1  0.6028450000000  0.5005980000000  0.8062970000000 1.0
C      1  0.4437350000000  0.5844430000000  0.8077030000000 1.0
C      1  0.2584730000000  0.4188370000000  0.4587400000000 1.0
C      1  0.5533190000000  0.7507470000000  0.4284480000000 1.0
C      1  0.6941660000000  0.3148320000000  0.4249260000000 1.0
C      1  0.2528690000000  0.4135570000000  0.5702670000000 1.0
C      1  0.5548690000000  0.7464130000000  0.5402440000000 1.0
C      1  0.6927260000000  0.3337890000000  0.5354240000000 1.0
C      1  0.7482910000000  0.4046360000000  0.4379960000000 1.0
C      1  0.4514820000000  0.7466160000000  0.4572300000000 1.0
C      1  0.3038860000000  0.3277650000000  0.4298840000000 1.0
C      1  0.7475650000000  0.4215120000000  0.5501160000000 1.0
C      1  0.4534260000000  0.7567410000000  0.5687170000000 1.0
C      1  0.3112140000000  0.3298980000000  0.5417860000000 1.0
C      1  0.4524280000000  0.4099030000000  0.6165170000000 1.0
C      1  0.4412210000000  0.5932240000000  0.6231150000000 1.0
C      1  0.6113010000000  0.5033430000000  0.6238660000000 1.0
C      1  0.4512720000000  0.4054010000000  0.3842440000000 1.0
C      1  0.4443740000000  0.5892270000000  0.3788060000000 1.0
C      1  0.6123980000000  0.4977870000000  0.3828460000000 1.0
C      1  0.5520300000000  0.4080370000000  0.6171410000000 1.0
C      1  0.5546680000000  0.5863250000000  0.6202580000000 1.0
C      1  0.3895420000000  0.5043000000000  0.6216770000000 1.0
C      1  0.5508130000000  0.4026210000000  0.3850220000000 1.0
C      1  0.5577080000000  0.5833380000000  0.3851280000000 1.0
C      1  0.3916540000000  0.5017680000000  0.3783000000000 1.0
END
