TITL C-3036481-494-958 -0.00354518499567837 3375 -347.24511225908 0 0 60 (C1) n - 1
REM
REM in /home/bkarasulu/work/CARBON/AIRSS/Generating-Clusters/REBO/Higher-Symm/Only-C60
REM
REM
REM
REM
REM
REM ./C.cell (a2850807a9bf4ad07a5b6933b78d9264)
REM AIRSS Version 0.9.1 bugfix July 2018 build 013d7b7c2542+ Fri, 06 Jul 2018 19:26:36 +0100
REM compiler GCC version 9.2.1 20190827 (Red Hat 9.2.1-1)
REM options -cpp -mtune=generic -march=x86-64 -g -O0 -fpre-include=/usr/include/finclude/math-vector-fortran.h
REM seed 728998073 -1095331370 -133618110 -1708282166 1781631412 -1276261935 1667771663 1076393217 -838389618 -232120111 956083249 1760547989 -513121692 1534020627 -1637157279 1566632042 -1088097529 1888368357 842499304 386340083 -2107497892 1032200711 -618348073 206290917 2029224049 928991987 2110709807 -1580859624 -188908836 -633034761 70900917 1590698165 882696606
REM
CELL 1.54180   15.00000   15.00000   15.00000   90.00000   90.00000   90.00000
LATT -1
SFAC C  
C      1  0.3703380000000  0.2948450000000  0.5024530000000 1.0
C      1  0.3718430000000  0.6035660000000  0.6708500000000 1.0
C      1  0.3682550000000  0.5997800000000  0.3128910000000 1.0
C      1  0.5009390000000  0.5705830000000  0.6229110000000 1.0
C      1  0.4965100000000  0.5917720000000  0.3601720000000 1.0
C      1  0.4975940000000  0.3332150000000  0.5107890000000 1.0
C      1  0.4678140000000  0.6700120000000  0.4813080000000 1.0
C      1  0.4755610000000  0.4232950000000  0.3738620000000 1.0
C      1  0.4678480000000  0.4205680000000  0.6589580000000 1.0
C      1  0.3087340000000  0.6318680000000  0.5928620000000 1.0
C      1  0.3080120000000  0.5155200000000  0.3364600000000 1.0
C      1  0.3126610000000  0.3469210000000  0.5696710000000 1.0
C      1  0.7098880000000  0.4720290000000  0.4071080000000 1.0
C      1  0.7160850000000  0.4316820000000  0.5669940000000 1.0
C      1  0.7091720000000  0.5908950000000  0.5167920000000 1.0
C      1  0.7221520000000  0.5306600000000  0.5864650000000 1.0
C      1  0.7270850000000  0.5620690000000  0.4226790000000 1.0
C      1  0.7294660000000  0.4040180000000  0.4794020000000 1.0
C      1  0.5609450000000  0.7160140000000  0.5644860000000 1.0
C      1  0.5630400000000  0.4600660000000  0.2805330000000 1.0
C      1  0.5601100000000  0.3255960000000  0.6726240000000 1.0
C      1  0.5329810000000  0.4116840000000  0.5759770000000 1.0
C      1  0.5269960000000  0.5819570000000  0.5130490000000 1.0
C      1  0.5286300000000  0.5088150000000  0.4263560000000 1.0
C      1  0.4043760000000  0.6375110000000  0.4013250000000 1.0
C      1  0.4176430000000  0.3650570000000  0.4424170000000 1.0
C      1  0.4134610000000  0.5121170000000  0.6491190000000 1.0
C      1  0.5981870000000  0.7395100000000  0.3986410000000 1.0
C      1  0.5921840000000  0.3010540000000  0.3525140000000 1.0
C      1  0.5949420000000  0.4711900000000  0.7562970000000 1.0
C      1  0.4200790000000  0.6272480000000  0.2429070000000 1.0
C      1  0.4170600000000  0.2171960000000  0.5082850000000 1.0
C      1  0.4242180000000  0.6522150000000  0.7269240000000 1.0
C      1  0.4877240000000  0.5200260000000  0.2836700000000 1.0
C      1  0.4840380000000  0.2960850000000  0.6157250000000 1.0
C      1  0.4878070000000  0.6759060000000  0.6122180000000 1.0
C      1  0.2756650000000  0.4512770000000  0.5444200000000 1.0
C      1  0.2755410000000  0.5584470000000  0.5154830000000 1.0
C      1  0.2739350000000  0.4813250000000  0.4385050000000 1.0
C      1  0.3958140000000  0.6955720000000  0.5652490000000 1.0
C      1  0.4002780000000  0.4660220000000  0.2996520000000 1.0
C      1  0.3902790000000  0.3384400000000  0.6498060000000 1.0
C      1  0.5751270000000  0.6567050000000  0.3307580000000 1.0
C      1  0.5734420000000  0.2806250000000  0.4595880000000 1.0
C      1  0.5763670000000  0.5625630000000  0.6974600000000 1.0
C      1  0.5134000000000  0.6378770000000  0.7402310000000 1.0
C      1  0.5071000000000  0.6571210000000  0.2447420000000 1.0
C      1  0.5051830000000  0.2021520000000  0.4884740000000 1.0
C      1  0.5340880000000  0.4002660000000  0.7419770000000 1.0
C      1  0.5372110000000  0.7521640000000  0.4692140000000 1.0
C      1  0.5377510000000  0.3619110000000  0.3072070000000 1.0
C      1  0.6516190000000  0.3544440000000  0.4283710000000 1.0
C      1  0.6600170000000  0.4967110000000  0.6680940000000 1.0
C      1  0.6597690000000  0.6449470000000  0.4053860000000 1.0
C      1  0.3439210000000  0.4173320000000  0.3851010000000 1.0
C      1  0.3395850000000  0.4387890000000  0.6318910000000 1.0
C      1  0.3377810000000  0.6437260000000  0.4824350000000 1.0
C      1  0.6195030000000  0.6436660000000  0.5115670000000 1.0
C      1  0.6107760000000  0.4482210000000  0.3776950000000 1.0
C      1  0.6314680000000  0.3971540000000  0.6210010000000 1.0
END
