TITL C-3036486-2224-599 0.894717951067446 3375 -294.251444714005 0 0 60 (S4) n - 1
REM
REM in /home/bkarasulu/work/CARBON/AIRSS/Generating-Clusters/REBO/Higher-Symm/Only-C60
REM
REM
REM
REM
REM
REM ./C.cell (a2850807a9bf4ad07a5b6933b78d9264)
REM AIRSS Version 0.9.1 bugfix July 2018 build 013d7b7c2542+ Fri, 06 Jul 2018 19:26:36 +0100
REM compiler GCC version 9.2.1 20190827 (Red Hat 9.2.1-1)
REM options -cpp -mtune=generic -march=x86-64 -g -O0 -fpre-include=/usr/include/finclude/math-vector-fortran.h
REM seed 322496986 608819387 1457736688 -955109316 1145318376 1825974523 -752021847 2096122133 863348118 884873208 2098947413 -1524877179 1208001361 1522826986 -1676489300 -167727142 1708806776 -1198699852 253422564 -1503172455 1040226992 -944560390 -1499235480 1816385179 1026206582 -1044341366 -1408174846 -1488062427 1467822392 -1273475448 -557532394 -2036681316 -1306421767
REM
CELL 1.54180   15.00000   15.00000   15.00000   90.00000   90.00000   90.00000
LATT -1
SFAC C  
C      1  0.4737310000000  0.3927470000000  0.7263720000000 1.0
C      1  0.5305380000000  0.3948670000000  0.2740650000000 1.0
C      1  0.5791800000000  0.4235930000000  0.7261780000000 1.0
C      1  0.6072410000000  0.4737170000000  0.2736300000000 1.0
C      1  0.6051090000000  0.5305600000000  0.7259740000000 1.0
C      1  0.5763900000000  0.5792020000000  0.2738190000000 1.0
C      1  0.5262760000000  0.6072510000000  0.7263740000000 1.0
C      1  0.4694360000000  0.6051160000000  0.2740380000000 1.0
C      1  0.4207820000000  0.5763880000000  0.7261570000000 1.0
C      1  0.3927460000000  0.5262650000000  0.2736220000000 1.0
C      1  0.3948560000000  0.4694630000000  0.7259350000000 1.0
C      1  0.4235990000000  0.4207790000000  0.2738410000000 1.0
C      1  0.3978030000000  0.3870310000000  0.4549030000000 1.0
C      1  0.4715620000000  0.3502020000000  0.5455730000000 1.0
C      1  0.5474310000000  0.3583970000000  0.4622650000000 1.0
C      1  0.6130450000000  0.3978630000000  0.5447720000000 1.0
C      1  0.6494500000000  0.4715090000000  0.4538430000000 1.0
C      1  0.6415830000000  0.5474340000000  0.5377330000000 1.0
C      1  0.6021070000000  0.6130220000000  0.4552360000000 1.0
C      1  0.5285100000000  0.6494550000000  0.5461570000000 1.0
C      1  0.4525180000000  0.6416020000000  0.4623010000000 1.0
C      1  0.3870180000000  0.6023410000000  0.5447000000000 1.0
C      1  0.3503130000000  0.5283860000000  0.4538340000000 1.0
C      1  0.3583680000000  0.4525370000000  0.5377120000000 1.0
C      1  0.4479850000000  0.2261520000000  0.4501940000000 1.0
C      1  0.5947310000000  0.2317310000000  0.5523150000000 1.0
C      1  0.7111660000000  0.3192580000000  0.4504040000000 1.0
C      1  0.7739080000000  0.4479760000000  0.5498810000000 1.0
C      1  0.7682720000000  0.5946830000000  0.4476910000000 1.0
C      1  0.6807460000000  0.7111520000000  0.5495940000000 1.0
C      1  0.5520160000000  0.7739120000000  0.4501400000000 1.0
C      1  0.4053130000000  0.7682880000000  0.5523060000000 1.0
C      1  0.2888350000000  0.6807670000000  0.4503790000000 1.0
C      1  0.2261540000000  0.5520090000000  0.5497970000000 1.0
C      1  0.2317070000000  0.4052980000000  0.4476720000000 1.0
C      1  0.3192470000000  0.2888560000000  0.5495990000000 1.0
C      1  0.6873070000000  0.5629570000000  0.4131590000000 1.0
C      1  0.6255000000000  0.6425680000000  0.5823790000000 1.0
C      1  0.5387420000000  0.6870440000000  0.4167100000000 1.0
C      1  0.4370840000000  0.6873320000000  0.5868090000000 1.0
C      1  0.3574590000000  0.6254520000000  0.4179660000000 1.0
C      1  0.3130310000000  0.5387110000000  0.5830990000000 1.0
C      1  0.3126860000000  0.4371220000000  0.4132270000000 1.0
C      1  0.3744670000000  0.3573150000000  0.5825480000000 1.0
C      1  0.4613330000000  0.3131920000000  0.4174440000000 1.0
C      1  0.5629330000000  0.3126970000000  0.5867930000000 1.0
C      1  0.6426160000000  0.3745170000000  0.4176310000000 1.0
C      1  0.6870530000000  0.4612620000000  0.5832830000000 1.0
C      1  0.6238130000000  0.6297420000000  0.6814850000000 1.0
C      1  0.5416080000000  0.6743980000000  0.3184700000000 1.0
C      1  0.4482330000000  0.6752860000000  0.6860010000000 1.0
C      1  0.3702550000000  0.6237660000000  0.3185100000000 1.0
C      1  0.3256630000000  0.5416060000000  0.6814940000000 1.0
C      1  0.3247310000000  0.4482330000000  0.3140170000000 1.0
C      1  0.3762270000000  0.3702460000000  0.6814400000000 1.0
C      1  0.4583940000000  0.3256550000000  0.3184940000000 1.0
C      1  0.5517610000000  0.3247380000000  0.6859650000000 1.0
C      1  0.6297430000000  0.3761850000000  0.3185090000000 1.0
C      1  0.6744110000000  0.4583830000000  0.6815530000000 1.0
C      1  0.6752780000000  0.5517830000000  0.3140090000000 1.0
END
