TITL C-3036483-1610-434 3.05359174038744e-06 3375 -349.861654531953 0 0 60 (Td) n - 1
REM
REM in /home/bkarasulu/work/CARBON/AIRSS/Generating-Clusters/REBO/Higher-Symm/Only-C60
REM
REM
REM
REM
REM
REM ./C.cell (a2850807a9bf4ad07a5b6933b78d9264)
REM AIRSS Version 0.9.1 bugfix July 2018 build 013d7b7c2542+ Fri, 06 Jul 2018 19:26:36 +0100
REM compiler GCC version 9.2.1 20190827 (Red Hat 9.2.1-1)
REM options -cpp -mtune=generic -march=x86-64 -g -O0 -fpre-include=/usr/include/finclude/math-vector-fortran.h
REM seed 1481811321 1415123051 -1643267350 -1385802706 -1180645783 1305767599 1511696714 -1453648616 -261622440 958360932 -528810081 -1948838948 663263619 -1010430412 -2047516351 1747616901 -81998668 899288617 -857101711 -107198658 2145426569 504601177 -714269631 733944110 -403663220 1651282557 -164842434 -616367626 689913855 1471732129 -368284094 -1542645181 -335720850
REM
CELL 1.54180   15.00000   15.00000   15.00000   90.00000   90.00000   90.00000
LATT -1
SFAC C  
C      1  0.4968530000000  0.4224870000000  0.3506130000000 1.0
C      1  0.4224870000000  0.3506130000000  0.4968530000000 1.0
C      1  0.3506130000000  0.4968530000000  0.4224870000000 1.0
C      1  0.5031470000000  0.5775130000000  0.3506130000000 1.0
C      1  0.4968530000000  0.5775130000000  0.6493870000000 1.0
C      1  0.5031470000000  0.4224870000000  0.6493870000000 1.0
C      1  0.5775130000000  0.6493870000000  0.4968530000000 1.0
C      1  0.4224870000000  0.6493870000000  0.5031470000000 1.0
C      1  0.5775130000000  0.3506130000000  0.5031470000000 1.0
C      1  0.6493870000000  0.5031470000000  0.4224870000000 1.0
C      1  0.3506130000000  0.5031470000000  0.5775130000000 1.0
C      1  0.6493870000000  0.4968530000000  0.5775130000000 1.0
C      1  0.4224870000000  0.4968530000000  0.3506130000000 1.0
C      1  0.3506130000000  0.4224870000000  0.4968530000000 1.0
C      1  0.4968530000000  0.3506130000000  0.4224870000000 1.0
C      1  0.5775130000000  0.5031470000000  0.3506130000000 1.0
C      1  0.5775130000000  0.4968530000000  0.6493870000000 1.0
C      1  0.4224870000000  0.5031470000000  0.6493870000000 1.0
C      1  0.6493870000000  0.5775130000000  0.4968530000000 1.0
C      1  0.6493870000000  0.4224870000000  0.5031470000000 1.0
C      1  0.3506130000000  0.5775130000000  0.5031470000000 1.0
C      1  0.5031470000000  0.6493870000000  0.4224870000000 1.0
C      1  0.5031470000000  0.3506130000000  0.5775130000000 1.0
C      1  0.4968530000000  0.6493870000000  0.5775130000000 1.0
C      1  0.4491390000000  0.7334960000000  0.3787370000000 1.0
C      1  0.7334960000000  0.3787370000000  0.4491390000000 1.0
C      1  0.3787370000000  0.4491390000000  0.7334960000000 1.0
C      1  0.5508610000000  0.2665040000000  0.3787370000000 1.0
C      1  0.4491390000000  0.2665040000000  0.6212630000000 1.0
C      1  0.5508610000000  0.7334960000000  0.6212630000000 1.0
C      1  0.2665040000000  0.6212630000000  0.4491390000000 1.0
C      1  0.7334960000000  0.6212630000000  0.5508610000000 1.0
C      1  0.2665040000000  0.3787370000000  0.5508610000000 1.0
C      1  0.6212630000000  0.5508610000000  0.7334960000000 1.0
C      1  0.3787370000000  0.5508610000000  0.2665040000000 1.0
C      1  0.6212630000000  0.4491390000000  0.2665040000000 1.0
C      1  0.7334960000000  0.4491390000000  0.3787370000000 1.0
C      1  0.3787370000000  0.7334960000000  0.4491390000000 1.0
C      1  0.4491390000000  0.3787370000000  0.7334960000000 1.0
C      1  0.2665040000000  0.5508610000000  0.3787370000000 1.0
C      1  0.2665040000000  0.4491390000000  0.6212630000000 1.0
C      1  0.7334960000000  0.5508610000000  0.6212630000000 1.0
C      1  0.6212630000000  0.2665040000000  0.4491390000000 1.0
C      1  0.6212630000000  0.7334960000000  0.5508610000000 1.0
C      1  0.3787370000000  0.2665040000000  0.5508610000000 1.0
C      1  0.5508610000000  0.6212630000000  0.7334960000000 1.0
C      1  0.5508610000000  0.3787370000000  0.2665040000000 1.0
C      1  0.4491390000000  0.6212630000000  0.2665040000000 1.0
C      1  0.7145320000000  0.2854680000000  0.4373160000000 1.0
C      1  0.2854680000000  0.7145320000000  0.4373160000000 1.0
C      1  0.2854680000000  0.4373160000000  0.7145320000000 1.0
C      1  0.4373160000000  0.7145320000000  0.2854680000000 1.0
C      1  0.7145320000000  0.4373160000000  0.2854680000000 1.0
C      1  0.5626840000000  0.2854680000000  0.2854680000000 1.0
C      1  0.4373160000000  0.2854680000000  0.7145320000000 1.0
C      1  0.2854680000000  0.5626840000000  0.2854680000000 1.0
C      1  0.7145320000000  0.7145320000000  0.5626840000000 1.0
C      1  0.2854680000000  0.2854680000000  0.5626840000000 1.0
C      1  0.5626840000000  0.7145320000000  0.7145320000000 1.0
C      1  0.7145320000000  0.5626840000000  0.7145320000000 1.0
END
