TITL C-3036482-790-183 -1.08336190863459e-05 3375 -342.292093912819 0 0 60 (C1) n - 1
REM
REM in /home/bkarasulu/work/CARBON/AIRSS/Generating-Clusters/REBO/Higher-Symm/Only-C60
REM
REM
REM
REM
REM
REM ./C.cell (a2850807a9bf4ad07a5b6933b78d9264)
REM AIRSS Version 0.9.1 bugfix July 2018 build 013d7b7c2542+ Fri, 06 Jul 2018 19:26:36 +0100
REM compiler GCC version 9.2.1 20190827 (Red Hat 9.2.1-1)
REM options -cpp -mtune=generic -march=x86-64 -g -O0 -fpre-include=/usr/include/finclude/math-vector-fortran.h
REM seed -1709540550 8171721 199715472 -1505966026 -539520707 2007941311 457913367 -20753318 1015382826 100034402 -1152214754 -1478330769 1906131397 1138846613 -1664737164 -1067615895 -2103206126 -75997979 -1471273632 -826415791 -579201247 2031547617 346747177 -1333463877 -1800333528 -310568119 1246143348 -477001358 -1088668721 -1864599468 1157985880 -946671390 -709126644
REM
CELL 1.54180   15.00000   15.00000   15.00000   90.00000   90.00000   90.00000
LATT -1
SFAC C  
C      1  0.4335290000000  0.3104630000000  0.5027420000000 1.0
C      1  0.6426080000000  0.3359390000000  0.4764120000000 1.0
C      1  0.6860350000000  0.5427740000000  0.4980680000000 1.0
C      1  0.5372900000000  0.7019870000000  0.5129380000000 1.0
C      1  0.3259770000000  0.6811390000000  0.4698220000000 1.0
C      1  0.2955890000000  0.4672440000000  0.4879040000000 1.0
C      1  0.4255360000000  0.7090740000000  0.4909590000000 1.0
C      1  0.6290330000000  0.6409430000000  0.4846630000000 1.0
C      1  0.6935490000000  0.4356330000000  0.4847050000000 1.0
C      1  0.5455100000000  0.2913210000000  0.5122210000000 1.0
C      1  0.3374200000000  0.3608360000000  0.4946650000000 1.0
C      1  0.2895170000000  0.5735740000000  0.4802840000000 1.0
C      1  0.3374200000000  0.6547570000000  0.5743500000000 1.0
C      1  0.3013890000000  0.4404920000000  0.5948150000000 1.0
C      1  0.4555770000000  0.2939440000000  0.6101930000000 1.0
C      1  0.6486610000000  0.3535240000000  0.5795180000000 1.0
C      1  0.6930560000000  0.5590810000000  0.6107840000000 1.0
C      1  0.5448930000000  0.7062140000000  0.6246040000000 1.0
C      1  0.3532700000000  0.3415890000000  0.6037770000000 1.0
C      1  0.2936780000000  0.5533010000000  0.5889020000000 1.0
C      1  0.4367590000000  0.7028550000000  0.6000760000000 1.0
C      1  0.6320850000000  0.6483680000000  0.5896140000000 1.0
C      1  0.7018660000000  0.4502900000000  0.5924460000000 1.0
C      1  0.5661700000000  0.2944960000000  0.6229400000000 1.0
C      1  0.4649900000000  0.2733480000000  0.4089730000000 1.0
C      1  0.6668670000000  0.2953870000000  0.3772130000000 1.0
C      1  0.7096060000000  0.5829230000000  0.3985810000000 1.0
C      1  0.5804700000000  0.7434180000000  0.4160490000000 1.0
C      1  0.3007450000000  0.7024720000000  0.3663690000000 1.0
C      1  0.2792320000000  0.4244540000000  0.3937660000000 1.0
C      1  0.4733420000000  0.7350110000000  0.4017650000000 1.0
C      1  0.6718380000000  0.6875690000000  0.3926490000000 1.0
C      1  0.7133630000000  0.3984980000000  0.3852070000000 1.0
C      1  0.5706730000000  0.2474940000000  0.4097630000000 1.0
C      1  0.2994980000000  0.3226730000000  0.3963310000000 1.0
C      1  0.2762010000000  0.6006690000000  0.3774580000000 1.0
C      1  0.4477870000000  0.3214290000000  0.3208370000000 1.0
C      1  0.6336580000000  0.3584640000000  0.2880300000000 1.0
C      1  0.6842830000000  0.5408120000000  0.3078430000000 1.0
C      1  0.5621510000000  0.6866440000000  0.3179890000000 1.0
C      1  0.3698130000000  0.6538160000000  0.3004420000000 1.0
C      1  0.3303160000000  0.4600990000000  0.3117090000000 1.0
C      1  0.4584560000000  0.6840290000000  0.3140760000000 1.0
C      1  0.6446100000000  0.6341180000000  0.2956710000000 1.0
C      1  0.6818030000000  0.4486350000000  0.3025880000000 1.0
C      1  0.5503100000000  0.3091860000000  0.3153500000000 1.0
C      1  0.3610510000000  0.3571120000000  0.3148020000000 1.0
C      1  0.3323330000000  0.5527720000000  0.3058380000000 1.0
C      1  0.3324440000000  0.5274200000000  0.6902750000000 1.0
C      1  0.3880520000000  0.3458910000000  0.7118930000000 1.0
C      1  0.5763700000000  0.3210980000000  0.7328870000000 1.0
C      1  0.6939900000000  0.4634660000000  0.7031860000000 1.0
C      1  0.6271340000000  0.6333760000000  0.6991770000000 1.0
C      1  0.4483810000000  0.6692080000000  0.7076110000000 1.0
C      1  0.3386680000000  0.4302020000000  0.7015360000000 1.0
C      1  0.3680970000000  0.6191930000000  0.6769860000000 1.0
C      1  0.5440530000000  0.6758320000000  0.7345210000000 1.0
C      1  0.6874930000000  0.5592430000000  0.7253550000000 1.0
C      1  0.6471970000000  0.3767230000000  0.6886270000000 1.0
C      1  0.4783050000000  0.3074760000000  0.7212450000000 1.0
END
