TITL C-3036481-494-1089 0.00638218274763017 3375 -341.018282120414 0 0 60 (Ci) n - 1
REM
REM in /home/bkarasulu/work/CARBON/AIRSS/Generating-Clusters/REBO/Higher-Symm/Only-C60
REM
REM
REM
REM
REM
REM ./C.cell (a2850807a9bf4ad07a5b6933b78d9264)
REM AIRSS Version 0.9.1 bugfix July 2018 build 013d7b7c2542+ Fri, 06 Jul 2018 19:26:36 +0100
REM compiler GCC version 9.2.1 20190827 (Red Hat 9.2.1-1)
REM options -cpp -mtune=generic -march=x86-64 -g -O0 -fpre-include=/usr/include/finclude/math-vector-fortran.h
REM seed 1013916087 1707447185 -232513075 521645461 -2002428115 -1115338809 264089131 1019946532 1558517491 1333475525 -1730935773 1409444166 -1403617705 -1928747713 1262181597 -58204588 1658176566 -88201837 1116805264 -1808715149 -2079908285 1041910902 978921873 -626501810 -1663570862 337208566 -41761552 -536075329 1877742016 -1425353495 -140953920 431483781 1831042256
REM
CELL 1.54180   15.00000   15.00000   15.00000   90.00000   90.00000   90.00000
LATT -1
SFAC C  
C      1  0.5133890000000  0.5808870000000  0.2807170000000 1.0
C      1  0.4865940000000  0.4191240000000  0.7192700000000 1.0
C      1  0.6276740000000  0.3684970000000  0.5585400000000 1.0
C      1  0.3723660000000  0.6314480000000  0.4414360000000 1.0
C      1  0.3791320000000  0.2344640000000  0.4151300000000 1.0
C      1  0.6208490000000  0.7655360000000  0.5848770000000 1.0
C      1  0.4436540000000  0.5974480000000  0.4983330000000 1.0
C      1  0.5563540000000  0.4025120000000  0.5016770000000 1.0
C      1  0.5137810000000  0.7263780000000  0.5031620000000 1.0
C      1  0.4862080000000  0.2735920000000  0.4967980000000 1.0
C      1  0.4084230000000  0.6971220000000  0.3701750000000 1.0
C      1  0.5915810000000  0.3028280000000  0.6298190000000 1.0
C      1  0.5415360000000  0.3773540000000  0.3323410000000 1.0
C      1  0.4584900000000  0.6226740000000  0.6677000000000 1.0
C      1  0.6287040000000  0.7324110000000  0.6617000000000 1.0
C      1  0.3713140000000  0.2675990000000  0.3383090000000 1.0
C      1  0.5591250000000  0.6767680000000  0.4155380000000 1.0
C      1  0.4408800000000  0.3232100000000  0.5844530000000 1.0
C      1  0.6348720000000  0.4374090000000  0.3388220000000 1.0
C      1  0.3651720000000  0.5626000000000  0.6611830000000 1.0
C      1  0.6123320000000  0.2848330000000  0.4553120000000 1.0
C      1  0.3876730000000  0.7152020000000  0.5447550000000 1.0
C      1  0.7146670000000  0.5591410000000  0.4523000000000 1.0
C      1  0.2853050000000  0.4408710000000  0.5476890000000 1.0
C      1  0.6789830000000  0.3555190000000  0.4036810000000 1.0
C      1  0.3210430000000  0.6444970000000  0.5962810000000 1.0
C      1  0.3114280000000  0.3711490000000  0.4852910000000 1.0
C      1  0.6885680000000  0.6288750000000  0.5147010000000 1.0
C      1  0.3609830000000  0.3684240000000  0.3209440000000 1.0
C      1  0.6390360000000  0.6315760000000  0.6790610000000 1.0
C      1  0.4530000000000  0.5232660000000  0.7237290000000 1.0
C      1  0.5470010000000  0.4767670000000  0.2763030000000 1.0
C      1  0.7728680000000  0.4997090000000  0.5036070000000 1.0
C      1  0.2270850000000  0.5002810000000  0.4963660000000 1.0
C      1  0.5254950000000  0.3371620000000  0.4176110000000 1.0
C      1  0.4745220000000  0.6628350000000  0.5824100000000 1.0
C      1  0.2942590000000  0.4027180000000  0.3952510000000 1.0
C      1  0.7057560000000  0.5972980000000  0.6047410000000 1.0
C      1  0.5045690000000  0.3300140000000  0.6695960000000 1.0
C      1  0.4954520000000  0.6699880000000  0.3303960000000 1.0
C      1  0.3745690000000  0.2953100000000  0.5027680000000 1.0
C      1  0.6254010000000  0.7046910000000  0.4972390000000 1.0
C      1  0.5540170000000  0.4496210000000  0.6394810000000 1.0
C      1  0.4459530000000  0.5504030000000  0.3605110000000 1.0
C      1  0.7064260000000  0.3657040000000  0.5026380000000 1.0
C      1  0.2936180000000  0.6343760000000  0.4973240000000 1.0
C      1  0.5624340000000  0.4920980000000  0.4790790000000 1.0
C      1  0.4375510000000  0.5078660000000  0.5209190000000 1.0
C      1  0.3951780000000  0.4755760000000  0.3386580000000 1.0
C      1  0.6048050000000  0.5244340000000  0.6613540000000 1.0
C      1  0.2355270000000  0.4788340000000  0.4042480000000 1.0
C      1  0.7644530000000  0.5211560000000  0.5957230000000 1.0
C      1  0.5447270000000  0.5914040000000  0.7240280000000 1.0
C      1  0.4552980000000  0.4086040000000  0.2760280000000 1.0
C      1  0.5823640000000  0.2442710000000  0.5438970000000 1.0
C      1  0.4175860000000  0.7556880000000  0.4561080000000 1.0
C      1  0.3629230000000  0.4811260000000  0.5965130000000 1.0
C      1  0.6370580000000  0.5188770000000  0.4034940000000 1.0
C      1  0.4594910000000  0.4262050000000  0.5895580000000 1.0
C      1  0.5404970000000  0.5737710000000  0.4104210000000 1.0
END
