TITL C-3036486-2224-532 2.96701882745985e-06 3375 -357.558436847538 0 0 60 (C2) n - 1
REM
REM in /home/bkarasulu/work/CARBON/AIRSS/Generating-Clusters/REBO/Higher-Symm/Only-C60
REM
REM
REM
REM
REM
REM ./C.cell (a2850807a9bf4ad07a5b6933b78d9264)
REM AIRSS Version 0.9.1 bugfix July 2018 build 013d7b7c2542+ Fri, 06 Jul 2018 19:26:36 +0100
REM compiler GCC version 9.2.1 20190827 (Red Hat 9.2.1-1)
REM options -cpp -mtune=generic -march=x86-64 -g -O0 -fpre-include=/usr/include/finclude/math-vector-fortran.h
REM seed -864393820 -1719494940 894878258 213066590 -942984025 328612445 1024155062 1311213533 -2059135364 1688664596 -1234729999 -775177576 626944456 1795314283 953087405 831134954 1062304874 1619682108 -56394289 -1131401302 115663107 -1017937326 1465318104 -1432597233 1867197762 -794319223 1770578926 1254108599 -473489511 358147627 1940051095 222810826 1809678089
REM
CELL 1.54180   15.00000   15.00000   15.00000   90.00000   90.00000   90.00000
LATT -1
SFAC C  
C      1  0.3139730000000  0.4094860000000  0.4389710000000 1.0
C      1  0.4807730000000  0.2797800000000  0.4230070000000 1.0
C      1  0.6654320000000  0.3817550000000  0.4422820000000 1.0
C      1  0.6860250000000  0.5905180000000  0.4389710000000 1.0
C      1  0.5192250000000  0.7202250000000  0.4230210000000 1.0
C      1  0.3345670000000  0.6182490000000  0.4422950000000 1.0
C      1  0.4382010000000  0.4089770000000  0.3305040000000 1.0
C      1  0.5473270000000  0.4017930000000  0.3295760000000 1.0
C      1  0.6099130000000  0.4921800000000  0.3310920000000 1.0
C      1  0.5617940000000  0.5910340000000  0.3305080000000 1.0
C      1  0.4526690000000  0.5982180000000  0.3295830000000 1.0
C      1  0.3900820000000  0.5078320000000  0.3310950000000 1.0
C      1  0.5297130000000  0.5967750000000  0.2214900000000 1.0
C      1  0.4309720000000  0.5724620000000  0.2222410000000 1.0
C      1  0.4004980000000  0.4763990000000  0.2224290000000 1.0
C      1  0.4702790000000  0.4032430000000  0.2214840000000 1.0
C      1  0.5690200000000  0.4275560000000  0.2222350000000 1.0
C      1  0.5994950000000  0.5236190000000  0.2224280000000 1.0
C      1  0.7008420000000  0.6156860000000  0.5394510000000 1.0
C      1  0.5068550000000  0.7486730000000  0.5237290000000 1.0
C      1  0.3169210000000  0.6219430000000  0.5429120000000 1.0
C      1  0.2991590000000  0.3843110000000  0.5394490000000 1.0
C      1  0.4931450000000  0.2513250000000  0.5237130000000 1.0
C      1  0.6830810000000  0.3780540000000  0.5428990000000 1.0
C      1  0.5774440000000  0.3345260000000  0.3989760000000 1.0
C      1  0.6787350000000  0.4873790000000  0.4066080000000 1.0
C      1  0.6004250000000  0.6523740000000  0.4034440000000 1.0
C      1  0.4225530000000  0.6654810000000  0.3989890000000 1.0
C      1  0.3212630000000  0.5126270000000  0.4066140000000 1.0
C      1  0.3995720000000  0.3476320000000  0.4034360000000 1.0
C      1  0.3868660000000  0.3870390000000  0.6549270000000 1.0
C      1  0.5499620000000  0.3461890000000  0.6589940000000 1.0
C      1  0.6641430000000  0.4564170000000  0.6770220000000 1.0
C      1  0.6131380000000  0.6129510000000  0.6549310000000 1.0
C      1  0.4500430000000  0.6538010000000  0.6590050000000 1.0
C      1  0.3358620000000  0.5435720000000  0.6770300000000 1.0
C      1  0.4590750000000  0.5853280000000  0.5450700000000 1.0
C      1  0.4067040000000  0.5096350000000  0.5455430000000 1.0
C      1  0.4490110000000  0.4291440000000  0.5447570000000 1.0
C      1  0.5409260000000  0.4146690000000  0.5450640000000 1.0
C      1  0.5932970000000  0.4903620000000  0.5455400000000 1.0
C      1  0.5509900000000  0.5708530000000  0.5447600000000 1.0
C      1  0.4744540000000  0.5918670000000  0.7311310000000 1.0
C      1  0.4067590000000  0.5224030000000  0.7384670000000 1.0
C      1  0.4331900000000  0.4308450000000  0.7285160000000 1.0
C      1  0.5255520000000  0.4081180000000  0.7311250000000 1.0
C      1  0.5932480000000  0.4775820000000  0.7384630000000 1.0
C      1  0.5668160000000  0.5691400000000  0.7285190000000 1.0
C      1  0.4589450000000  0.3129330000000  0.6081760000000 1.0
C      1  0.6402530000000  0.3739380000000  0.6277800000000 1.0
C      1  0.6930940000000  0.5420200000000  0.6168270000000 1.0
C      1  0.5410590000000  0.6870600000000  0.6081870000000 1.0
C      1  0.3597510000000  0.6260540000000  0.6277920000000 1.0
C      1  0.3069090000000  0.4579720000000  0.6168290000000 1.0
C      1  0.6041520000000  0.6588100000000  0.5171490000000 1.0
C      1  0.4359730000000  0.6704980000000  0.5103180000000 1.0
C      1  0.3017350000000  0.5152470000000  0.5186030000000 1.0
C      1  0.3958480000000  0.3411880000000  0.5171420000000 1.0
C      1  0.5640270000000  0.3295010000000  0.5103050000000 1.0
C      1  0.6982650000000  0.4847520000000  0.5185970000000 1.0
END
