TITL C-3036483-1610-187 4.63321544015338e-06 3375 -357.387259513769 0 0 60 (C1) n - 1
REM
REM in /home/bkarasulu/work/CARBON/AIRSS/Generating-Clusters/REBO/Higher-Symm/Only-C60
REM
REM
REM
REM
REM
REM ./C.cell (a2850807a9bf4ad07a5b6933b78d9264)
REM AIRSS Version 0.9.1 bugfix July 2018 build 013d7b7c2542+ Fri, 06 Jul 2018 19:26:36 +0100
REM compiler GCC version 9.2.1 20190827 (Red Hat 9.2.1-1)
REM options -cpp -mtune=generic -march=x86-64 -g -O0 -fpre-include=/usr/include/finclude/math-vector-fortran.h
REM seed 1023238866 374419766 1809452613 -2008034234 -2005501081 -1825717998 -835255423 -2045177802 514924227 1605622404 -1926685698 -1419580264 1917007768 582977181 -201830740 1967425239 -1522192572 -942289989 -1849825808 -554367542 -912312649 -1599903005 470451909 125331958 818097366 551763172 987095568 -1765431002 -1592857545 1240669147 1894953556 -1336185808 330845207
REM
CELL 1.54180   15.00000   15.00000   15.00000   90.00000   90.00000   90.00000
LATT -1
SFAC C  
C      1  0.4243400000000  0.4805300000000  0.7349540000000 1.0
C      1  0.4228710000000  0.5130680000000  0.2613710000000 1.0
C      1  0.5365540000000  0.4967230000000  0.6021990000000 1.0
C      1  0.5179310000000  0.5208840000000  0.3795580000000 1.0
C      1  0.4096640000000  0.5755650000000  0.7096670000000 1.0
C      1  0.4153330000000  0.4209910000000  0.2970650000000 1.0
C      1  0.3512350000000  0.4559340000000  0.5317140000000 1.0
C      1  0.3409760000000  0.5508800000000  0.4737900000000 1.0
C      1  0.4532800000000  0.3033910000000  0.6518810000000 1.0
C      1  0.4552960000000  0.6882120000000  0.3560700000000 1.0
C      1  0.4369640000000  0.4977290000000  0.4396780000000 1.0
C      1  0.4456760000000  0.5192550000000  0.5486540000000 1.0
C      1  0.3509240000000  0.3805100000000  0.4636310000000 1.0
C      1  0.3424510000000  0.6230810000000  0.5451260000000 1.0
C      1  0.2930740000000  0.2834400000000  0.4739840000000 1.0
C      1  0.2938800000000  0.7253530000000  0.5391250000000 1.0
C      1  0.6622840000000  0.3427550000000  0.4331780000000 1.0
C      1  0.6628010000000  0.6482080000000  0.5705120000000 1.0
C      1  0.3718360000000  0.3344380000000  0.6881990000000 1.0
C      1  0.3756750000000  0.6591350000000  0.3150980000000 1.0
C      1  0.7206270000000  0.4896730000000  0.5630600000000 1.0
C      1  0.7188250000000  0.5116420000000  0.4535170000000 1.0
C      1  0.4634910000000  0.7243490000000  0.4457110000000 1.0
C      1  0.4634960000000  0.2683400000000  0.5618470000000 1.0
C      1  0.3210060000000  0.5157920000000  0.3765860000000 1.0
C      1  0.3176790000000  0.4808550000000  0.6265340000000 1.0
C      1  0.6152590000000  0.4913800000000  0.5341800000000 1.0
C      1  0.6095170000000  0.5060960000000  0.4234290000000 1.0
C      1  0.3531060000000  0.4265010000000  0.6979620000000 1.0
C      1  0.3553320000000  0.5677600000000  0.3034880000000 1.0
C      1  0.5019460000000  0.6121280000000  0.5454150000000 1.0
C      1  0.4803330000000  0.4015320000000  0.4324430000000 1.0
C      1  0.3509620000000  0.4230940000000  0.3704440000000 1.0
C      1  0.3429480000000  0.5758330000000  0.6373740000000 1.0
C      1  0.6047490000000  0.6631430000000  0.4022980000000 1.0
C      1  0.6025910000000  0.3334690000000  0.6058870000000 1.0
C      1  0.5227290000000  0.5516450000000  0.2737520000000 1.0
C      1  0.5191730000000  0.4489890000000  0.7020460000000 1.0
C      1  0.4932420000000  0.6229730000000  0.7007110000000 1.0
C      1  0.5015980000000  0.3778360000000  0.3036230000000 1.0
C      1  0.5669090000000  0.5486690000000  0.6988020000000 1.0
C      1  0.5719030000000  0.4519950000000  0.2923930000000 1.0
C      1  0.3934120000000  0.7172150000000  0.5064780000000 1.0
C      1  0.3942400000000  0.2825400000000  0.5016540000000 1.0
C      1  0.5340750000000  0.3521360000000  0.6739530000000 1.0
C      1  0.5382920000000  0.6431910000000  0.3322220000000 1.0
C      1  0.6850020000000  0.6149790000000  0.4215070000000 1.0
C      1  0.6777840000000  0.3906880000000  0.5943970000000 1.0
C      1  0.6677970000000  0.5650840000000  0.7034160000000 1.0
C      1  0.6682690000000  0.4411200000000  0.3066860000000 1.0
C      1  0.7070110000000  0.4226410000000  0.3888260000000 1.0
C      1  0.7095250000000  0.5791130000000  0.6221530000000 1.0
C      1  0.5575900000000  0.7195030000000  0.4706810000000 1.0
C      1  0.5579930000000  0.2751550000000  0.5377570000000 1.0
C      1  0.5107000000000  0.3092380000000  0.3826230000000 1.0
C      1  0.5012700000000  0.6787630000000  0.6228260000000 1.0
C      1  0.5838870000000  0.2763080000000  0.4441400000000 1.0
C      1  0.5815500000000  0.7170100000000  0.5661330000000 1.0
C      1  0.5909580000000  0.5928630000000  0.5210710000000 1.0
C      1  0.5801820000000  0.4086790000000  0.4365200000000 1.0
END
