TITL C-3036483-1610-1026 -6.93790371394784e-06 3375 -334.341927115 0 0 60 (C2) n - 1
REM
REM in /home/bkarasulu/work/CARBON/AIRSS/Generating-Clusters/REBO/Higher-Symm/Only-C60
REM
REM
REM
REM
REM
REM ./C.cell (a2850807a9bf4ad07a5b6933b78d9264)
REM AIRSS Version 0.9.1 bugfix July 2018 build 013d7b7c2542+ Fri, 06 Jul 2018 19:26:36 +0100
REM compiler GCC version 9.2.1 20190827 (Red Hat 9.2.1-1)
REM options -cpp -mtune=generic -march=x86-64 -g -O0 -fpre-include=/usr/include/finclude/math-vector-fortran.h
REM seed 1530306181 -626433685 997331837 -1874710221 -735584917 -991701362 -1802280647 -1686243648 -1221982816 607470210 -1953417608 -2118059208 1764213662 -1281311358 -1335001634 -1798437448 981881542 350094625 -399272631 -950459003 -2034489637 770811483 741825442 -241690774 65712957 1259090429 -786118342 -2035713289 907009099 344479265 -1243146034 -704580671 1315128140
REM
CELL 1.54180   15.00000   15.00000   15.00000   90.00000   90.00000   90.00000
LATT -1
SFAC C  
C      1  0.4806030000000  0.5545950000000  0.4588210000000 1.0
C      1  0.5193960000000  0.5545950000000  0.5411790000000 1.0
C      1  0.6833220000000  0.5537300000000  0.4782850000000 1.0
C      1  0.3166780000000  0.5537300000000  0.5217150000000 1.0
C      1  0.6441050000000  0.3093820000000  0.4118620000000 1.0
C      1  0.3558950000000  0.3093820000000  0.5881380000000 1.0
C      1  0.6233420000000  0.3657380000000  0.3187330000000 1.0
C      1  0.3766580000000  0.3657380000000  0.6812670000000 1.0
C      1  0.5520820000000  0.6762060000000  0.6512290000000 1.0
C      1  0.4479180000000  0.6762060000000  0.3487710000000 1.0
C      1  0.4810250000000  0.5856760000000  0.2915310000000 1.0
C      1  0.5189750000000  0.5856760000000  0.7084690000000 1.0
C      1  0.6165670000000  0.6654000000000  0.5711540000000 1.0
C      1  0.3834330000000  0.6654000000000  0.4288460000000 1.0
C      1  0.4413480000000  0.2817850000000  0.5305170000000 1.0
C      1  0.5586530000000  0.2817840000000  0.4694830000000 1.0
C      1  0.2940070000000  0.4211020000000  0.4230390000000 1.0
C      1  0.7059920000000  0.4211020000000  0.5769610000000 1.0
C      1  0.4479600000000  0.7048630000000  0.5149780000000 1.0
C      1  0.5520400000000  0.7048630000000  0.4850220000000 1.0
C      1  0.4020550000000  0.4744800000000  0.6574540000000 1.0
C      1  0.5979450000000  0.4744800000000  0.3425460000000 1.0
C      1  0.4417800000000  0.4792760000000  0.2931280000000 1.0
C      1  0.5582210000000  0.4792760000000  0.7068720000000 1.0
C      1  0.5733980000000  0.6470990000000  0.3194350000000 1.0
C      1  0.4266020000000  0.6471000000000  0.6805650000000 1.0
C      1  0.3570580000000  0.4869790000000  0.3554540000000 1.0
C      1  0.6429420000000  0.4869790000000  0.6445460000000 1.0
C      1  0.4405700000000  0.3937940000000  0.5296500000000 1.0
C      1  0.5594300000000  0.3937940000000  0.4703500000000 1.0
C      1  0.5382440000000  0.4266430000000  0.5706870000000 1.0
C      1  0.4617560000000  0.4266430000000  0.4293130000000 1.0
C      1  0.7010060000000  0.4065990000000  0.3911920000000 1.0
C      1  0.2989940000000  0.4065990000000  0.6088080000000 1.0
C      1  0.3492310000000  0.6129610000000  0.6354210000000 1.0
C      1  0.6507690000000  0.6129610000000  0.3645790000000 1.0
C      1  0.6510400000000  0.6549040000000  0.4658290000000 1.0
C      1  0.3489600000000  0.6549030000000  0.5341710000000 1.0
C      1  0.7414660000000  0.5284780000000  0.5654510000000 1.0
C      1  0.2585340000000  0.5284790000000  0.4345490000000 1.0
C      1  0.5293180000000  0.4075340000000  0.2821670000000 1.0
C      1  0.4706820000000  0.4075340000000  0.7178330000000 1.0
C      1  0.8118110000000  0.4426990000000  0.5893650000000 1.0
C      1  0.1881890000000  0.4426990000000  0.4106350000000 1.0
C      1  0.4579930000000  0.2941280000000  0.4186860000000 1.0
C      1  0.5420070000000  0.2941280000000  0.5813150000000 1.0
C      1  0.6921520000000  0.5108960000000  0.3820020000000 1.0
C      1  0.3078480000000  0.5108960000000  0.6179980000000 1.0
C      1  0.4658120000000  0.7204820000000  0.6200270000000 1.0
C      1  0.5341880000000  0.7204820000000  0.3799730000000 1.0
C      1  0.3251740000000  0.5936020000000  0.3785170000000 1.0
C      1  0.6748260000000  0.5936030000000  0.6214830000000 1.0
C      1  0.3303850000000  0.3813280000000  0.5034560000000 1.0
C      1  0.6696150000000  0.3813280000000  0.4965440000000 1.0
C      1  0.3879030000000  0.5084060000000  0.4592240000000 1.0
C      1  0.6120970000000  0.5084060000000  0.5407760000000 1.0
C      1  0.4436540000000  0.3735720000000  0.3408040000000 1.0
C      1  0.5563460000000  0.3735730000000  0.6591950000000 1.0
C      1  0.5262430000000  0.5376620000000  0.3775010000000 1.0
C      1  0.4737570000000  0.5376620000000  0.6224990000000 1.0
END
