TITL C-3036482-790-655 -6.58161222796324e-06 3375 -353.650817159318 0 0 60 (C3) n - 1
REM
REM in /home/bkarasulu/work/CARBON/AIRSS/Generating-Clusters/REBO/Higher-Symm/Only-C60
REM
REM
REM
REM
REM
REM ./C.cell (a2850807a9bf4ad07a5b6933b78d9264)
REM AIRSS Version 0.9.1 bugfix July 2018 build 013d7b7c2542+ Fri, 06 Jul 2018 19:26:36 +0100
REM compiler GCC version 9.2.1 20190827 (Red Hat 9.2.1-1)
REM options -cpp -mtune=generic -march=x86-64 -g -O0 -fpre-include=/usr/include/finclude/math-vector-fortran.h
REM seed -394138613 74116927 1993542459 1955751604 1575943696 -847066631 -1351819039 -1012700 -874060364 -868681024 1810996861 -722329644 446559928 1400129190 -934252882 1636172415 280702719 421098267 1405337017 2135924535 -1191359884 1945242254 1210137803 -1491768618 -245578703 570047312 -1256942422 1706019034 255762733 -207651530 1640663699 584622764 681565108
REM
CELL 1.54180   15.00000   15.00000   15.00000   90.00000   90.00000   90.00000
LATT -1
SFAC C  
C      1  0.3741540000000  0.6025610000000  0.3141660000000 1.0
C      1  0.3741590000000  0.6096580000000  0.6817390000000 1.0
C      1  0.3741550000000  0.2877820000000  0.5041000000000 1.0
C      1  0.6390960000000  0.3062980000000  0.6059680000000 1.0
C      1  0.6390920000000  0.5050770000000  0.2792630000000 1.0
C      1  0.6390970000000  0.6886230000000  0.6147630000000 1.0
C      1  0.4878800000000  0.3925040000000  0.7311820000000 1.0
C      1  0.4878740000000  0.3535390000000  0.2913150000000 1.0
C      1  0.4878780000000  0.7539580000000  0.4775040000000 1.0
C      1  0.6947200000000  0.6890450000000  0.4247760000000 1.0
C      1  0.6947230000000  0.4706200000000  0.7013260000000 1.0
C      1  0.6947180000000  0.3403330000000  0.3738900000000 1.0
C      1  0.4691080000000  0.3503990000000  0.6282610000000 1.0
C      1  0.4691040000000  0.4637240000000  0.3063120000000 1.0
C      1  0.4691080000000  0.6858780000000  0.5654280000000 1.0
C      1  0.4763740000000  0.5636050000000  0.4315740000000 1.0
C      1  0.4763760000000  0.5274570000000  0.5892980000000 1.0
C      1  0.4763740000000  0.4089380000000  0.4791300000000 1.0
C      1  0.5814940000000  0.6354330000000  0.6834470000000 1.0
C      1  0.5814900000000  0.2734130000000  0.5255630000000 1.0
C      1  0.5814880000000  0.5911540000000  0.2909870000000 1.0
C      1  0.2853000000000  0.4597540000000  0.3482280000000 1.0
C      1  0.2853030000000  0.6515630000000  0.5410350000000 1.0
C      1  0.2853040000000  0.3886840000000  0.6107440000000 1.0
C      1  0.5015090000000  0.5552200000000  0.6924350000000 1.0
C      1  0.5015050000000  0.3057370000000  0.4516050000000 1.0
C      1  0.5015050000000  0.6390430000000  0.3559610000000 1.0
C      1  0.4382530000000  0.4329110000000  0.5716190000000 1.0
C      1  0.4382510000000  0.4715220000000  0.4060910000000 1.0
C      1  0.4382530000000  0.5955680000000  0.5222930000000 1.0
C      1  0.3748820000000  0.3200790000000  0.4131520000000 1.0
C      1  0.3748820000000  0.6651740000000  0.3876090000000 1.0
C      1  0.3748860000000  0.5147480000000  0.6992430000000 1.0
C      1  0.6972200000000  0.4332490000000  0.3421420000000 1.0
C      1  0.6972230000000  0.6700820000000  0.5211170000000 1.0
C      1  0.6972240000000  0.3966680000000  0.6367330000000 1.0
C      1  0.4710630000000  0.6590440000000  0.6650810000000 1.0
C      1  0.4710600000000  0.2775150000000  0.5551960000000 1.0
C      1  0.4710580000000  0.5634420000000  0.2797240000000 1.0
C      1  0.5841190000000  0.4053870000000  0.4818740000000 1.0
C      1  0.5841190000000  0.5630030000000  0.4271250000000 1.0
C      1  0.5841210000000  0.5316090000000  0.5909980000000 1.0
C      1  0.5699810000000  0.3704060000000  0.6608310000000 1.0
C      1  0.5699770000000  0.4255120000000  0.3073520000000 1.0
C      1  0.5699810000000  0.7040810000000  0.5318150000000 1.0
C      1  0.4569990000000  0.2937540000000  0.3580900000000 1.0
C      1  0.4570010000000  0.7260220000000  0.3923410000000 1.0
C      1  0.4570050000000  0.4802250000000  0.7495710000000 1.0
C      1  0.3508020000000  0.4543960000000  0.6265410000000 1.0
C      1  0.3507980000000  0.4132170000000  0.3972380000000 1.0
C      1  0.3508000000000  0.6323880000000  0.4762270000000 1.0
C      1  0.3021390000000  0.3144030000000  0.5594530000000 1.0
C      1  0.3021370000000  0.5413140000000  0.3095440000000 1.0
C      1  0.3021410000000  0.6442850000000  0.6310100000000 1.0
C      1  0.6339410000000  0.6439210000000  0.3739090000000 1.0
C      1  0.6339450000000  0.5372360000000  0.6876830000000 1.0
C      1  0.6339410000000  0.3188420000000  0.4384030000000 1.0
C      1  0.6109700000000  0.4321820000000  0.5742050000000 1.0
C      1  0.6109680000000  0.4696440000000  0.4041630000000 1.0
C      1  0.6109700000000  0.5981730000000  0.5216270000000 1.0
END
