TITL C-3036484-3770-710 -2.47362909000087e-06 3375 -349.221693580204 0 0 60 (Th) n - 1
REM
REM in /home/bkarasulu/work/CARBON/AIRSS/Generating-Clusters/REBO/Higher-Symm/Only-C60
REM
REM
REM
REM
REM
REM ./C.cell (a2850807a9bf4ad07a5b6933b78d9264)
REM AIRSS Version 0.9.1 bugfix July 2018 build 013d7b7c2542+ Fri, 06 Jul 2018 19:26:36 +0100
REM compiler GCC version 9.2.1 20190827 (Red Hat 9.2.1-1)
REM options -cpp -mtune=generic -march=x86-64 -g -O0 -fpre-include=/usr/include/finclude/math-vector-fortran.h
REM seed 720026885 1638811801 -904242091 -551195372 -1446191961 207997188 -818591666 1081515657 764039228 -1656712438 -262371865 916543478 -642264126 -229555828 1915010609 1420889088 1734216575 -1141912896 1331808166 -34970015 -1486500942 -1179555942 -506691394 -1609060209 2014161652 -1788102223 1195764413 -1455900062 1253594927 658902706 -168588364 -1554525810 768861661
REM
CELL 1.54180   15.00000   15.00000   15.00000   90.00000   90.00000   90.00000
LATT -1
SFAC C  
C      1  0.7106760000000  0.4462000000000  0.5572940000000 1.0
C      1  0.5572940000000  0.7106760000000  0.4462000000000 1.0
C      1  0.4462000000000  0.5572940000000  0.7106760000000 1.0
C      1  0.2893240000000  0.4462000000000  0.4427060000000 1.0
C      1  0.7106760000000  0.5538000000000  0.4427060000000 1.0
C      1  0.2893240000000  0.5538000000000  0.5572940000000 1.0
C      1  0.4427060000000  0.7106760000000  0.5538000000000 1.0
C      1  0.5572940000000  0.2893240000000  0.5538000000000 1.0
C      1  0.4427060000000  0.2893240000000  0.4462000000000 1.0
C      1  0.5538000000000  0.5572940000000  0.2893240000000 1.0
C      1  0.4462000000000  0.4427060000000  0.2893240000000 1.0
C      1  0.5538000000000  0.4427060000000  0.7106760000000 1.0
C      1  0.7106760000000  0.5538000000000  0.5572940000000 1.0
C      1  0.5572940000000  0.2893240000000  0.4462000000000 1.0
C      1  0.4462000000000  0.4427060000000  0.7106760000000 1.0
C      1  0.2893240000000  0.5538000000000  0.4427060000000 1.0
C      1  0.7106760000000  0.4462000000000  0.4427060000000 1.0
C      1  0.2893240000000  0.4462000000000  0.5572940000000 1.0
C      1  0.4427060000000  0.2893240000000  0.5538000000000 1.0
C      1  0.5572940000000  0.7106760000000  0.5538000000000 1.0
C      1  0.4427060000000  0.7106760000000  0.4462000000000 1.0
C      1  0.5538000000000  0.4427060000000  0.2893240000000 1.0
C      1  0.4462000000000  0.5572940000000  0.2893240000000 1.0
C      1  0.5538000000000  0.5572940000000  0.7106760000000 1.0
C      1  0.5839720000000  0.3460820000000  0.3288600000000 1.0
C      1  0.3288600000000  0.5839720000000  0.3460820000000 1.0
C      1  0.3460820000000  0.3288600000000  0.5839720000000 1.0
C      1  0.4160280000000  0.3460820000000  0.6711400000000 1.0
C      1  0.5839720000000  0.6539180000000  0.6711400000000 1.0
C      1  0.4160280000000  0.6539180000000  0.3288600000000 1.0
C      1  0.6711400000000  0.5839720000000  0.6539180000000 1.0
C      1  0.3288600000000  0.4160280000000  0.6539180000000 1.0
C      1  0.6711400000000  0.4160280000000  0.3460820000000 1.0
C      1  0.6539180000000  0.3288600000000  0.4160280000000 1.0
C      1  0.3460820000000  0.6711400000000  0.4160280000000 1.0
C      1  0.6539180000000  0.6711400000000  0.5839720000000 1.0
C      1  0.5839720000000  0.6539180000000  0.3288600000000 1.0
C      1  0.3288600000000  0.4160280000000  0.3460820000000 1.0
C      1  0.3460820000000  0.6711400000000  0.5839720000000 1.0
C      1  0.4160280000000  0.6539180000000  0.6711400000000 1.0
C      1  0.5839720000000  0.3460820000000  0.6711400000000 1.0
C      1  0.4160280000000  0.3460820000000  0.3288600000000 1.0
C      1  0.6711400000000  0.4160280000000  0.6539180000000 1.0
C      1  0.3288600000000  0.5839720000000  0.6539180000000 1.0
C      1  0.6711400000000  0.5839720000000  0.3460820000000 1.0
C      1  0.6539180000000  0.6711400000000  0.4160280000000 1.0
C      1  0.3460820000000  0.3288600000000  0.4160280000000 1.0
C      1  0.6539180000000  0.3288600000000  0.5839720000000 1.0
C      1  0.5000000000000  0.2889290000000  0.3482830000000 1.0
C      1  0.3482830000000  0.5000000000000  0.2889290000000 1.0
C      1  0.5000000000000  0.2889290000000  0.6517170000000 1.0
C      1  0.5000000000000  0.7110710000000  0.3482830000000 1.0
C      1  0.6517170000000  0.5000000000000  0.7110710000000 1.0
C      1  0.3482830000000  0.5000000000000  0.7110710000000 1.0
C      1  0.6517170000000  0.5000000000000  0.2889290000000 1.0
C      1  0.5000000000000  0.7110710000000  0.6517170000000 1.0
C      1  0.2889290000000  0.3482830000000  0.5000000000000 1.0
C      1  0.7110710000000  0.3482830000000  0.5000000000000 1.0
C      1  0.2889290000000  0.6517170000000  0.5000000000000 1.0
C      1  0.7110710000000  0.6517170000000  0.5000000000000 1.0
END
