TITL C-3036485-3770-803 1.44368670679633e-06 3375 -327.701231956381 0 0 60 (C2) n - 1
REM
REM in /home/bkarasulu/work/CARBON/AIRSS/Generating-Clusters/REBO/Higher-Symm/Only-C60
REM
REM
REM
REM
REM
REM ./C.cell (a2850807a9bf4ad07a5b6933b78d9264)
REM AIRSS Version 0.9.1 bugfix July 2018 build 013d7b7c2542+ Fri, 06 Jul 2018 19:26:36 +0100
REM compiler GCC version 9.2.1 20190827 (Red Hat 9.2.1-1)
REM options -cpp -mtune=generic -march=x86-64 -g -O0 -fpre-include=/usr/include/finclude/math-vector-fortran.h
REM seed 1075839612 -1654713218 -1405010921 999537615 -1353947202 -1092540263 1626364232 538547447 -1496166775 1395367453 -1449942766 -1739917195 -1358751138 578127890 804935459 431325756 -676471299 -1748023738 1091183989 -1254624299 1066316636 764352465 -511892461 53527463 757988836 643182169 64897483 960854712 -1292160379 720429022 196727153 1253800215 1842000175
REM
CELL 1.54180   15.00000   15.00000   15.00000   90.00000   90.00000   90.00000
LATT -1
SFAC C  
C      1  0.5328740000000  0.4962730000000  0.6559000000000 1.0
C      1  0.4339610000000  0.5115230000000  0.6432350000000 1.0
C      1  0.3535810000000  0.5008280000000  0.5805100000000 1.0
C      1  0.3394130000000  0.5155320000000  0.4811600000000 1.0
C      1  0.3723110000000  0.4991310000000  0.3843470000000 1.0
C      1  0.4671260000000  0.4962740000000  0.3441000000000 1.0
C      1  0.5660390000000  0.5115230000000  0.3567650000000 1.0
C      1  0.6464200000000  0.5008270000000  0.4194900000000 1.0
C      1  0.6605870000000  0.5155310000000  0.5188400000000 1.0
C      1  0.6276890000000  0.4991290000000  0.6156530000000 1.0
C      1  0.3812820000000  0.6577280000000  0.5991430000000 1.0
C      1  0.3506300000000  0.6641380000000  0.5119690000000 1.0
C      1  0.3628200000000  0.6558740000000  0.4120430000000 1.0
C      1  0.4348430000000  0.6562930000000  0.3476940000000 1.0
C      1  0.5293110000000  0.6704160000000  0.3512140000000 1.0
C      1  0.6187200000000  0.6577270000000  0.4008580000000 1.0
C      1  0.6493720000000  0.6641370000000  0.4880320000000 1.0
C      1  0.6371810000000  0.6558720000000  0.5879580000000 1.0
C      1  0.5651590000000  0.6562920000000  0.6523070000000 1.0
C      1  0.4706900000000  0.6704160000000  0.6487870000000 1.0
C      1  0.6097530000000  0.5005230000000  0.7635480000000 1.0
C      1  0.4317740000000  0.5045330000000  0.7749930000000 1.0
C      1  0.2683040000000  0.4917980000000  0.6813750000000 1.0
C      1  0.2122730000000  0.5039860000000  0.5146830000000 1.0
C      1  0.2512590000000  0.4848290000000  0.3332830000000 1.0
C      1  0.3902470000000  0.5005250000000  0.2364520000000 1.0
C      1  0.5682260000000  0.5045340000000  0.2250070000000 1.0
C      1  0.7316960000000  0.4917960000000  0.3186240000000 1.0
C      1  0.7877270000000  0.5039830000000  0.4853170000000 1.0
C      1  0.7487400000000  0.4848260000000  0.6667170000000 1.0
C      1  0.7366020000000  0.5993700000000  0.5195960000000 1.0
C      1  0.7088620000000  0.5798420000000  0.6249640000000 1.0
C      1  0.5813630000000  0.5802110000000  0.7107450000000 1.0
C      1  0.4144180000000  0.5983520000000  0.7134900000000 1.0
C      1  0.3224620000000  0.5833830000000  0.6546250000000 1.0
C      1  0.2633990000000  0.5993720000000  0.4804050000000 1.0
C      1  0.2911390000000  0.5798440000000  0.3750370000000 1.0
C      1  0.4186380000000  0.5802130000000  0.2892550000000 1.0
C      1  0.5855820000000  0.5983520000000  0.2865110000000 1.0
C      1  0.6775390000000  0.5833820000000  0.3453750000000 1.0
C      1  0.6064570000000  0.3262950000000  0.6458690000000 1.0
C      1  0.4980170000000  0.3308130000000  0.6782530000000 1.0
C      1  0.3914010000000  0.3391970000000  0.6477320000000 1.0
C      1  0.3281620000000  0.3351210000000  0.5536810000000 1.0
C      1  0.3239590000000  0.3376510000000  0.4428760000000 1.0
C      1  0.3935410000000  0.3262970000000  0.3541300000000 1.0
C      1  0.5019820000000  0.3308140000000  0.3217460000000 1.0
C      1  0.6085970000000  0.3391970000000  0.3522670000000 1.0
C      1  0.6718370000000  0.3351190000000  0.4463180000000 1.0
C      1  0.6760390000000  0.3376490000000  0.5571230000000 1.0
C      1  0.5703100000000  0.4090840000000  0.7145290000000 1.0
C      1  0.4377550000000  0.4213290000000  0.7114690000000 1.0
C      1  0.3083480000000  0.4135470000000  0.6308080000000 1.0
C      1  0.2774000000000  0.4229460000000  0.5020000000000 1.0
C      1  0.3169160000000  0.4094610000000  0.3562880000000 1.0
C      1  0.4296890000000  0.4090860000000  0.2854700000000 1.0
C      1  0.5622440000000  0.4213290000000  0.2885310000000 1.0
C      1  0.6916510000000  0.4135460000000  0.3691910000000 1.0
C      1  0.7226000000000  0.4229440000000  0.4980000000000 1.0
C      1  0.6830830000000  0.4094580000000  0.6437110000000 1.0
END
