TITL C-3036484-3770-1005 -7.1606391046586e-06 3375 -359.111943433505 0 0 60 (C1) n - 1
REM
REM in /home/bkarasulu/work/CARBON/AIRSS/Generating-Clusters/REBO/Higher-Symm/Only-C60
REM
REM
REM
REM
REM
REM ./C.cell (a2850807a9bf4ad07a5b6933b78d9264)
REM AIRSS Version 0.9.1 bugfix July 2018 build 013d7b7c2542+ Fri, 06 Jul 2018 19:26:36 +0100
REM compiler GCC version 9.2.1 20190827 (Red Hat 9.2.1-1)
REM options -cpp -mtune=generic -march=x86-64 -g -O0 -fpre-include=/usr/include/finclude/math-vector-fortran.h
REM seed -148070147 -222228763 -745621612 2041787932 1391016990 653857972 1312318135 -425234977 2107488541 -484985216 -747012096 -482850548 -1783607651 1805987212 2019869720 -70122099 30298929 -1315686819 -62529033 -1054307163 151503309 -245087148 -745060442 -825274293 -559290121 -339583412 -795585126 -1413418358 337178916 878249045 548436704 1693827161 -1421594266
REM
CELL 1.54180   15.00000   15.00000   15.00000   90.00000   90.00000   90.00000
LATT -1
SFAC C  
C      1  0.6319320000000  0.7138510000000  0.5474400000000 1.0
C      1  0.3369800000000  0.6854980000000  0.5484180000000 1.0
C      1  0.2725240000000  0.4009580000000  0.5141870000000 1.0
C      1  0.5093680000000  0.2664690000000  0.5613550000000 1.0
C      1  0.7428280000000  0.4408090000000  0.5424730000000 1.0
C      1  0.6866540000000  0.5236180000000  0.5602530000000 1.0
C      1  0.5363190000000  0.6843480000000  0.5620170000000 1.0
C      1  0.3373310000000  0.5849230000000  0.5540750000000 1.0
C      1  0.3704110000000  0.3863330000000  0.5529250000000 1.0
C      1  0.5740990000000  0.3442890000000  0.5695430000000 1.0
C      1  0.6209070000000  0.6080470000000  0.6810060000000 1.0
C      1  0.4338210000000  0.6275420000000  0.6768230000000 1.0
C      1  0.3450500000000  0.4595840000000  0.6613660000000 1.0
C      1  0.4908630000000  0.3368840000000  0.7090920000000 1.0
C      1  0.6533530000000  0.4229940000000  0.6863110000000 1.0
C      1  0.5707850000000  0.3731300000000  0.6730330000000 1.0
C      1  0.6497190000000  0.5168530000000  0.6624860000000 1.0
C      1  0.5294880000000  0.6304700000000  0.6574170000000 1.0
C      1  0.3808610000000  0.5485030000000  0.6497660000000 1.0
C      1  0.3952960000000  0.3656250000000  0.6627880000000 1.0
C      1  0.6705790000000  0.3802230000000  0.3811390000000 1.0
C      1  0.6700290000000  0.6324380000000  0.3824420000000 1.0
C      1  0.4282410000000  0.7051200000000  0.3867760000000 1.0
C      1  0.2814080000000  0.5002220000000  0.3641090000000 1.0
C      1  0.4277400000000  0.3061240000000  0.4048470000000 1.0
C      1  0.4431550000000  0.4487030000000  0.5219580000000 1.0
C      1  0.5369920000000  0.4303870000000  0.5271750000000 1.0
C      1  0.5840140000000  0.5138150000000  0.5324160000000 1.0
C      1  0.5181360000000  0.5833860000000  0.5332680000000 1.0
C      1  0.4317070000000  0.5431230000000  0.5267880000000 1.0
C      1  0.6622390000000  0.4690260000000  0.3293990000000 1.0
C      1  0.5804520000000  0.6419350000000  0.3339320000000 1.0
C      1  0.3936350000000  0.6297870000000  0.3295420000000 1.0
C      1  0.3452420000000  0.4304950000000  0.3229580000000 1.0
C      1  0.5021050000000  0.3427730000000  0.3473940000000 1.0
C      1  0.7218150000000  0.6180860000000  0.5478650000000 1.0
C      1  0.4545820000000  0.7432230000000  0.5551040000000 1.0
C      1  0.2549560000000  0.5290180000000  0.5379070000000 1.0
C      1  0.3800490000000  0.2810490000000  0.5862620000000 1.0
C      1  0.6734480000000  0.3295160000000  0.5491880000000 1.0
C      1  0.7097820000000  0.3788800000000  0.4646140000000 1.0
C      1  0.6825650000000  0.6697170000000  0.4663290000000 1.0
C      1  0.3947650000000  0.7266190000000  0.4707690000000 1.0
C      1  0.2493560000000  0.4784320000000  0.4479360000000 1.0
C      1  0.4393860000000  0.2747500000000  0.4893150000000 1.0
C      1  0.2974810000000  0.5858460000000  0.3388390000000 1.0
C      1  0.3465490000000  0.3385500000000  0.3750290000000 1.0
C      1  0.6050120000000  0.3203570000000  0.3611900000000 1.0
C      1  0.7146680000000  0.5557050000000  0.3589770000000 1.0
C      1  0.5174540000000  0.7201460000000  0.3689360000000 1.0
C      1  0.7236040000000  0.3796780000000  0.6284730000000 1.0
C      1  0.6826680000000  0.6705450000000  0.6312100000000 1.0
C      1  0.3928640000000  0.7105930000000  0.6354920000000 1.0
C      1  0.2630610000000  0.4519050000000  0.6096460000000 1.0
C      1  0.4654890000000  0.2535280000000  0.6538030000000 1.0
C      1  0.5812700000000  0.5372330000000  0.2921340000000 1.0
C      1  0.4889880000000  0.5924730000000  0.2881070000000 1.0
C      1  0.4055540000000  0.5222460000000  0.2936300000000 1.0
C      1  0.4513650000000  0.4229340000000  0.2901400000000 1.0
C      1  0.5590100000000  0.4306830000000  0.3021870000000 1.0
END
