TITL C-3036486-2224-487 0.000595708933685126 3375 -351.745082352857 0 0 60 (Cs) n - 1
REM
REM in /home/bkarasulu/work/CARBON/AIRSS/Generating-Clusters/REBO/Higher-Symm/Only-C60
REM
REM
REM
REM
REM
REM ./C.cell (a2850807a9bf4ad07a5b6933b78d9264)
REM AIRSS Version 0.9.1 bugfix July 2018 build 013d7b7c2542+ Fri, 06 Jul 2018 19:26:36 +0100
REM compiler GCC version 9.2.1 20190827 (Red Hat 9.2.1-1)
REM options -cpp -mtune=generic -march=x86-64 -g -O0 -fpre-include=/usr/include/finclude/math-vector-fortran.h
REM seed 2134147087 33159710 234261827 1671063945 -1628262698 1847697182 2035473669 -567105377 1593764381 -552424319 758306025 -780054742 -143165042 1040608399 -1465415538 916856918 1857888453 -473542953 1517821473 -1964032511 -1657622942 -1075158137 1558349707 -1058918801 -947411731 -2147466129 -652012368 -2034191475 -49379260 1909820963 -890528307 1787369401 -12501891
REM
CELL 1.54180   15.00000   15.00000   15.00000   90.00000   90.00000   90.00000
LATT -1
SFAC C  
C      1  0.5833150000000  0.4131910000000  0.4715690000000 1.0
C      1  0.4162020000000  0.5859120000000  0.4749950000000 1.0
C      1  0.5832430000000  0.5859520000000  0.4716460000000 1.0
C      1  0.4162780000000  0.4132140000000  0.4750680000000 1.0
C      1  0.3911340000000  0.3157890000000  0.4304400000000 1.0
C      1  0.6056600000000  0.6832340000000  0.4247640000000 1.0
C      1  0.3911780000000  0.6833330000000  0.4302820000000 1.0
C      1  0.6056140000000  0.3158880000000  0.4246310000000 1.0
C      1  0.7355560000000  0.5460100000000  0.3605120000000 1.0
C      1  0.2600750000000  0.4530750000000  0.3696950000000 1.0
C      1  0.7355580000000  0.4530860000000  0.3604330000000 1.0
C      1  0.2600550000000  0.5460360000000  0.3696020000000 1.0
C      1  0.6628230000000  0.4536050000000  0.5204730000000 1.0
C      1  0.3383020000000  0.5455470000000  0.5263730000000 1.0
C      1  0.6627610000000  0.5455460000000  0.5205490000000 1.0
C      1  0.3383810000000  0.4536440000000  0.5264620000000 1.0
C      1  0.5767800000000  0.5440650000000  0.7352480000000 1.0
C      1  0.4011920000000  0.4550840000000  0.7393290000000 1.0
C      1  0.5767030000000  0.4550900000000  0.7353400000000 1.0
C      1  0.4012230000000  0.5440580000000  0.7393580000000 1.0
C      1  0.6182540000000  0.6680870000000  0.6075910000000 1.0
C      1  0.3845520000000  0.3312340000000  0.6136510000000 1.0
C      1  0.6181740000000  0.3311190000000  0.6075390000000 1.0
C      1  0.3844920000000  0.6679420000000  0.6135840000000 1.0
C      1  0.4256670000000  0.5500450000000  0.3719320000000 1.0
C      1  0.5701160000000  0.4491680000000  0.3690780000000 1.0
C      1  0.4256830000000  0.4490940000000  0.3719820000000 1.0
C      1  0.5701090000000  0.5499580000000  0.3691210000000 1.0
C      1  0.3300480000000  0.3948370000000  0.3763490000000 1.0
C      1  0.6657190000000  0.6041190000000  0.3696260000000 1.0
C      1  0.3300280000000  0.6042770000000  0.3761900000000 1.0
C      1  0.6657090000000  0.3949900000000  0.3694910000000 1.0
C      1  0.4340450000000  0.6230400000000  0.8025140000000 1.0
C      1  0.5326820000000  0.3712310000000  0.7871490000000 1.0
C      1  0.4337900000000  0.3759070000000  0.8024380000000 1.0
C      1  0.5327890000000  0.6279240000000  0.7871020000000 1.0
C      1  0.5555770000000  0.3594530000000  0.6773980000000 1.0
C      1  0.4433620000000  0.6370670000000  0.6886910000000 1.0
C      1  0.5556230000000  0.6397580000000  0.6774040000000 1.0
C      1  0.4433960000000  0.3621300000000  0.6886350000000 1.0
C      1  0.4160810000000  0.7096790000000  0.5369410000000 1.0
C      1  0.5870660000000  0.2882610000000  0.5312170000000 1.0
C      1  0.4161980000000  0.2895270000000  0.5370360000000 1.0
C      1  0.5869520000000  0.7108190000000  0.5313010000000 1.0
C      1  0.3140420000000  0.6061390000000  0.5947330000000 1.0
C      1  0.6876180000000  0.3937510000000  0.5893050000000 1.0
C      1  0.3141200000000  0.3930660000000  0.5948340000000 1.0
C      1  0.6876400000000  0.6053970000000  0.5893420000000 1.0
C      1  0.5000340000000  0.2655980000000  0.4882730000000 1.0
C      1  0.4999840000000  0.7335110000000  0.4882730000000 1.0
C      1  0.4967110000000  0.5848050000000  0.3020620000000 1.0
C      1  0.4966560000000  0.4143460000000  0.3020600000000 1.0
C      1  0.5007390000000  0.5758620000000  0.5264500000000 1.0
C      1  0.5008310000000  0.4232410000000  0.5264650000000 1.0
C      1  0.4969920000000  0.2753490000000  0.3852840000000 1.0
C      1  0.4970760000000  0.7238200000000  0.3852900000000 1.0
C      1  0.4970800000000  0.6863420000000  0.2990130000000 1.0
C      1  0.4969040000000  0.3128000000000  0.2990290000000 1.0
C      1  0.5018350000000  0.4995510000000  0.5774810000000 1.0
C      1  0.4951770000000  0.4995770000000  0.2354130000000 1.0
END
