TITL C-3036485-3770-775 6.29340335838982e-06 3375 -367.777982467646 0 0 60 (Ci) n - 1
REM
REM in /home/bkarasulu/work/CARBON/AIRSS/Generating-Clusters/REBO/Higher-Symm/Only-C60
REM
REM
REM
REM
REM
REM ./C.cell (a2850807a9bf4ad07a5b6933b78d9264)
REM AIRSS Version 0.9.1 bugfix July 2018 build 013d7b7c2542+ Fri, 06 Jul 2018 19:26:36 +0100
REM compiler GCC version 9.2.1 20190827 (Red Hat 9.2.1-1)
REM options -cpp -mtune=generic -march=x86-64 -g -O0 -fpre-include=/usr/include/finclude/math-vector-fortran.h
REM seed 1702077334 105608076 -559887581 -1653147034 241396220 -323100363 -2142480292 -595021031 -1683346400 -139552398 -1696994833 926977598 -901936978 -285614470 -1057492247 1602073680 -954463251 -238405311 816202450 262251562 1299898655 723624512 -632679727 1299062532 -1591576767 649368160 -327394589 946543098 890007005 -1175183273 -2054735924 -1795856728 342523662
REM
CELL 1.54180   15.00000   15.00000   15.00000   90.00000   90.00000   90.00000
LATT -1
SFAC C  
C      1  0.5052890000000  0.3684180000000  0.3811840000000 1.0
C      1  0.4991240000000  0.4606530000000  0.3151770000000 1.0
C      1  0.5022340000000  0.5740140000000  0.3202630000000 1.0
C      1  0.4942520000000  0.6530560000000  0.4015670000000 1.0
C      1  0.5041070000000  0.6727090000000  0.5132160000000 1.0
C      1  0.4947110000000  0.6315820000000  0.6188160000000 1.0
C      1  0.5008760000000  0.5393470000000  0.6848230000000 1.0
C      1  0.4977660000000  0.4259860000000  0.6797370000000 1.0
C      1  0.5057480000000  0.3469440000000  0.5984330000000 1.0
C      1  0.4958930000000  0.3272910000000  0.4867840000000 1.0
C      1  0.5990260000000  0.3064820000000  0.5129210000000 1.0
C      1  0.4003550000000  0.3451110000000  0.3958580000000 1.0
C      1  0.6029290000000  0.4332330000000  0.3179540000000 1.0
C      1  0.4020580000000  0.5495030000000  0.2956650000000 1.0
C      1  0.5959010000000  0.6562510000000  0.3660520000000 1.0
C      1  0.4009740000000  0.6935180000000  0.4870790000000 1.0
C      1  0.5996450000000  0.6548890000000  0.6041420000000 1.0
C      1  0.3970710000000  0.5667670000000  0.6820460000000 1.0
C      1  0.5979420000000  0.4504970000000  0.7043350000000 1.0
C      1  0.4040990000000  0.3437490000000  0.6339480000000 1.0
C      1  0.6064030000000  0.5479670000000  0.7138470000000 1.0
C      1  0.3913930000000  0.4140920000000  0.7020020000000 1.0
C      1  0.6154620000000  0.3346070000000  0.6057100000000 1.0
C      1  0.3869070000000  0.3108470000000  0.4860820000000 1.0
C      1  0.6119270000000  0.3476870000000  0.3648160000000 1.0
C      1  0.3935970000000  0.4520330000000  0.2861530000000 1.0
C      1  0.6086070000000  0.5859080000000  0.2979980000000 1.0
C      1  0.3845380000000  0.6653930000000  0.3942900000000 1.0
C      1  0.6130930000000  0.6891530000000  0.5139180000000 1.0
C      1  0.3880730000000  0.6523130000000  0.6351840000000 1.0
C      1  0.6586140000000  0.3197940000000  0.4411780000000 1.0
C      1  0.3439840000000  0.3988500000000  0.3448390000000 1.0
C      1  0.6585750000000  0.5082590000000  0.3146380000000 1.0
C      1  0.3410370000000  0.5998320000000  0.3453990000000 1.0
C      1  0.6567920000000  0.6692920000000  0.4353200000000 1.0
C      1  0.3413860000000  0.6802060000000  0.5588220000000 1.0
C      1  0.6560160000000  0.6011500000000  0.6551610000000 1.0
C      1  0.3414250000000  0.4917410000000  0.6853620000000 1.0
C      1  0.6589630000000  0.4001680000000  0.6546010000000 1.0
C      1  0.3432080000000  0.3307080000000  0.5646800000000 1.0
C      1  0.2630890000000  0.4397820000000  0.3816850000000 1.0
C      1  0.7375000000000  0.5208580000000  0.3710260000000 1.0
C      1  0.2619600000000  0.5536590000000  0.3793420000000 1.0
C      1  0.7378580000000  0.6149350000000  0.4352600000000 1.0
C      1  0.2570860000000  0.6474360000000  0.5432400000000 1.0
C      1  0.7369110000000  0.5602180000000  0.6183150000000 1.0
C      1  0.2625000000000  0.4791420000000  0.6289740000000 1.0
C      1  0.7380400000000  0.4463410000000  0.6206580000000 1.0
C      1  0.2621420000000  0.3850650000000  0.5647400000000 1.0
C      1  0.7429140000000  0.3525640000000  0.4567600000000 1.0
C      1  0.8292680000000  0.5030130000000  0.5844460000000 1.0
C      1  0.1706790000000  0.4522000000000  0.5677040000000 1.0
C      1  0.7987050000000  0.4097460000000  0.5325730000000 1.0
C      1  0.2022620000000  0.4043980000000  0.4706120000000 1.0
C      1  0.7983960000000  0.4418530000000  0.4247530000000 1.0
C      1  0.1707320000000  0.4969860000000  0.4155540000000 1.0
C      1  0.8293210000000  0.5478000000000  0.4322960000000 1.0
C      1  0.2012950000000  0.5902540000000  0.4674270000000 1.0
C      1  0.7977380000000  0.5956020000000  0.5293880000000 1.0
C      1  0.2016040000000  0.5581470000000  0.5752470000000 1.0
END
