TITL C-3036486-2224-833 5.36735137672091e-06 3375 -328.873622093331 0 0 60 (C1) n - 1
REM
REM in /home/bkarasulu/work/CARBON/AIRSS/Generating-Clusters/REBO/Higher-Symm/Only-C60
REM
REM
REM
REM
REM
REM ./C.cell (a2850807a9bf4ad07a5b6933b78d9264)
REM AIRSS Version 0.9.1 bugfix July 2018 build 013d7b7c2542+ Fri, 06 Jul 2018 19:26:36 +0100
REM compiler GCC version 9.2.1 20190827 (Red Hat 9.2.1-1)
REM options -cpp -mtune=generic -march=x86-64 -g -O0 -fpre-include=/usr/include/finclude/math-vector-fortran.h
REM seed 918243955 222833684 724349444 101561392 1079314092 -1193106074 -144806836 -764599957 -420494401 -74531837 -1576642451 64274730 1684209733 -1111227597 -1918905852 1129198589 -1828959852 -393878669 -1529168582 -1195807545 512434692 -151335382 1100369798 1208121625 -313591561 1199597408 -1074021071 -512444391 -300575991 600330023 1834154300 -491977463 -177439953
REM
CELL 1.54180   15.00000   15.00000   15.00000   90.00000   90.00000   90.00000
LATT -1
SFAC C  
C      1  0.4816760000000  0.6605140000000  0.6944410000000 1.0
C      1  0.6817700000000  0.5017940000000  0.6183160000000 1.0
C      1  0.5285580000000  0.5914250000000  0.2550760000000 1.0
C      1  0.4978850000000  0.3087810000000  0.3392710000000 1.0
C      1  0.2466400000000  0.4098660000000  0.4743810000000 1.0
C      1  0.3990200000000  0.3354220000000  0.5266120000000 1.0
C      1  0.3502740000000  0.4343250000000  0.6432920000000 1.0
C      1  0.5619650000000  0.6897900000000  0.5192030000000 1.0
C      1  0.4461280000000  0.4114190000000  0.5856600000000 1.0
C      1  0.4255330000000  0.7178630000000  0.5316860000000 1.0
C      1  0.3319130000000  0.6459390000000  0.4791830000000 1.0
C      1  0.3994100000000  0.5328990000000  0.4863520000000 1.0
C      1  0.5724360000000  0.3592270000000  0.4087570000000 1.0
C      1  0.4849810000000  0.7062240000000  0.4374080000000 1.0
C      1  0.5476050000000  0.5912230000000  0.5635990000000 1.0
C      1  0.5750590000000  0.5108030000000  0.6261140000000 1.0
C      1  0.5746540000000  0.4370020000000  0.4919960000000 1.0
C      1  0.4060790000000  0.6378070000000  0.3933400000000 1.0
C      1  0.4524670000000  0.6142710000000  0.5256930000000 1.0
C      1  0.4935520000000  0.4325110000000  0.3867140000000 1.0
C      1  0.4959160000000  0.6422370000000  0.3232500000000 1.0
C      1  0.5689270000000  0.6384620000000  0.6611620000000 1.0
C      1  0.2967530000000  0.3502530000000  0.5556340000000 1.0
C      1  0.4668480000000  0.7243460000000  0.7569080000000 1.0
C      1  0.4095310000000  0.6116270000000  0.6510790000000 1.0
C      1  0.2685120000000  0.4673900000000  0.3885470000000 1.0
C      1  0.3392970000000  0.6376540000000  0.5921060000000 1.0
C      1  0.5563440000000  0.4255610000000  0.2943800000000 1.0
C      1  0.4397080000000  0.4381100000000  0.7149420000000 1.0
C      1  0.4672530000000  0.7792140000000  0.5949590000000 1.0
C      1  0.2715120000000  0.4600170000000  0.5730450000000 1.0
C      1  0.4514440000000  0.2296940000000  0.4053080000000 1.0
C      1  0.6433990000000  0.6043550000000  0.4501740000000 1.0
C      1  0.5629210000000  0.2805340000000  0.5637610000000 1.0
C      1  0.4267820000000  0.5155320000000  0.6314370000000 1.0
C      1  0.6984750000000  0.3797650000000  0.4607300000000 1.0
C      1  0.6210680000000  0.3609810000000  0.6501170000000 1.0
C      1  0.5590920000000  0.7602060000000  0.5814550000000 1.0
C      1  0.6898050000000  0.4090090000000  0.6589720000000 1.0
C      1  0.6486840000000  0.5076470000000  0.5130880000000 1.0
C      1  0.5681960000000  0.2603530000000  0.4545710000000 1.0
C      1  0.5327720000000  0.4603620000000  0.6893490000000 1.0
C      1  0.6542820000000  0.4669460000000  0.3302750000000 1.0
C      1  0.6622380000000  0.6129350000000  0.6277060000000 1.0
C      1  0.5910530000000  0.5222230000000  0.2594570000000 1.0
C      1  0.7075650000000  0.4564060000000  0.4051630000000 1.0
C      1  0.6540540000000  0.3154880000000  0.5041410000000 1.0
C      1  0.5817160000000  0.6780520000000  0.3893900000000 1.0
C      1  0.7380430000000  0.5475130000000  0.4563580000000 1.0
C      1  0.3014020000000  0.5496580000000  0.5339620000000 1.0
C      1  0.3672800000000  0.4337310000000  0.3442230000000 1.0
C      1  0.3854580000000  0.3027520000000  0.3599870000000 1.0
C      1  0.3564920000000  0.5376130000000  0.3873060000000 1.0
C      1  0.7275030000000  0.6076960000000  0.5524300000000 1.0
C      1  0.5396830000000  0.5828120000000  0.4310230000000 1.0
C      1  0.4663960000000  0.2588960000000  0.5078300000000 1.0
C      1  0.4930180000000  0.5026910000000  0.4581270000000 1.0
C      1  0.4464580000000  0.3974340000000  0.2897790000000 1.0
C      1  0.5434100000000  0.3879300000000  0.5779460000000 1.0
C      1  0.3431070000000  0.3668100000000  0.4328280000000 1.0
END
