TITL C-3036479-9801-268 4.54841899007236e-06 3375 -354.709372593525 0 0 60 (C3) n - 1
REM
REM in /home/bkarasulu/work/CARBON/AIRSS/Generating-Clusters/REBO/Higher-Symm/Only-C60
REM
REM
REM
REM
REM
REM ./C.cell (a2850807a9bf4ad07a5b6933b78d9264)
REM AIRSS Version 0.9.1 bugfix July 2018 build 013d7b7c2542+ Fri, 06 Jul 2018 19:26:36 +0100
REM compiler GCC version 9.2.1 20190827 (Red Hat 9.2.1-1)
REM options -cpp -mtune=generic -march=x86-64 -g -O0 -fpre-include=/usr/include/finclude/math-vector-fortran.h
REM seed 1134022271 1847937858 -627280167 890126542 -1423995758 398207085 1142473204 -318694689 363412890 -1108211985 1493447320 -1737511165 -1966971363 1388635428 -124554974 1047879564 -1977311284 -757581686 1391789640 -2086410099 -768598835 2073121959 -191720822 304634806 -1271022032 -1456264937 -200864203 1469980754 -803867187 1859124783 -121159467 -1301963713 -75936027
REM
CELL 1.54180   15.00000   15.00000   15.00000   90.00000   90.00000   90.00000
LATT -1
SFAC C  
C      1  0.4044670000000  0.5075210000000  0.2291740000000 1.0
C      1  0.4044740000000  0.7307890000000  0.6419200000000 1.0
C      1  0.4044460000000  0.2617060000000  0.6289030000000 1.0
C      1  0.5964250000000  0.4787580000000  0.2277440000000 1.0
C      1  0.5964360000000  0.7463940000000  0.6177390000000 1.0
C      1  0.5964060000000  0.2748310000000  0.6545210000000 1.0
C      1  0.4035720000000  0.4778230000000  0.7725750000000 1.0
C      1  0.4035910000000  0.7471540000000  0.3829210000000 1.0
C      1  0.4035620000000  0.2750390000000  0.3445010000000 1.0
C      1  0.5935640000000  0.5029150000000  0.7729320000000 1.0
C      1  0.5935820000000  0.7349000000000  0.3610060000000 1.0
C      1  0.5935520000000  0.2621690000000  0.3660650000000 1.0
C      1  0.4522550000000  0.5466020000000  0.3222020000000 1.0
C      1  0.4522550000000  0.6306810000000  0.6292550000000 1.0
C      1  0.4522370000000  0.3227250000000  0.5485420000000 1.0
C      1  0.5587570000000  0.5317510000000  0.3150970000000 1.0
C      1  0.5587590000000  0.6442510000000  0.6199520000000 1.0
C      1  0.5587390000000  0.3239880000000  0.5649530000000 1.0
C      1  0.4402660000000  0.5476250000000  0.7004060000000 1.0
C      1  0.4402760000000  0.6497500000000  0.3585550000000 1.0
C      1  0.4402530000000  0.3026350000000  0.4410370000000 1.0
C      1  0.5454840000000  0.5589670000000  0.6919750000000 1.0
C      1  0.5454930000000  0.6367670000000  0.3529450000000 1.0
C      1  0.5454700000000  0.3042590000000  0.4550820000000 1.0
C      1  0.3635100000000  0.3667750000000  0.3543930000000 1.0
C      1  0.3635300000000  0.6927220000000  0.4574180000000 1.0
C      1  0.3635130000000  0.4405260000000  0.6881850000000 1.0
C      1  0.6333710000000  0.3529480000000  0.3683470000000 1.0
C      1  0.6333920000000  0.6875300000000  0.4384850000000 1.0
C      1  0.6333750000000  0.4594980000000  0.6931720000000 1.0
C      1  0.3633350000000  0.3500890000000  0.6433490000000 1.0
C      1  0.3633570000000  0.6991120000000  0.5581560000000 1.0
C      1  0.3633460000000  0.4508220000000  0.2984900000000 1.0
C      1  0.6405110000000  0.3640980000000  0.6611700000000 1.0
C      1  0.6405330000000  0.7075150000000  0.5371050000000 1.0
C      1  0.6405200000000  0.4283620000000  0.3017300000000 1.0
C      1  0.6141220000000  0.5970350000000  0.5334030000000 1.0
C      1  0.6141100000000  0.4225460000000  0.5673400000000 1.0
C      1  0.6141170000000  0.4804000000000  0.3992610000000 1.0
C      1  0.3935660000000  0.5931260000000  0.5393250000000 1.0
C      1  0.3935540000000  0.4193890000000  0.5609800000000 1.0
C      1  0.3935620000000  0.4875030000000  0.3996910000000 1.0
C      1  0.6059870000000  0.5785090000000  0.4299910000000 1.0
C      1  0.6059740000000  0.4001060000000  0.4670100000000 1.0
C      1  0.6059810000000  0.5213670000000  0.6030020000000 1.0
C      1  0.3904610000000  0.5839560000000  0.4342880000000 1.0
C      1  0.3904480000000  0.4011240000000  0.4601510000000 1.0
C      1  0.3904550000000  0.5149380000000  0.6055570000000 1.0
C      1  0.4547550000000  0.4648350000000  0.8490760000000 1.0
C      1  0.4547440000000  0.2152780000000  0.2950060000000 1.0
C      1  0.4547800000000  0.8198950000000  0.3559170000000 1.0
C      1  0.5455550000000  0.4797290000000  0.8492210000000 1.0
C      1  0.5455420000000  0.2076970000000  0.3078370000000 1.0
C      1  0.5455780000000  0.8125660000000  0.3429430000000 1.0
C      1  0.4548640000000  0.4991310000000  0.1514880000000 1.0
C      1  0.4548380000000  0.1986180000000  0.6750100000000 1.0
C      1  0.4548750000000  0.8022590000000  0.6735000000000 1.0
C      1  0.5451750000000  0.4827270000000  0.1505140000000 1.0
C      1  0.5451500000000  0.2059680000000  0.6897000000000 1.0
C      1  0.5451870000000  0.8112970000000  0.6597880000000 1.0
END
