TITL C-3036479-9801-382 7.66623281801998e-07 3375 -373.721518819933 0 0 60 (C6) n - 1
REM
REM in /home/bkarasulu/work/CARBON/AIRSS/Generating-Clusters/REBO/Higher-Symm/Only-C60
REM
REM
REM
REM
REM
REM ./C.cell (a2850807a9bf4ad07a5b6933b78d9264)
REM AIRSS Version 0.9.1 bugfix July 2018 build 013d7b7c2542+ Fri, 06 Jul 2018 19:26:36 +0100
REM compiler GCC version 9.2.1 20190827 (Red Hat 9.2.1-1)
REM options -cpp -mtune=generic -march=x86-64 -g -O0 -fpre-include=/usr/include/finclude/math-vector-fortran.h
REM seed 1036671638 -1942515662 -921826522 -154875054 -1341382407 809587263 1080139481 -890907538 -720728838 -574082589 1438495015 -85006218 1814376171 -1650198846 -1133827723 -87597126 -28460756 433334872 1930519918 89939883 1109087625 -42428550 -1566998482 1855840427 -510446295 107805019 -229195609 -325966010 -691802160 58549185 -16200499 604317697 -942614245
REM
CELL 1.54180   15.00000   15.00000   15.00000   90.00000   90.00000   90.00000
LATT -1
SFAC C  
C      1  0.7216840000000  0.4182990000000  0.4733950000000 1.0
C      1  0.6338830000000  0.4182990000000  0.6786810000000 1.0
C      1  0.4121990000000  0.4182990000000  0.7052860000000 1.0
C      1  0.2783160000000  0.4182990000000  0.5266050000000 1.0
C      1  0.3661170000000  0.4182990000000  0.3213190000000 1.0
C      1  0.5878010000000  0.4182990000000  0.2947140000000 1.0
C      1  0.3818870000000  0.6403630000000  0.3509780000000 1.0
C      1  0.5700000000000  0.6403630000000  0.3232000000000 1.0
C      1  0.6881130000000  0.6403630000000  0.4722220000000 1.0
C      1  0.6181130000000  0.6403630000000  0.6490220000000 1.0
C      1  0.4300000000000  0.6403630000000  0.6768000000000 1.0
C      1  0.3118870000000  0.6403630000000  0.5277780000000 1.0
C      1  0.5146580000000  0.4496910000000  0.2505760000000 1.0
C      1  0.7233370000000  0.4496910000000  0.3879820000000 1.0
C      1  0.7086790000000  0.4496910000000  0.6374070000000 1.0
C      1  0.4853420000000  0.4496910000000  0.7494240000000 1.0
C      1  0.2766630000000  0.4496910000000  0.6120180000000 1.0
C      1  0.2913210000000  0.4496910000000  0.3625930000000 1.0
C      1  0.6347690000000  0.4891780000000  0.3519600000000 1.0
C      1  0.6955910000000  0.4891780000000  0.5426930000000 1.0
C      1  0.5608220000000  0.4891780000000  0.6907340000000 1.0
C      1  0.3652310000000  0.4891780000000  0.6480400000000 1.0
C      1  0.3044090000000  0.4891780000000  0.4573070000000 1.0
C      1  0.4391780000000  0.4891780000000  0.3092660000000 1.0
C      1  0.5358590000000  0.6695910000000  0.4100010000000 1.0
C      1  0.5958710000000  0.6695910000000  0.4860550000000 1.0
C      1  0.5600120000000  0.6695910000000  0.5760540000000 1.0
C      1  0.4641410000000  0.6695910000000  0.5899990000000 1.0
C      1  0.4041290000000  0.6695910000000  0.5139450000000 1.0
C      1  0.4399880000000  0.6695910000000  0.4239460000000 1.0
C      1  0.5058420000000  0.6270810000000  0.2549760000000 1.0
C      1  0.7151180000000  0.6270810000000  0.3825480000000 1.0
C      1  0.7092760000000  0.6270810000000  0.6275720000000 1.0
C      1  0.4941580000000  0.6270810000000  0.7450240000000 1.0
C      1  0.2848820000000  0.6270810000000  0.6174520000000 1.0
C      1  0.2907240000000  0.6270810000000  0.3724280000000 1.0
C      1  0.5636260000000  0.4915770000000  0.4313580000000 1.0
C      1  0.5912580000000  0.4915770000000  0.5207810000000 1.0
C      1  0.5276320000000  0.4915770000000  0.5894220000000 1.0
C      1  0.4363740000000  0.4915770000000  0.5686420000000 1.0
C      1  0.4087420000000  0.4915770000000  0.4792190000000 1.0
C      1  0.4723680000000  0.4915770000000  0.4105780000000 1.0
C      1  0.5994300000000  0.2916060000000  0.5485910000000 1.0
C      1  0.5076340000000  0.2916060000000  0.6104050000000 1.0
C      1  0.4082040000000  0.2916060000000  0.5618140000000 1.0
C      1  0.4005700000000  0.2916060000000  0.4514090000000 1.0
C      1  0.4923660000000  0.2916060000000  0.3895950000000 1.0
C      1  0.5917960000000  0.2916060000000  0.4381860000000 1.0
C      1  0.4206250000000  0.3351420000000  0.6627620000000 1.0
C      1  0.3193570000000  0.3351420000000  0.5126400000000 1.0
C      1  0.3987310000000  0.3351420000000  0.3498790000000 1.0
C      1  0.5793750000000  0.3351420000000  0.3372380000000 1.0
C      1  0.6806430000000  0.3351420000000  0.4873600000000 1.0
C      1  0.6012690000000  0.3351420000000  0.6501210000000 1.0
C      1  0.4251170000000  0.5874710000000  0.2842920000000 1.0
C      1  0.6493670000000  0.5874710000000  0.3272950000000 1.0
C      1  0.7242500000000  0.5874710000000  0.5430030000000 1.0
C      1  0.5748830000000  0.5874710000000  0.7157080000000 1.0
C      1  0.3506330000000  0.5874710000000  0.6727050000000 1.0
C      1  0.2757500000000  0.5874710000000  0.4569970000000 1.0
END
