TITL C-3036486-2224-64 -7.37151348695038e-06 3375 -330.540726569472 0 0 60 (C1) n - 1
REM
REM in /home/bkarasulu/work/CARBON/AIRSS/Generating-Clusters/REBO/Higher-Symm/Only-C60
REM
REM
REM
REM
REM
REM ./C.cell (a2850807a9bf4ad07a5b6933b78d9264)
REM AIRSS Version 0.9.1 bugfix July 2018 build 013d7b7c2542+ Fri, 06 Jul 2018 19:26:36 +0100
REM compiler GCC version 9.2.1 20190827 (Red Hat 9.2.1-1)
REM options -cpp -mtune=generic -march=x86-64 -g -O0 -fpre-include=/usr/include/finclude/math-vector-fortran.h
REM seed -209095373 -142542139 -1783405124 179714974 -104478215 -906313684 -1549210662 1891933035 -1745825367 1595289780 1652588575 -1603633895 -1439172641 1697244522 -1679941083 -974961459 1910852565 -1124472772 -611307644 -1357006610 1601820920 692500083 -254521221 2038947138 -1623346527 890476461 -429003166 -1159032890 -2109356174 -294288751 -157156413 -2126839246 -1909520614
REM
CELL 1.54180   15.00000   15.00000   15.00000   90.00000   90.00000   90.00000
LATT -1
SFAC C  
C      1  0.4530520000000  0.5554510000000  0.6016670000000 1.0
C      1  0.4963840000000  0.5699450000000  0.3987510000000 1.0
C      1  0.5455970000000  0.5549450000000  0.6026480000000 1.0
C      1  0.5713640000000  0.5156980000000  0.3994670000000 1.0
C      1  0.5749100000000  0.4669640000000  0.5966250000000 1.0
C      1  0.5437180000000  0.4267130000000  0.4052110000000 1.0
C      1  0.4988060000000  0.4120110000000  0.5915750000000 1.0
C      1  0.4495670000000  0.4275510000000  0.4073510000000 1.0
C      1  0.4230630000000  0.4675270000000  0.5936200000000 1.0
C      1  0.4205520000000  0.5164060000000  0.4041850000000 1.0
C      1  0.2910570000000  0.4360070000000  0.3927950000000 1.0
C      1  0.2910330000000  0.5847850000000  0.6075190000000 1.0
C      1  0.3824450000000  0.6982130000000  0.3877700000000 1.0
C      1  0.5167320000000  0.7274230000000  0.6147460000000 1.0
C      1  0.6406110000000  0.6750170000000  0.3845640000000 1.0
C      1  0.7121890000000  0.5659760000000  0.6167760000000 1.0
C      1  0.7077650000000  0.4356380000000  0.3857460000000 1.0
C      1  0.6307400000000  0.3275620000000  0.6112830000000 1.0
C      1  0.5007940000000  0.2804960000000  0.3900920000000 1.0
C      1  0.3664570000000  0.3230910000000  0.6084450000000 1.0
C      1  0.4194390000000  0.5485550000000  0.2590480000000 1.0
C      1  0.4639880000000  0.5854430000000  0.7417600000000 1.0
C      1  0.5221860000000  0.5887600000000  0.2573870000000 1.0
C      1  0.5706610000000  0.5572230000000  0.7435340000000 1.0
C      1  0.5916060000000  0.5031630000000  0.2561820000000 1.0
C      1  0.5769780000000  0.4471540000000  0.7425520000000 1.0
C      1  0.5322990000000  0.4100540000000  0.2583280000000 1.0
C      1  0.4745260000000  0.4068220000000  0.7401540000000 1.0
C      1  0.4258190000000  0.4378290000000  0.2590890000000 1.0
C      1  0.4043350000000  0.4923350000000  0.7404330000000 1.0
C      1  0.3152900000000  0.5465340000000  0.3980920000000 1.0
C      1  0.3897450000000  0.6394650000000  0.5993200000000 1.0
C      1  0.4916120000000  0.6732540000000  0.4039780000000 1.0
C      1  0.5930970000000  0.6461320000000  0.5942290000000 1.0
C      1  0.6616930000000  0.5657190000000  0.4077960000000 1.0
C      1  0.6807170000000  0.4589680000000  0.5946690000000 1.0
C      1  0.6266780000000  0.3582550000000  0.4049540000000 1.0
C      1  0.5202930000000  0.3055910000000  0.5958760000000 1.0
C      1  0.3997770000000  0.3307310000000  0.4023790000000 1.0
C      1  0.3215140000000  0.4267400000000  0.5992110000000 1.0
C      1  0.6211390000000  0.5966220000000  0.3061680000000 1.0
C      1  0.6558120000000  0.5070150000000  0.6945700000000 1.0
C      1  0.6314810000000  0.4135720000000  0.3058720000000 1.0
C      1  0.5573400000000  0.3501890000000  0.6938330000000 1.0
C      1  0.4583890000000  0.3425830000000  0.3054340000000 1.0
C      1  0.3746180000000  0.3960540000000  0.6948350000000 1.0
C      1  0.3383150000000  0.4877730000000  0.3036640000000 1.0
C      1  0.3630300000000  0.5846370000000  0.6951840000000 1.0
C      1  0.4413520000000  0.6472030000000  0.3053920000000 1.0
C      1  0.5398720000000  0.6510510000000  0.6945920000000 1.0
C      1  0.6048320000000  0.3669970000000  0.5136790000000 1.0
C      1  0.5011410000000  0.3282940000000  0.4881550000000 1.0
C      1  0.3950040000000  0.3623410000000  0.5094930000000 1.0
C      1  0.3345970000000  0.4574830000000  0.4944270000000 1.0
C      1  0.3314280000000  0.5708640000000  0.5024600000000 1.0
C      1  0.3959170000000  0.6644940000000  0.4948150000000 1.0
C      1  0.5048750000000  0.6960810000000  0.5088900000000 1.0
C      1  0.6107110000000  0.6579830000000  0.4882600000000 1.0
C      1  0.6725680000000  0.5660110000000  0.5163420000000 1.0
C      1  0.6684910000000  0.4566100000000  0.4841280000000 1.0
END
