TITL C-3036485-3770-640 2.13093585452083e-05 3375 -340.441219664001 0 0 60 (Ci) n - 1
REM
REM in /home/bkarasulu/work/CARBON/AIRSS/Generating-Clusters/REBO/Higher-Symm/Only-C60
REM
REM
REM
REM
REM
REM ./C.cell (a2850807a9bf4ad07a5b6933b78d9264)
REM AIRSS Version 0.9.1 bugfix July 2018 build 013d7b7c2542+ Fri, 06 Jul 2018 19:26:36 +0100
REM compiler GCC version 9.2.1 20190827 (Red Hat 9.2.1-1)
REM options -cpp -mtune=generic -march=x86-64 -g -O0 -fpre-include=/usr/include/finclude/math-vector-fortran.h
REM seed 699025481 1235765252 -772126239 -1485421019 1958657964 -989872620 2079454340 -237859223 975255334 -2031926889 661875542 1573616493 1560433586 -27735311 -552904517 817803429 427573135 1496792242 -1952663262 -1767184319 -94699902 -2081660604 -151812351 709119202 -436797767 1726414214 418153060 47365637 -356639056 1586698607 770093668 -600145295 -852924613
REM
CELL 1.54180   15.00000   15.00000   15.00000   90.00000   90.00000   90.00000
LATT -1
SFAC C  
C      1  0.4799800000000  0.2994510000000  0.3027910000000 1.0
C      1  0.5176550000000  0.3085930000000  0.6924980000000 1.0
C      1  0.4823520000000  0.6914100000000  0.3075030000000 1.0
C      1  0.5200120000000  0.7005520000000  0.6972140000000 1.0
C      1  0.5717680000000  0.7002720000000  0.4482560000000 1.0
C      1  0.4359810000000  0.6932020000000  0.5551400000000 1.0
C      1  0.5640080000000  0.3068080000000  0.4448610000000 1.0
C      1  0.4282220000000  0.2997150000000  0.5517530000000 1.0
C      1  0.4419990000000  0.2552270000000  0.4560780000000 1.0
C      1  0.5554460000000  0.2636070000000  0.5417380000000 1.0
C      1  0.4445480000000  0.7363990000000  0.4582610000000 1.0
C      1  0.5579940000000  0.7447750000000  0.5439240000000 1.0
C      1  0.4932700000000  0.4518370000000  0.5980700000000 1.0
C      1  0.4900400000000  0.4387070000000  0.4008810000000 1.0
C      1  0.5099550000000  0.5612930000000  0.5991300000000 1.0
C      1  0.5067250000000  0.5481640000000  0.4019350000000 1.0
C      1  0.2987760000000  0.5392790000000  0.5648260000000 1.0
C      1  0.7260050000000  0.5626270000000  0.4323690000000 1.0
C      1  0.2739930000000  0.4373740000000  0.5676200000000 1.0
C      1  0.7012260000000  0.4607170000000  0.4351630000000 1.0
C      1  0.3416970000000  0.6416950000000  0.5625810000000 1.0
C      1  0.6678100000000  0.6547890000000  0.4442360000000 1.0
C      1  0.3321870000000  0.3452110000000  0.5557720000000 1.0
C      1  0.6583000000000  0.3583030000000  0.4374120000000 1.0
C      1  0.4530590000000  0.6030590000000  0.4862060000000 1.0
C      1  0.5640280000000  0.6037540000000  0.5099810000000 1.0
C      1  0.4359790000000  0.3962330000000  0.4900340000000 1.0
C      1  0.5469490000000  0.3969500000000  0.5138030000000 1.0
C      1  0.3058030000000  0.6672970000000  0.4579240000000 1.0
C      1  0.6931050000000  0.6720800000000  0.5538100000000 1.0
C      1  0.3068810000000  0.3279150000000  0.4462030000000 1.0
C      1  0.6941990000000  0.3326940000000  0.5420660000000 1.0
C      1  0.4671780000000  0.7341080000000  0.6415960000000 1.0
C      1  0.5344520000000  0.7301410000000  0.3600110000000 1.0
C      1  0.4655510000000  0.2698590000000  0.6399970000000 1.0
C      1  0.5328130000000  0.2658930000000  0.3584080000000 1.0
C      1  0.5690110000000  0.3952880000000  0.6570880000000 1.0
C      1  0.4244180000000  0.3839100000000  0.3353970000000 1.0
C      1  0.5755760000000  0.6160910000000  0.6646140000000 1.0
C      1  0.4309960000000  0.6047140000000  0.3429060000000 1.0
C      1  0.5953610000000  0.4488850000000  0.4012470000000 1.0
C      1  0.3822790000000  0.4387060000000  0.6039510000000 1.0
C      1  0.6177140000000  0.5612980000000  0.3960520000000 1.0
C      1  0.4046360000000  0.5511170000000  0.5987530000000 1.0
C      1  0.3450040000000  0.4508040000000  0.4775320000000 1.0
C      1  0.6348130000000  0.4503140000000  0.5291790000000 1.0
C      1  0.3651980000000  0.5496820000000  0.4708190000000 1.0
C      1  0.6550060000000  0.5491880000000  0.5224650000000 1.0
C      1  0.6923430000000  0.4138310000000  0.6111230000000 1.0
C      1  0.2898800000000  0.4151220000000  0.3932440000000 1.0
C      1  0.7101480000000  0.5848730000000  0.6067440000000 1.0
C      1  0.3076670000000  0.5861620000000  0.3888730000000 1.0
C      1  0.6143140000000  0.7025080000000  0.6032550000000 1.0
C      1  0.3879280000000  0.6909820000000  0.4013430000000 1.0
C      1  0.6120740000000  0.3090180000000  0.5986520000000 1.0
C      1  0.3856780000000  0.2974970000000  0.3967500000000 1.0
C      1  0.6501210000000  0.4605280000000  0.6898630000000 1.0
C      1  0.3421390000000  0.4453130000000  0.3147230000000 1.0
C      1  0.6578670000000  0.5546970000000  0.6852540000000 1.0
C      1  0.3498830000000  0.5394800000000  0.3101250000000 1.0
END
