TITL C-3036481-494-783 0.0016324589411815 3375 -344.326260820562 0 0 60 (C1) n - 1
REM
REM in /home/bkarasulu/work/CARBON/AIRSS/Generating-Clusters/REBO/Higher-Symm/Only-C60
REM
REM
REM
REM
REM
REM ./C.cell (a2850807a9bf4ad07a5b6933b78d9264)
REM AIRSS Version 0.9.1 bugfix July 2018 build 013d7b7c2542+ Fri, 06 Jul 2018 19:26:36 +0100
REM compiler GCC version 9.2.1 20190827 (Red Hat 9.2.1-1)
REM options -cpp -mtune=generic -march=x86-64 -g -O0 -fpre-include=/usr/include/finclude/math-vector-fortran.h
REM seed -1474527921 -36304635 348060584 2086280717 1519321664 -1877865072 -1576425916 521265272 -1404658222 -1578011780 1563632938 472819617 -1918762274 -1144083415 813716995 1000820598 -441807510 -1939002464 1391455792 -1045607276 106810575 2055396192 983649807 -1027076340 -1852037486 1985826502 -1294918282 564491481 1913649408 -281718257 1583897176 -1545369461 -861913674
REM
CELL 1.54180   15.00000   15.00000   15.00000   90.00000   90.00000   90.00000
LATT -1
SFAC C  
C      1  0.4809060000000  0.3055380000000  0.7378450000000 1.0
C      1  0.4369930000000  0.3292690000000  0.5871540000000 1.0
C      1  0.5272100000000  0.3100280000000  0.4340880000000 1.0
C      1  0.3571880000000  0.3441090000000  0.5072900000000 1.0
C      1  0.4946680000000  0.6921010000000  0.6033550000000 1.0
C      1  0.3666600000000  0.4678980000000  0.6543900000000 1.0
C      1  0.2929100000000  0.6107180000000  0.4597660000000 1.0
C      1  0.5968000000000  0.4321360000000  0.2969650000000 1.0
C      1  0.2742550000000  0.3992490000000  0.4546790000000 1.0
C      1  0.5505810000000  0.2287620000000  0.4873320000000 1.0
C      1  0.6001840000000  0.5383340000000  0.4857240000000 1.0
C      1  0.5397470000000  0.4665640000000  0.4945300000000 1.0
C      1  0.6552710000000  0.6208250000000  0.5774640000000 1.0
C      1  0.6122070000000  0.5376980000000  0.2964820000000 1.0
C      1  0.4315230000000  0.4613980000000  0.5088020000000 1.0
C      1  0.4392950000000  0.4845100000000  0.2996710000000 1.0
C      1  0.5043310000000  0.6394360000000  0.6989850000000 1.0
C      1  0.4465600000000  0.5838550000000  0.2544210000000 1.0
C      1  0.6928020000000  0.5645850000000  0.3592400000000 1.0
C      1  0.6299150000000  0.2528740000000  0.5580160000000 1.0
C      1  0.6695890000000  0.3849170000000  0.3379820000000 1.0
C      1  0.5312660000000  0.3098920000000  0.5673160000000 1.0
C      1  0.6182840000000  0.6506590000000  0.4813170000000 1.0
C      1  0.4221740000000  0.3809040000000  0.6751910000000 1.0
C      1  0.6889280000000  0.5115730000000  0.4372760000000 1.0
C      1  0.6826250000000  0.4426800000000  0.5277680000000 1.0
C      1  0.5186630000000  0.5317980000000  0.3593930000000 1.0
C      1  0.3159910000000  0.5617980000000  0.6127810000000 1.0
C      1  0.5060460000000  0.4067700000000  0.3069250000000 1.0
C      1  0.6308790000000  0.3620500000000  0.5885460000000 1.0
C      1  0.3627850000000  0.2532150000000  0.5638600000000 1.0
C      1  0.5654030000000  0.6555730000000  0.3468980000000 1.0
C      1  0.4679400000000  0.3492990000000  0.3717370000000 1.0
C      1  0.5462300000000  0.7282320000000  0.4859380000000 1.0
C      1  0.3236650000000  0.6431020000000  0.5445970000000 1.0
C      1  0.3546770000000  0.5542100000000  0.3161010000000 1.0
C      1  0.6226610000000  0.4016550000000  0.6811560000000 1.0
C      1  0.5986920000000  0.6693150000000  0.6420810000000 1.0
C      1  0.3198790000000  0.4649850000000  0.3727250000000 1.0
C      1  0.6744720000000  0.5281390000000  0.5959110000000 1.0
C      1  0.4165480000000  0.6827260000000  0.3942390000000 1.0
C      1  0.6571200000000  0.6522030000000  0.3814640000000 1.0
C      1  0.4959700000000  0.6111710000000  0.5243250000000 1.0
C      1  0.4314680000000  0.5581510000000  0.6784760000000 1.0
C      1  0.3968250000000  0.7013680000000  0.5550750000000 1.0
C      1  0.4505990000000  0.7306510000000  0.4763030000000 1.0
C      1  0.3387010000000  0.6335360000000  0.3802870000000 1.0
C      1  0.2716620000000  0.5124840000000  0.4627120000000 1.0
C      1  0.6725130000000  0.3811480000000  0.4324240000000 1.0
C      1  0.3969040000000  0.3998730000000  0.4207010000000 1.0
C      1  0.6408440000000  0.4948380000000  0.6784970000000 1.0
C      1  0.5573960000000  0.5434460000000  0.7163250000000 1.0
C      1  0.4190150000000  0.5525530000000  0.5658630000000 1.0
C      1  0.5377820000000  0.6156430000000  0.2585970000000 1.0
C      1  0.4781550000000  0.4666920000000  0.7265160000000 1.0
C      1  0.5437240000000  0.3815410000000  0.7287310000000 1.0
C      1  0.5791200000000  0.3841560000000  0.4679250000000 1.0
C      1  0.4991310000000  0.6183830000000  0.4241270000000 1.0
C      1  0.5441590000000  0.5541720000000  0.6048600000000 1.0
C      1  0.3215090000000  0.4646110000000  0.5508540000000 1.0
END
