TITL C-3036484-3770-834 -4.90484108813164e-05 3375 -350.071572066394 0 0 60 (C2) n - 1
REM
REM in /home/bkarasulu/work/CARBON/AIRSS/Generating-Clusters/REBO/Higher-Symm/Only-C60
REM
REM
REM
REM
REM
REM ./C.cell (a2850807a9bf4ad07a5b6933b78d9264)
REM AIRSS Version 0.9.1 bugfix July 2018 build 013d7b7c2542+ Fri, 06 Jul 2018 19:26:36 +0100
REM compiler GCC version 9.2.1 20190827 (Red Hat 9.2.1-1)
REM options -cpp -mtune=generic -march=x86-64 -g -O0 -fpre-include=/usr/include/finclude/math-vector-fortran.h
REM seed -909587718 2100166320 -39094866 1043843624 -1734331812 1019194492 444378897 -1354263612 1405369898 1789147904 191062167 1012694287 -2072367631 310225002 242433335 -1866848825 1139780729 1750129128 673121788 -339548778 516700317 -1033871061 694405963 -364291639 -283771796 -1040216782 1272198800 -529770777 330722895 7000515 -1302118419 -1966759103 -1330978551
REM
CELL 1.54180   15.00000   15.00000   15.00000   90.00000   90.00000   90.00000
LATT -1
SFAC C  
C      1  0.4334590000000  0.3445700000000  0.7330700000000 1.0
C      1  0.5665370000000  0.3445710000000  0.2669290000000 1.0
C      1  0.4366610000000  0.6196450000000  0.7584570000000 1.0
C      1  0.5633450000000  0.6196410000000  0.2415410000000 1.0
C      1  0.4996890000000  0.3193220000000  0.6031400000000 1.0
C      1  0.5003070000000  0.3193230000000  0.3968570000000 1.0
C      1  0.4989930000000  0.6838490000000  0.6061570000000 1.0
C      1  0.5010100000000  0.6838510000000  0.3938460000000 1.0
C      1  0.4201690000000  0.5821680000000  0.6527160000000 1.0
C      1  0.5798330000000  0.5821690000000  0.3472850000000 1.0
C      1  0.4157100000000  0.4137000000000  0.6448080000000 1.0
C      1  0.5842890000000  0.4137000000000  0.3551920000000 1.0
C      1  0.3408990000000  0.4529380000000  0.4530010000000 1.0
C      1  0.6591000000000  0.4529350000000  0.5469980000000 1.0
C      1  0.3409130000000  0.5527950000000  0.4544850000000 1.0
C      1  0.6590880000000  0.5527920000000  0.5455150000000 1.0
C      1  0.4048580000000  0.4494960000000  0.3001800000000 1.0
C      1  0.5951390000000  0.4494920000000  0.6998200000000 1.0
C      1  0.4003910000000  0.5628310000000  0.3009650000000 1.0
C      1  0.5996110000000  0.5628260000000  0.6990370000000 1.0
C      1  0.4193120000000  0.6609120000000  0.3546500000000 1.0
C      1  0.5806910000000  0.6609070000000  0.6453530000000 1.0
C      1  0.4233420000000  0.3494930000000  0.3526580000000 1.0
C      1  0.5766550000000  0.3494890000000  0.6473400000000 1.0
C      1  0.6874970000000  0.4192080000000  0.6453490000000 1.0
C      1  0.3125000000000  0.4192130000000  0.3546500000000 1.0
C      1  0.6911980000000  0.5904540000000  0.6414600000000 1.0
C      1  0.3088030000000  0.5904600000000  0.3585410000000 1.0
C      1  0.6555320000000  0.6749970000000  0.4930780000000 1.0
C      1  0.3444710000000  0.6750000000000  0.5069250000000 1.0
C      1  0.6587790000000  0.3292040000000  0.4981500000000 1.0
C      1  0.3412190000000  0.3292070000000  0.5018480000000 1.0
C      1  0.5611820000000  0.4134100000000  0.5315140000000 1.0
C      1  0.4388160000000  0.4134120000000  0.4684840000000 1.0
C      1  0.5608060000000  0.5905760000000  0.5338610000000 1.0
C      1  0.4391960000000  0.5905770000000  0.4661400000000 1.0
C      1  0.4429430000000  0.6675110000000  0.5344630000000 1.0
C      1  0.5570600000000  0.6675110000000  0.4655390000000 1.0
C      1  0.4396200000000  0.3341740000000  0.5339580000000 1.0
C      1  0.5603770000000  0.3341740000000  0.4660390000000 1.0
C      1  0.3343050000000  0.6812800000000  0.4104100000000 1.0
C      1  0.6656980000000  0.6812760000000  0.5895930000000 1.0
C      1  0.3352960000000  0.3271270000000  0.4042960000000 1.0
C      1  0.6647000000000  0.3271230000000  0.5957020000000 1.0
C      1  0.4942700000000  0.4531680000000  0.5830240000000 1.0
C      1  0.5057300000000  0.4531690000000  0.4169740000000 1.0
C      1  0.4957970000000  0.5475820000000  0.5864280000000 1.0
C      1  0.5042040000000  0.5475840000000  0.4135720000000 1.0
C      1  0.7065980000000  0.4114770000000  0.4590650000000 1.0
C      1  0.2934010000000  0.4114800000000  0.5409340000000 1.0
C      1  0.7026930000000  0.5929370000000  0.4544980000000 1.0
C      1  0.2973090000000  0.5929400000000  0.5455040000000 1.0
C      1  0.3303380000000  0.5479110000000  0.6215870000000 1.0
C      1  0.6696630000000  0.5479090000000  0.3784130000000 1.0
C      1  0.3280490000000  0.4526690000000  0.6187640000000 1.0
C      1  0.6719510000000  0.4526680000000  0.3812360000000 1.0
C      1  0.5004100000000  0.5390350000000  0.2765080000000 1.0
C      1  0.4995900000000  0.5390330000000  0.7234930000000 1.0
C      1  0.5102210000000  0.4355660000000  0.2733440000000 1.0
C      1  0.4897760000000  0.4355650000000  0.7266580000000 1.0
END
