TITL C-3036485-3770-1149 -4.84124537489035e-06 3375 -344.7055657556 0 0 60 (C1) n - 1
REM
REM in /home/bkarasulu/work/CARBON/AIRSS/Generating-Clusters/REBO/Higher-Symm/Only-C60
REM
REM
REM
REM
REM
REM ./C.cell (a2850807a9bf4ad07a5b6933b78d9264)
REM AIRSS Version 0.9.1 bugfix July 2018 build 013d7b7c2542+ Fri, 06 Jul 2018 19:26:36 +0100
REM compiler GCC version 9.2.1 20190827 (Red Hat 9.2.1-1)
REM options -cpp -mtune=generic -march=x86-64 -g -O0 -fpre-include=/usr/include/finclude/math-vector-fortran.h
REM seed -464619169 520601734 -1342280660 295241272 -540318246 -68061375 -1616108319 317476465 -1635567200 1740511370 549517377 -278765325 1782692639 -666200035 1862199878 1700814815 1012517686 -1409822750 1338965179 590789568 -235973880 -1603166954 -224285514 -2098424190 1471990185 -1491287748 829113454 943612630 -1687332172 -1548649031 -2072742489 -1746124144 -1998500348
REM
CELL 1.54180   15.00000   15.00000   15.00000   90.00000   90.00000   90.00000
LATT -1
SFAC C  
C      1  0.5152950000000  0.2670430000000  0.4263740000000 1.0
C      1  0.5125060000000  0.4599670000000  0.6372300000000 1.0
C      1  0.4890020000000  0.3069630000000  0.5942970000000 1.0
C      1  0.5199250000000  0.3067660000000  0.2658660000000 1.0
C      1  0.4453410000000  0.5997210000000  0.7520560000000 1.0
C      1  0.6057270000000  0.5859730000000  0.6695110000000 1.0
C      1  0.5627400000000  0.6868980000000  0.3499270000000 1.0
C      1  0.4263460000000  0.7032540000000  0.5053170000000 1.0
C      1  0.3575560000000  0.3865900000000  0.3662490000000 1.0
C      1  0.6445240000000  0.3458950000000  0.5967840000000 1.0
C      1  0.5816360000000  0.4599880000000  0.5699740000000 1.0
C      1  0.5704180000000  0.7370130000000  0.5862860000000 1.0
C      1  0.5197110000000  0.4019920000000  0.2576520000000 1.0
C      1  0.6209360000000  0.6033250000000  0.4751260000000 1.0
C      1  0.7194980000000  0.5908360000000  0.5198910000000 1.0
C      1  0.4722440000000  0.2695130000000  0.3397460000000 1.0
C      1  0.4276240000000  0.5501350000000  0.5882120000000 1.0
C      1  0.6616810000000  0.5367430000000  0.5876590000000 1.0
C      1  0.4353900000000  0.4446830000000  0.2752680000000 1.0
C      1  0.7320940000000  0.5606980000000  0.4177840000000 1.0
C      1  0.5030190000000  0.5569280000000  0.6676640000000 1.0
C      1  0.4394170000000  0.4917410000000  0.3646700000000 1.0
C      1  0.3085590000000  0.5438990000000  0.3530170000000 1.0
C      1  0.2638220000000  0.5124510000000  0.5126970000000 1.0
C      1  0.5543430000000  0.6824980000000  0.6614230000000 1.0
C      1  0.5878750000000  0.3286040000000  0.4433930000000 1.0
C      1  0.4568400000000  0.2654060000000  0.5022650000000 1.0
C      1  0.6715940000000  0.3980920000000  0.3250180000000 1.0
C      1  0.3539790000000  0.5011030000000  0.6614670000000 1.0
C      1  0.5619450000000  0.3339950000000  0.6427610000000 1.0
C      1  0.6664620000000  0.5856290000000  0.3511640000000 1.0
C      1  0.4361270000000  0.5290770000000  0.4916300000000 1.0
C      1  0.4335050000000  0.4251770000000  0.7362990000000 1.0
C      1  0.4603690000000  0.6806610000000  0.6870340000000 1.0
C      1  0.6772430000000  0.3577720000000  0.4106400000000 1.0
C      1  0.6998770000000  0.4366940000000  0.6227680000000 1.0
C      1  0.3319010000000  0.5338890000000  0.4534870000000 1.0
C      1  0.5270860000000  0.7255230000000  0.5031400000000 1.0
C      1  0.4795370000000  0.5840550000000  0.3664910000000 1.0
C      1  0.4127410000000  0.3644470000000  0.5311180000000 1.0
C      1  0.5575890000000  0.4033600000000  0.4925380000000 1.0
C      1  0.5451080000000  0.4052750000000  0.7252120000000 1.0
C      1  0.3196950000000  0.6827120000000  0.4722580000000 1.0
C      1  0.5372230000000  0.5029280000000  0.4532360000000 1.0
C      1  0.6891660000000  0.4072840000000  0.5121620000000 1.0
C      1  0.5771590000000  0.5320400000000  0.3508740000000 1.0
C      1  0.4018850000000  0.6788410000000  0.6102380000000 1.0
C      1  0.6508190000000  0.4934080000000  0.4617410000000 1.0
C      1  0.3278260000000  0.5987180000000  0.6135140000000 1.0
C      1  0.4279950000000  0.6510390000000  0.4040700000000 1.0
C      1  0.5743510000000  0.6746190000000  0.4389090000000 1.0
C      1  0.4088450000000  0.4261080000000  0.4525850000000 1.0
C      1  0.3809400000000  0.2980880000000  0.3431120000000 1.0
C      1  0.2703800000000  0.6429170000000  0.5386470000000 1.0
C      1  0.5945640000000  0.4469670000000  0.2959360000000 1.0
C      1  0.3265660000000  0.4616830000000  0.3025410000000 1.0
C      1  0.3911530000000  0.5171890000000  0.7621590000000 1.0
C      1  0.3289360000000  0.6424900000000  0.3770740000000 1.0
C      1  0.6281830000000  0.4786360000000  0.7003150000000 1.0
C      1  0.4151820000000  0.4140580000000  0.6235250000000 1.0
END
