TITL C-3036484-3770-590 0.0302859909877447 3375 -346.242810162777 0 0 60 (C1) n - 1
REM
REM in /home/bkarasulu/work/CARBON/AIRSS/Generating-Clusters/REBO/Higher-Symm/Only-C60
REM
REM
REM
REM
REM
REM ./C.cell (a2850807a9bf4ad07a5b6933b78d9264)
REM AIRSS Version 0.9.1 bugfix July 2018 build 013d7b7c2542+ Fri, 06 Jul 2018 19:26:36 +0100
REM compiler GCC version 9.2.1 20190827 (Red Hat 9.2.1-1)
REM options -cpp -mtune=generic -march=x86-64 -g -O0 -fpre-include=/usr/include/finclude/math-vector-fortran.h
REM seed -1792156102 -34878016 56546526 818462123 870626030 1150754628 -1674987686 -57392089 -1305307982 -1134157670 461483939 973322195 -206385319 -1719822159 2144130227 850083937 1496288818 -563386138 340786738 -753827469 -1260450683 -257413934 1872056266 259875725 1399815525 -878613395 1264049865 931411800 -384821846 105061031 2024770914 -1830827693 -674310251
REM
CELL 1.54180   15.00000   15.00000   15.00000   90.00000   90.00000   90.00000
LATT -1
SFAC C  
C      1  0.5915690000000  0.2799390000000  0.4202120000000 1.0
C      1  0.5334980000000  0.3185120000000  0.3506900000000 1.0
C      1  0.5858120000000  0.6421520000000  0.6516820000000 1.0
C      1  0.4544480000000  0.2784450000000  0.5322580000000 1.0
C      1  0.5479790000000  0.5068290000000  0.4436840000000 1.0
C      1  0.4739660000000  0.4438030000000  0.4944790000000 1.0
C      1  0.3757120000000  0.4329490000000  0.7370850000000 1.0
C      1  0.5512190000000  0.5368620000000  0.3596940000000 1.0
C      1  0.6544310000000  0.4104540000000  0.4972450000000 1.0
C      1  0.4454790000000  0.5153170000000  0.2520260000000 1.0
C      1  0.6310130000000  0.2903140000000  0.5971120000000 1.0
C      1  0.3155670000000  0.4158710000000  0.5655900000000 1.0
C      1  0.3915410000000  0.3861860000000  0.3121880000000 1.0
C      1  0.6455260000000  0.3687080000000  0.4022650000000 1.0
C      1  0.5576670000000  0.2766530000000  0.5161060000000 1.0
C      1  0.3079770000000  0.4559000000000  0.6559960000000 1.0
C      1  0.3173090000000  0.3776210000000  0.4580800000000 1.0
C      1  0.4621200000000  0.3862510000000  0.7172880000000 1.0
C      1  0.6795560000000  0.4591330000000  0.6377040000000 1.0
C      1  0.3189980000000  0.5689970000000  0.5000750000000 1.0
C      1  0.3536190000000  0.4452880000000  0.3783960000000 1.0
C      1  0.4173400000000  0.5056520000000  0.4214300000000 1.0
C      1  0.5503060000000  0.4054060000000  0.6472830000000 1.0
C      1  0.4473810000000  0.3220650000000  0.6363120000000 1.0
C      1  0.5661010000000  0.5678480000000  0.7265050000000 1.0
C      1  0.6599510000000  0.6289570000000  0.5916500000000 1.0
C      1  0.4131340000000  0.3807790000000  0.5500980000000 1.0
C      1  0.5445540000000  0.4575650000000  0.7490900000000 1.0
C      1  0.4072060000000  0.6979120000000  0.6030610000000 1.0
C      1  0.5818790000000  0.5101820000000  0.6334740000000 1.0
C      1  0.3755610000000  0.7148070000000  0.5124140000000 1.0
C      1  0.5411700000000  0.5470010000000  0.5442710000000 1.0
C      1  0.5155300000000  0.6618540000000  0.2602580000000 1.0
C      1  0.6504360000000  0.6855840000000  0.5006450000000 1.0
C      1  0.5042480000000  0.4582220000000  0.2624560000000 1.0
C      1  0.4216860000000  0.6103340000000  0.2882300000000 1.0
C      1  0.2847170000000  0.4835240000000  0.4848270000000 1.0
C      1  0.5541250000000  0.3863160000000  0.5456430000000 1.0
C      1  0.5189670000000  0.6522900000000  0.4182050000000 1.0
C      1  0.5014400000000  0.6854620000000  0.6110880000000 1.0
C      1  0.3947140000000  0.3025430000000  0.4441920000000 1.0
C      1  0.3697060000000  0.5703940000000  0.5826750000000 1.0
C      1  0.5466590000000  0.6464070000000  0.5243440000000 1.0
C      1  0.3445990000000  0.6374710000000  0.6595790000000 1.0
C      1  0.3548880000000  0.6432940000000  0.4512730000000 1.0
C      1  0.6768250000000  0.5359910000000  0.4043620000000 1.0
C      1  0.4256610000000  0.7075280000000  0.2296560000000 1.0
C      1  0.4525740000000  0.5292130000000  0.6023840000000 1.0
C      1  0.4655790000000  0.5260340000000  0.7064680000000 1.0
C      1  0.5725770000000  0.4052250000000  0.3104220000000 1.0
C      1  0.6768390000000  0.3706460000000  0.5943600000000 1.0
C      1  0.3569560000000  0.5421540000000  0.7119150000000 1.0
C      1  0.6901260000000  0.5045760000000  0.4907050000000 1.0
C      1  0.5750300000000  0.7432240000000  0.4379390000000 1.0
C      1  0.4388260000000  0.3157370000000  0.3584130000000 1.0
C      1  0.4317980000000  0.6084570000000  0.3908860000000 1.0
C      1  0.6350330000000  0.6303340000000  0.4026670000000 1.0
C      1  0.6598300000000  0.4613480000000  0.3465440000000 1.0
C      1  0.5826220000000  0.6192810000000  0.3062970000000 1.0
C      1  0.6984200000000  0.5421960000000  0.5781220000000 1.0
END
