TITL C-3036483-1610-402 -6.00122610772711e-05 3375 -341.474495788717 0 0 60 (S4) n - 1
REM
REM in /home/bkarasulu/work/CARBON/AIRSS/Generating-Clusters/REBO/Higher-Symm/Only-C60
REM
REM
REM
REM
REM
REM ./C.cell (a2850807a9bf4ad07a5b6933b78d9264)
REM AIRSS Version 0.9.1 bugfix July 2018 build 013d7b7c2542+ Fri, 06 Jul 2018 19:26:36 +0100
REM compiler GCC version 9.2.1 20190827 (Red Hat 9.2.1-1)
REM options -cpp -mtune=generic -march=x86-64 -g -O0 -fpre-include=/usr/include/finclude/math-vector-fortran.h
REM seed -863574417 922162745 1137653873 -1710249530 -406927155 -574870900 -54593556 583190596 852005143 -438305878 -1852281791 1839127254 -777155002 -812221346 596360877 -1502895068 -1953439873 -1317669704 -1180874192 1564510979 -2024108066 1474201535 1009722391 -475003364 981623756 1265954531 1896895930 -1080580545 -1027109122 359516108 -2131064779 1206072868 2063072357
REM
CELL 1.54180   15.00000   15.00000   15.00000   90.00000   90.00000   90.00000
LATT -1
SFAC C  
C      1  0.4227830000000  0.5246910000000  0.4062090000000 1.0
C      1  0.4786640000000  0.4294520000000  0.4070730000000 1.0
C      1  0.5772150000000  0.4753130000000  0.4062100000000 1.0
C      1  0.5213380000000  0.5705430000000  0.4070710000000 1.0
C      1  0.4318690000000  0.5208220000000  0.5904250000000 1.0
C      1  0.4746380000000  0.4209850000000  0.5910610000000 1.0
C      1  0.5681300000000  0.4791780000000  0.5904260000000 1.0
C      1  0.5253600000000  0.5790170000000  0.5910600000000 1.0
C      1  0.3390180000000  0.3368490000000  0.4512980000000 1.0
C      1  0.6604710000000  0.3395180000000  0.4542390000000 1.0
C      1  0.6609820000000  0.6631510000000  0.4512970000000 1.0
C      1  0.3395310000000  0.6604780000000  0.4542370000000 1.0
C      1  0.3395910000000  0.3395060000000  0.5431230000000 1.0
C      1  0.6633040000000  0.3389810000000  0.5461290000000 1.0
C      1  0.6604090000000  0.6604940000000  0.5431230000000 1.0
C      1  0.3366980000000  0.6610190000000  0.5461310000000 1.0
C      1  0.6972050000000  0.5190680000000  0.3317740000000 1.0
C      1  0.4803760000000  0.6924000000000  0.3288240000000 1.0
C      1  0.3027950000000  0.4809310000000  0.3317730000000 1.0
C      1  0.5196220000000  0.3075980000000  0.3288240000000 1.0
C      1  0.6920640000000  0.5194540000000  0.6684660000000 1.0
C      1  0.4807330000000  0.6975350000000  0.6658330000000 1.0
C      1  0.3079360000000  0.4805460000000  0.6684670000000 1.0
C      1  0.5192670000000  0.3024650000000  0.6658330000000 1.0
C      1  0.6292500000000  0.4441130000000  0.3123140000000 1.0
C      1  0.5526760000000  0.6203150000000  0.3127400000000 1.0
C      1  0.3707490000000  0.5558860000000  0.3123120000000 1.0
C      1  0.4473270000000  0.3796860000000  0.3127430000000 1.0
C      1  0.6194240000000  0.4476500000000  0.6838110000000 1.0
C      1  0.5560780000000  0.6299790000000  0.6856100000000 1.0
C      1  0.3805760000000  0.5523500000000  0.6838120000000 1.0
C      1  0.4439220000000  0.3700220000000  0.6856100000000 1.0
C      1  0.5719840000000  0.4660380000000  0.2327720000000 1.0
C      1  0.5283700000000  0.5597710000000  0.2353100000000 1.0
C      1  0.4280160000000  0.5339620000000  0.2327690000000 1.0
C      1  0.4716310000000  0.4402280000000  0.2353120000000 1.0
C      1  0.5597340000000  0.4716210000000  0.7619340000000 1.0
C      1  0.5339970000000  0.5720820000000  0.7647420000000 1.0
C      1  0.4402660000000  0.5283780000000  0.7619340000000 1.0
C      1  0.4660030000000  0.4279170000000  0.7647410000000 1.0
C      1  0.3463000000000  0.3752730000000  0.6506060000000 1.0
C      1  0.6214010000000  0.3490560000000  0.6511180000000 1.0
C      1  0.6537000000000  0.6247270000000  0.6506060000000 1.0
C      1  0.3786000000000  0.6509440000000  0.6511200000000 1.0
C      1  0.3488930000000  0.3784500000000  0.3462100000000 1.0
C      1  0.6246600000000  0.3463930000000  0.3468170000000 1.0
C      1  0.6511080000000  0.6215490000000  0.3462090000000 1.0
C      1  0.3753430000000  0.6536070000000  0.3468190000000 1.0
C      1  0.3221200000000  0.4470180000000  0.5663550000000 1.0
C      1  0.5543470000000  0.3178540000000  0.5641830000000 1.0
C      1  0.6778790000000  0.5529820000000  0.5663560000000 1.0
C      1  0.4456570000000  0.6821430000000  0.5641830000000 1.0
C      1  0.3189650000000  0.4458680000000  0.4332200000000 1.0
C      1  0.5530760000000  0.3214330000000  0.4309860000000 1.0
C      1  0.6810350000000  0.5541320000000  0.4332200000000 1.0
C      1  0.4469180000000  0.6785730000000  0.4309890000000 1.0
C      1  0.5163320000000  0.6322880000000  0.4977850000000 1.0
C      1  0.3695350000000  0.5159530000000  0.4997340000000 1.0
C      1  0.4836680000000  0.3677130000000  0.4977830000000 1.0
C      1  0.6304650000000  0.4840480000000  0.4997350000000 1.0
END
