TITL C-3036480-97-1055 0.0108647877521279 3375 -359.858218752384 0 0 60 (D5) n - 1
REM
REM in /home/bkarasulu/work/CARBON/AIRSS/Generating-Clusters/REBO/Higher-Symm/Only-C60
REM
REM
REM
REM
REM
REM ./C.cell (a2850807a9bf4ad07a5b6933b78d9264)
REM AIRSS Version 0.9.1 bugfix July 2018 build 013d7b7c2542+ Fri, 06 Jul 2018 19:26:36 +0100
REM compiler GCC version 9.2.1 20190827 (Red Hat 9.2.1-1)
REM options -cpp -mtune=generic -march=x86-64 -g -O0 -fpre-include=/usr/include/finclude/math-vector-fortran.h
REM seed -414527346 984076494 805714708 -165961867 -1741884042 1278689637 1784833673 -360284448 198908570 -251834666 1269172498 -1684417349 -1773278716 268768750 1517397317 -985641965 1082176494 1671284598 1725738616 -2083786908 458096254 2007520642 1630251521 227505355 1621054679 -614621149 1415889066 7607711 1881595919 1337380363 -1163333445 -1365693871 -1847262686
REM
CELL 1.54180   15.00000   15.00000   15.00000   90.00000   90.00000   90.00000
LATT -1
SFAC C  
C      1  0.4223430000000  0.2960960000000  0.6130240000000 1.0
C      1  0.4223310000000  0.3295160000000  0.3410030000000 1.0
C      1  0.4222980000000  0.5985470000000  0.2887160000000 1.0
C      1  0.4222950000000  0.7314150000000  0.5284280000000 1.0
C      1  0.4223190000000  0.5444850000000  0.7288570000000 1.0
C      1  0.5776570000000  0.7039040000000  0.6130240000000 1.0
C      1  0.5776680000000  0.6704840000000  0.3410030000000 1.0
C      1  0.5777030000000  0.4014530000000  0.2887180000000 1.0
C      1  0.5777050000000  0.2685850000000  0.5284280000000 1.0
C      1  0.5776810000000  0.4555150000000  0.7288570000000 1.0
C      1  0.4663100000000  0.4152240000000  0.2884890000000 1.0
C      1  0.4662890000000  0.6749560000000  0.3540210000000 1.0
C      1  0.4662770000000  0.6928790000000  0.6212770000000 1.0
C      1  0.4662900000000  0.4442700000000  0.7208880000000 1.0
C      1  0.4663100000000  0.2726730000000  0.5152660000000 1.0
C      1  0.5336900000000  0.5847770000000  0.2884860000000 1.0
C      1  0.5337110000000  0.3250440000000  0.3540210000000 1.0
C      1  0.5337230000000  0.3071210000000  0.6212770000000 1.0
C      1  0.5337100000000  0.5557300000000  0.7208880000000 1.0
C      1  0.5336900000000  0.7273270000000  0.5152660000000 1.0
C      1  0.4265020000000  0.5510560000000  0.5635640000000 1.0
C      1  0.4266030000000  0.4553260000000  0.5682130000000 1.0
C      1  0.4265540000000  0.4214090000000  0.4784870000000 1.0
C      1  0.4265480000000  0.4961310000000  0.4186080000000 1.0
C      1  0.4265430000000  0.5762010000000  0.4710990000000 1.0
C      1  0.5735010000000  0.4489440000000  0.5635640000000 1.0
C      1  0.5733990000000  0.5446740000000  0.5682130000000 1.0
C      1  0.5734470000000  0.5785940000000  0.4784890000000 1.0
C      1  0.5734780000000  0.5038490000000  0.4186130000000 1.0
C      1  0.5734550000000  0.4238040000000  0.4710960000000 1.0
C      1  0.6723540000000  0.6262700000000  0.3793470000000 1.0
C      1  0.6723320000000  0.6537900000000  0.5828260000000 1.0
C      1  0.6723170000000  0.4687460000000  0.6718540000000 1.0
C      1  0.6723130000000  0.3269130000000  0.5233980000000 1.0
C      1  0.6722870000000  0.4243000000000  0.3426180000000 1.0
C      1  0.3276460000000  0.3737300000000  0.3793470000000 1.0
C      1  0.3276680000000  0.3462100000000  0.5828260000000 1.0
C      1  0.3276830000000  0.5312540000000  0.6718540000000 1.0
C      1  0.3276870000000  0.6730870000000  0.5233980000000 1.0
C      1  0.3277130000000  0.5757030000000  0.3426150000000 1.0
C      1  0.2998980000000  0.5372760000000  0.4247100000000 1.0
C      1  0.2998970000000  0.5831060000000  0.5121970000000 1.0
C      1  0.2999450000000  0.5141030000000  0.5827690000000 1.0
C      1  0.2998570000000  0.4256200000000  0.5389350000000 1.0
C      1  0.2999110000000  0.4399110000000  0.4413180000000 1.0
C      1  0.7000770000000  0.4627350000000  0.4247030000000 1.0
C      1  0.7001040000000  0.4168910000000  0.5121990000000 1.0
C      1  0.7000520000000  0.4858960000000  0.5827680000000 1.0
C      1  0.7001410000000  0.5743790000000  0.5389360000000 1.0
C      1  0.7000870000000  0.5600860000000  0.4413190000000 1.0
C      1  0.5664240000000  0.6669880000000  0.4489140000000 1.0
C      1  0.5665170000000  0.6002300000000  0.6430300000000 1.0
C      1  0.5664850000000  0.3949600000000  0.6394910000000 1.0
C      1  0.5664020000000  0.3349210000000  0.4431860000000 1.0
C      1  0.5665830000000  0.5030030000000  0.3254680000000 1.0
C      1  0.4335770000000  0.3330130000000  0.4489140000000 1.0
C      1  0.4334830000000  0.3997700000000  0.6430300000000 1.0
C      1  0.4335160000000  0.6050400000000  0.6394910000000 1.0
C      1  0.4335980000000  0.6650800000000  0.4431870000000 1.0
C      1  0.4334150000000  0.4969980000000  0.3254680000000 1.0
END
