TITL C-3036486-2224-384 -0.00358234354659529 3375 -356.200272308652 0 0 60 (C1) n - 1
REM
REM in /home/bkarasulu/work/CARBON/AIRSS/Generating-Clusters/REBO/Higher-Symm/Only-C60
REM
REM
REM
REM
REM
REM ./C.cell (a2850807a9bf4ad07a5b6933b78d9264)
REM AIRSS Version 0.9.1 bugfix July 2018 build 013d7b7c2542+ Fri, 06 Jul 2018 19:26:36 +0100
REM compiler GCC version 9.2.1 20190827 (Red Hat 9.2.1-1)
REM options -cpp -mtune=generic -march=x86-64 -g -O0 -fpre-include=/usr/include/finclude/math-vector-fortran.h
REM seed 149182476 1079637690 391814048 1773902455 -42061863 889597589 -2111977676 -1142242051 -1110819933 -869573388 -1840325251 559321535 1530066751 -1471843539 617889429 -987959596 793429031 907199595 625453759 -257853357 915487552 1479482939 353683140 -1527884556 -670865519 1287494977 1162962531 -1462759147 2111597001 643377583 -1590166238 -277886623 1603837945
REM
CELL 1.54180   15.00000   15.00000   15.00000   90.00000   90.00000   90.00000
LATT -1
SFAC C  
C      1  0.5891760000000  0.6886320000000  0.4274650000000 1.0
C      1  0.5876620000000  0.3120070000000  0.4267200000000 1.0
C      1  0.5339410000000  0.6457090000000  0.3370320000000 1.0
C      1  0.5309790000000  0.3561440000000  0.3376990000000 1.0
C      1  0.6374800000000  0.4083890000000  0.3958950000000 1.0
C      1  0.6389940000000  0.5918840000000  0.3961750000000 1.0
C      1  0.3875730000000  0.5899820000000  0.6441980000000 1.0
C      1  0.3884110000000  0.4076200000000  0.6477390000000 1.0
C      1  0.4170500000000  0.5460610000000  0.3499110000000 1.0
C      1  0.4149080000000  0.4572260000000  0.3515840000000 1.0
C      1  0.4478750000000  0.6115890000000  0.7243060000000 1.0
C      1  0.4504340000000  0.3867400000000  0.7258520000000 1.0
C      1  0.4975450000000  0.2691230000000  0.4755690000000 1.0
C      1  0.4981110000000  0.7319980000000  0.4755400000000 1.0
C      1  0.7428010000000  0.5887410000000  0.5166140000000 1.0
C      1  0.7418620000000  0.4105720000000  0.5164280000000 1.0
C      1  0.2640520000000  0.4437220000000  0.4360100000000 1.0
C      1  0.2720660000000  0.5442160000000  0.4257490000000 1.0
C      1  0.5062650000000  0.7072660000000  0.5751650000000 1.0
C      1  0.5066360000000  0.2940600000000  0.5753020000000 1.0
C      1  0.2943290000000  0.3969530000000  0.5122010000000 1.0
C      1  0.2988820000000  0.5933960000000  0.5034630000000 1.0
C      1  0.4546780000000  0.5912340000000  0.4292830000000 1.0
C      1  0.4527970000000  0.4112490000000  0.4304270000000 1.0
C      1  0.4354140000000  0.3281180000000  0.3283140000000 1.0
C      1  0.4401460000000  0.6749390000000  0.3271540000000 1.0
C      1  0.5556790000000  0.3541730000000  0.7096920000000 1.0
C      1  0.5532940000000  0.6452530000000  0.7085680000000 1.0
C      1  0.7194090000000  0.4516030000000  0.4347570000000 1.0
C      1  0.7200940000000  0.5478690000000  0.4349180000000 1.0
C      1  0.5685070000000  0.4538940000000  0.3195360000000 1.0
C      1  0.5696060000000  0.5474060000000  0.3193530000000 1.0
C      1  0.3301310000000  0.6821120000000  0.4857070000000 1.0
C      1  0.3316760000000  0.3114880000000  0.4919820000000 1.0
C      1  0.5544940000000  0.5551710000000  0.4514190000000 1.0
C      1  0.5536680000000  0.4461440000000  0.4516080000000 1.0
C      1  0.7542360000000  0.5460020000000  0.6127840000000 1.0
C      1  0.7538620000000  0.4533180000000  0.6126620000000 1.0
C      1  0.3610230000000  0.3925020000000  0.2922940000000 1.0
C      1  0.3683080000000  0.6123290000000  0.2874790000000 1.0
C      1  0.2834410000000  0.4512250000000  0.3315940000000 1.0
C      1  0.2875160000000  0.5592130000000  0.3219510000000 1.0
C      1  0.5308410000000  0.4537650000000  0.7515330000000 1.0
C      1  0.5295010000000  0.5460600000000  0.7511580000000 1.0
C      1  0.4431550000000  0.5464810000000  0.5232180000000 1.0
C      1  0.4426400000000  0.4560090000000  0.5239090000000 1.0
C      1  0.6093320000000  0.7105070000000  0.5376180000000 1.0
C      1  0.6092770000000  0.2900210000000  0.5366600000000 1.0
C      1  0.6148750000000  0.6748690000000  0.6440580000000 1.0
C      1  0.6159690000000  0.3248280000000  0.6438150000000 1.0
C      1  0.4161590000000  0.3087750000000  0.4331440000000 1.0
C      1  0.4170340000000  0.6935750000000  0.4306910000000 1.0
C      1  0.3244810000000  0.4485700000000  0.5892510000000 1.0
C      1  0.3253030000000  0.5463860000000  0.5855860000000 1.0
C      1  0.5709840000000  0.5537370000000  0.5595960000000 1.0
C      1  0.5706110000000  0.4472680000000  0.5597030000000 1.0
C      1  0.4835800000000  0.3905470000000  0.5974930000000 1.0
C      1  0.4841860000000  0.6108400000000  0.5968910000000 1.0
C      1  0.6580770000000  0.4023040000000  0.5886830000000 1.0
C      1  0.6589860000000  0.5981850000000  0.5888960000000 1.0
END
