TITL C-3036483-1610-64 0.0212364672232543 3375 -348.484445949766 0 0 60 (C1) n - 1
REM
REM in /home/bkarasulu/work/CARBON/AIRSS/Generating-Clusters/REBO/Higher-Symm/Only-C60
REM
REM
REM
REM
REM
REM ./C.cell (a2850807a9bf4ad07a5b6933b78d9264)
REM AIRSS Version 0.9.1 bugfix July 2018 build 013d7b7c2542+ Fri, 06 Jul 2018 19:26:36 +0100
REM compiler GCC version 9.2.1 20190827 (Red Hat 9.2.1-1)
REM options -cpp -mtune=generic -march=x86-64 -g -O0 -fpre-include=/usr/include/finclude/math-vector-fortran.h
REM seed -1692846769 -395920771 -1822111312 1517322308 1949752124 -1205783636 388539860 -1697471151 -728840511 -1099583163 -1036325848 -1928579381 -1529372992 698611002 1481276306 65429950 146053671 1488278531 127978905 1853200677 1932194078 1160815840 2073120632 -1755520144 878836526 -371075614 -1230226695 -1720914325 -1693743967 836896354 -1164267055 234994741 772209901
REM
CELL 1.54180   15.00000   15.00000   15.00000   90.00000   90.00000   90.00000
LATT -1
SFAC C  
C      1  0.2916320000000  0.6044670000000  0.5834530000000 1.0
C      1  0.6681260000000  0.6113430000000  0.6834600000000 1.0
C      1  0.5747070000000  0.6140000000000  0.2571780000000 1.0
C      1  0.2953130000000  0.3934160000000  0.4149390000000 1.0
C      1  0.6654490000000  0.3884030000000  0.3225110000000 1.0
C      1  0.5741670000000  0.3856460000000  0.7402120000000 1.0
C      1  0.7030550000000  0.3892540000000  0.4229440000000 1.0
C      1  0.3331280000000  0.3936150000000  0.3148830000000 1.0
C      1  0.4676600000000  0.3861410000000  0.7297740000000 1.0
C      1  0.7031810000000  0.6113530000000  0.5822610000000 1.0
C      1  0.3358680000000  0.6051230000000  0.6804480000000 1.0
C      1  0.4693150000000  0.6147980000000  0.2737380000000 1.0
C      1  0.3303600000000  0.5180580000000  0.5409470000000 1.0
C      1  0.6280790000000  0.5218480000000  0.6440450000000 1.0
C      1  0.5586980000000  0.5259170000000  0.3137310000000 1.0
C      1  0.3309960000000  0.4821640000000  0.4547070000000 1.0
C      1  0.6278420000000  0.4787050000000  0.3608650000000 1.0
C      1  0.5566470000000  0.4742180000000  0.6868210000000 1.0
C      1  0.6679150000000  0.4791970000000  0.4607400000000 1.0
C      1  0.3756550000000  0.4811890000000  0.3572780000000 1.0
C      1  0.4501180000000  0.4749140000000  0.6783870000000 1.0
C      1  0.6684070000000  0.5208530000000  0.5444510000000 1.0
C      1  0.3762360000000  0.5180840000000  0.6374990000000 1.0
C      1  0.4514930000000  0.5241140000000  0.3203230000000 1.0
C      1  0.5416720000000  0.2487450000000  0.3110120000000 1.0
C      1  0.2974810000000  0.2667480000000  0.5669650000000 1.0
C      1  0.6438740000000  0.2451320000000  0.6388430000000 1.0
C      1  0.5364260000000  0.7443800000000  0.6885030000000 1.0
C      1  0.3021510000000  0.7287510000000  0.4317130000000 1.0
C      1  0.6475020000000  0.7446660000000  0.3642120000000 1.0
C      1  0.4533880000000  0.7485390000000  0.6936930000000 1.0
C      1  0.6941810000000  0.7457510000000  0.4332310000000 1.0
C      1  0.3367530000000  0.7333270000000  0.3559100000000 1.0
C      1  0.4588900000000  0.2546560000000  0.3118770000000 1.0
C      1  0.6809910000000  0.2505130000000  0.5646970000000 1.0
C      1  0.3446530000000  0.2669300000000  0.6356270000000 1.0
C      1  0.4398020000000  0.7047070000000  0.3182530000000 1.0
C      1  0.3701980000000  0.6981440000000  0.6354410000000 1.0
C      1  0.6799670000000  0.7022470000000  0.5357320000000 1.0
C      1  0.4376630000000  0.2920100000000  0.6893950000000 1.0
C      1  0.3690560000000  0.3004530000000  0.3552670000000 1.0
C      1  0.6898520000000  0.2886850000000  0.4625410000000 1.0
C      1  0.5528710000000  0.2953990000000  0.6833920000000 1.0
C      1  0.6261060000000  0.2967890000000  0.3671510000000 1.0
C      1  0.3166630000000  0.3025500000000  0.4622390000000 1.0
C      1  0.5584480000000  0.7067410000000  0.3092420000000 1.0
C      1  0.6284950000000  0.7030080000000  0.6428280000000 1.0
C      1  0.3055460000000  0.7005480000000  0.5393590000000 1.0
C      1  0.5862880000000  0.6856050000000  0.4819600000000 1.0
C      1  0.4413360000000  0.6928640000000  0.4269370000000 1.0
C      1  0.4653040000000  0.6796980000000  0.5808170000000 1.0
C      1  0.5926340000000  0.3208800000000  0.4939270000000 1.0
C      1  0.4612210000000  0.3104800000000  0.5879280000000 1.0
C      1  0.4439160000000  0.3203590000000  0.4267790000000 1.0
C      1  0.4107920000000  0.3136710000000  0.5160690000000 1.0
C      1  0.5557010000000  0.3207500000000  0.5746360000000 1.0
C      1  0.5323120000000  0.3256760000000  0.4189820000000 1.0
C      1  0.4054540000000  0.6912410000000  0.5071000000000 1.0
C      1  0.5350340000000  0.6902490000000  0.4103190000000 1.0
C      1  0.5533290000000  0.6822880000000  0.5718280000000 1.0
END
