TITL C-3036481-494-385 -1.34172156404048e-05 3375 -335.059494028285 0 0 60 (C2) n - 1
REM
REM in /home/bkarasulu/work/CARBON/AIRSS/Generating-Clusters/REBO/Higher-Symm/Only-C60
REM
REM
REM
REM
REM
REM ./C.cell (a2850807a9bf4ad07a5b6933b78d9264)
REM AIRSS Version 0.9.1 bugfix July 2018 build 013d7b7c2542+ Fri, 06 Jul 2018 19:26:36 +0100
REM compiler GCC version 9.2.1 20190827 (Red Hat 9.2.1-1)
REM options -cpp -mtune=generic -march=x86-64 -g -O0 -fpre-include=/usr/include/finclude/math-vector-fortran.h
REM seed -407082366 -1698070929 -1287571486 830926042 1181922158 -1909119727 2084828080 768344819 -1230448314 -1972642499 1188497705 1485952148 400022982 844735622 -184024010 -1720110884 -1372623019 -1588076684 296135199 -850818122 -102168445 -800890438 1331101362 -868345365 523053397 -1761878565 -1008672326 -1260697044 1058585300 477874681 1673732400 1130896815 929872487
REM
CELL 1.54180   15.00000   15.00000   15.00000   90.00000   90.00000   90.00000
LATT -1
SFAC C  
C      1  0.5633050000000  0.6050030000000  0.4499730000000 1.0
C      1  0.5629300000000  0.5491450000000  0.6063070000000 1.0
C      1  0.5633050000000  0.3949970000000  0.5500270000000 1.0
C      1  0.5629300000000  0.4508550000000  0.3936930000000 1.0
C      1  0.2898100000000  0.3308640000000  0.4522670000000 1.0
C      1  0.2910340000000  0.5464720000000  0.3174020000000 1.0
C      1  0.2898100000000  0.6691360000000  0.5477330000000 1.0
C      1  0.2910340000000  0.4535280000000  0.6825980000000 1.0
C      1  0.6837270000000  0.3994170000000  0.4141440000000 1.0
C      1  0.6843220000000  0.5866090000000  0.3985290000000 1.0
C      1  0.6837270000000  0.6005830000000  0.5858560000000 1.0
C      1  0.6843220000000  0.4133910000000  0.6014710000000 1.0
C      1  0.5991780000000  0.5139150000000  0.2697970000000 1.0
C      1  0.5969510000000  0.7293910000000  0.5140820000000 1.0
C      1  0.5991780000000  0.4860850000000  0.7302030000000 1.0
C      1  0.5969510000000  0.2706090000000  0.4859180000000 1.0
C      1  0.4561830000000  0.3533450000000  0.4116070000000 1.0
C      1  0.4563850000000  0.5894720000000  0.3453130000000 1.0
C      1  0.4561830000000  0.6466550000000  0.5883930000000 1.0
C      1  0.4563850000000  0.4105280000000  0.6546870000000 1.0
C      1  0.6592070000000  0.6137420000000  0.4953210000000 1.0
C      1  0.6588990000000  0.5040220000000  0.6131420000000 1.0
C      1  0.6592070000000  0.3862580000000  0.5046790000000 1.0
C      1  0.6588990000000  0.4959780000000  0.3868580000000 1.0
C      1  0.5070130000000  0.6096480000000  0.7704470000000 1.0
C      1  0.5035720000000  0.2316610000000  0.6087340000000 1.0
C      1  0.5070130000000  0.3903520000000  0.2295530000000 1.0
C      1  0.5035720000000  0.7683390000000  0.3912660000000 1.0
C      1  0.6343600000000  0.3261570000000  0.6383160000000 1.0
C      1  0.6351730000000  0.3617560000000  0.3270810000000 1.0
C      1  0.6343600000000  0.6738430000000  0.3616840000000 1.0
C      1  0.6351730000000  0.6382440000000  0.6729190000000 1.0
C      1  0.5653360000000  0.6613840000000  0.5878510000000 1.0
C      1  0.5659910000000  0.4121290000000  0.6624680000000 1.0
C      1  0.5653360000000  0.3386160000000  0.4121490000000 1.0
C      1  0.5659910000000  0.5878710000000  0.3375320000000 1.0
C      1  0.2857920000000  0.4433180000000  0.4652170000000 1.0
C      1  0.2824490000000  0.5434450000000  0.4289000000000 1.0
C      1  0.2857920000000  0.5566820000000  0.5347830000000 1.0
C      1  0.2824490000000  0.4565550000000  0.5711000000000 1.0
C      1  0.3581070000000  0.6105430000000  0.3789380000000 1.0
C      1  0.3602530000000  0.6061680000000  0.6046470000000 1.0
C      1  0.3581070000000  0.3894570000000  0.6210620000000 1.0
C      1  0.3602530000000  0.3938320000000  0.3953530000000 1.0
C      1  0.4849260000000  0.3603170000000  0.5160320000000 1.0
C      1  0.4847450000000  0.4843550000000  0.3575450000000 1.0
C      1  0.4849260000000  0.6396830000000  0.4839680000000 1.0
C      1  0.4847450000000  0.5156450000000  0.6424550000000 1.0
C      1  0.5951540000000  0.5824690000000  0.7414660000000 1.0
C      1  0.5925770000000  0.2588470000000  0.5821400000000 1.0
C      1  0.5951540000000  0.4175310000000  0.2585340000000 1.0
C      1  0.5925770000000  0.7411530000000  0.4178600000000 1.0
C      1  0.3820230000000  0.2896000000000  0.4729780000000 1.0
C      1  0.3848420000000  0.5256230000000  0.2816920000000 1.0
C      1  0.3820230000000  0.7104000000000  0.5270220000000 1.0
C      1  0.3848420000000  0.4743770000000  0.7183080000000 1.0
C      1  0.4389340000000  0.4367860000000  0.2772910000000 1.0
C      1  0.4368220000000  0.7191120000000  0.4382850000000 1.0
C      1  0.4389340000000  0.5632140000000  0.7227090000000 1.0
C      1  0.4368220000000  0.2808880000000  0.5617150000000 1.0
END
