TITL C-3036482-790-12 -7.75877748172569e-06 3375 -326.141066675483 0 0 60 (C2) n - 1
REM
REM in /home/bkarasulu/work/CARBON/AIRSS/Generating-Clusters/REBO/Higher-Symm/Only-C60
REM
REM
REM
REM
REM
REM ./C.cell (a2850807a9bf4ad07a5b6933b78d9264)
REM AIRSS Version 0.9.1 bugfix July 2018 build 013d7b7c2542+ Fri, 06 Jul 2018 19:26:36 +0100
REM compiler GCC version 9.2.1 20190827 (Red Hat 9.2.1-1)
REM options -cpp -mtune=generic -march=x86-64 -g -O0 -fpre-include=/usr/include/finclude/math-vector-fortran.h
REM seed 138584876 820462230 673676798 2995468 1842669970 -787411526 1529219813 2137029343 1723371407 1057893484 1972074369 1588433119 1999879705 1983682636 1043872820 -2117718983 -1870575264 1922813389 -1135886399 158992254 -268208512 -1565161024 -176514205 2028796721 1700834577 1354191665 -773082882 -119386611 273590787 -2095375091 1414807293 143816122 -492527460
REM
CELL 1.54180   15.00000   15.00000   15.00000   90.00000   90.00000   90.00000
LATT -1
SFAC C  
C      1  0.6684980000000  0.5747630000000  0.3547780000000 1.0
C      1  0.3315030000000  0.4252370000000  0.3547770000000 1.0
C      1  0.2574090000000  0.4910110000000  0.5253750000000 1.0
C      1  0.7425910000000  0.5089890000000  0.5253750000000 1.0
C      1  0.5521700000000  0.3516700000000  0.3605470000000 1.0
C      1  0.4478300000000  0.6483300000000  0.3605470000000 1.0
C      1  0.3781020000000  0.4863070000000  0.2747570000000 1.0
C      1  0.6218990000000  0.5136930000000  0.2747570000000 1.0
C      1  0.6286080000000  0.5019140000000  0.6886360000000 1.0
C      1  0.3713910000000  0.4980860000000  0.6886350000000 1.0
C      1  0.4544570000000  0.3195910000000  0.6271200000000 1.0
C      1  0.5455430000000  0.6804090000000  0.6271200000000 1.0
C      1  0.4615620000000  0.5302870000000  0.7037600000000 1.0
C      1  0.5384380000000  0.4697130000000  0.7037600000000 1.0
C      1  0.5913670000000  0.7059730000000  0.4702110000000 1.0
C      1  0.4086330000000  0.2940270000000  0.4702110000000 1.0
C      1  0.4132140000000  0.7250670000000  0.5955400000000 1.0
C      1  0.5867860000000  0.2749330000000  0.5955410000000 1.0
C      1  0.5959290000000  0.5409730000000  0.5655150000000 1.0
C      1  0.4040710000000  0.4590270000000  0.5655150000000 1.0
C      1  0.3738010000000  0.3665530000000  0.6075340000000 1.0
C      1  0.6261990000000  0.6334470000000  0.6075350000000 1.0
C      1  0.2912430000000  0.5863690000000  0.3928070000000 1.0
C      1  0.7087580000000  0.4136310000000  0.3928080000000 1.0
C      1  0.6270740000000  0.4444580000000  0.5385660000000 1.0
C      1  0.3729260000000  0.5555420000000  0.5385650000000 1.0
C      1  0.5072510000000  0.7224110000000  0.3988080000000 1.0
C      1  0.4927490000000  0.2775890000000  0.3988080000000 1.0
C      1  0.4902920000000  0.2676530000000  0.5355610000000 1.0
C      1  0.5097080000000  0.7323470000000  0.5355610000000 1.0
C      1  0.6017760000000  0.6664610000000  0.3659320000000 1.0
C      1  0.3982250000000  0.3335390000000  0.3659320000000 1.0
C      1  0.4438890000000  0.6210530000000  0.5654540000000 1.0
C      1  0.5561110000000  0.3789470000000  0.5654550000000 1.0
C      1  0.6682120000000  0.3390600000000  0.4247810000000 1.0
C      1  0.3317880000000  0.6609400000000  0.4247800000000 1.0
C      1  0.4980570000000  0.4432940000000  0.5061330000000 1.0
C      1  0.5019430000000  0.5567060000000  0.5061330000000 1.0
C      1  0.5222490000000  0.3829380000000  0.6675570000000 1.0
C      1  0.4777510000000  0.6170620000000  0.6675570000000 1.0
C      1  0.3295810000000  0.6812580000000  0.5328340000000 1.0
C      1  0.6704190000000  0.3187420000000  0.5328350000000 1.0
C      1  0.2960270000000  0.5003710000000  0.6316380000000 1.0
C      1  0.7039730000000  0.4996290000000  0.6316390000000 1.0
C      1  0.4178510000000  0.7197510000000  0.4684650000000 1.0
C      1  0.5821490000000  0.2802490000000  0.4684660000000 1.0
C      1  0.2761720000000  0.5941990000000  0.5700290000000 1.0
C      1  0.7238270000000  0.4058010000000  0.5700300000000 1.0
C      1  0.3691840000000  0.3974810000000  0.4784960000000 1.0
C      1  0.6308160000000  0.6025190000000  0.4784970000000 1.0
C      1  0.3970930000000  0.5016350000000  0.4421240000000 1.0
C      1  0.6029070000000  0.4983650000000  0.4421240000000 1.0
C      1  0.5547960000000  0.5685930000000  0.3399420000000 1.0
C      1  0.4452040000000  0.4314070000000  0.3399420000000 1.0
C      1  0.2771410000000  0.4863730000000  0.4239720000000 1.0
C      1  0.7228590000000  0.5136270000000  0.4239720000000 1.0
C      1  0.6949150000000  0.6703170000000  0.5456210000000 1.0
C      1  0.3050850000000  0.3296830000000  0.5456200000000 1.0
C      1  0.5294650000000  0.4406520000000  0.3975060000000 1.0
C      1  0.4705350000000  0.5593480000000  0.3975060000000 1.0
END
