TITL C-3036483-1610-986 0.0176255946421173 3375 -341.517008822065 0 0 60 (D3) n - 1
REM
REM in /home/bkarasulu/work/CARBON/AIRSS/Generating-Clusters/REBO/Higher-Symm/Only-C60
REM
REM
REM
REM
REM
REM ./C.cell (a2850807a9bf4ad07a5b6933b78d9264)
REM AIRSS Version 0.9.1 bugfix July 2018 build 013d7b7c2542+ Fri, 06 Jul 2018 19:26:36 +0100
REM compiler GCC version 9.2.1 20190827 (Red Hat 9.2.1-1)
REM options -cpp -mtune=generic -march=x86-64 -g -O0 -fpre-include=/usr/include/finclude/math-vector-fortran.h
REM seed -934320896 -813735322 -612044759 -1207593807 419528657 -10791956 11788708 2083846905 -835914880 -2112759407 -964826471 1662682130 891753766 -361634145 1609691200 1178933934 1471861061 -754249812 1138824322 -1808276372 -383423008 877869827 945291894 494967020 -1535761032 -1873498276 2119736648 -2016401317 -1582211267 471625415 572569836 -1777820765 209997573
REM
CELL 1.54180   15.00000   15.00000   15.00000   90.00000   90.00000   90.00000
LATT -1
SFAC C  
C      1  0.5965590000000  0.5532670000000  0.3894120000000 1.0
C      1  0.5988810000000  0.5693060000000  0.6013530000000 1.0
C      1  0.6001090000000  0.3775300000000  0.5104270000000 1.0
C      1  0.4033980000000  0.4466960000000  0.3894310000000 1.0
C      1  0.4012820000000  0.4307440000000  0.6013520000000 1.0
C      1  0.3999150000000  0.6225110000000  0.5104710000000 1.0
C      1  0.5090870000000  0.4448410000000  0.8199890000000 1.0
C      1  0.5084470000000  0.2523710000000  0.2922190000000 1.0
C      1  0.5099130000000  0.8027480000000  0.3876760000000 1.0
C      1  0.4908990000000  0.5551150000000  0.8200230000000 1.0
C      1  0.4915650000000  0.7476000000000  0.2922130000000 1.0
C      1  0.4900790000000  0.1972290000000  0.3876840000000 1.0
C      1  0.4480240000000  0.7002800000000  0.6085280000000 1.0
C      1  0.4499240000000  0.3068440000000  0.6187390000000 1.0
C      1  0.4494420000000  0.4958270000000  0.2720490000000 1.0
C      1  0.5518600000000  0.2998270000000  0.6084800000000 1.0
C      1  0.5499770000000  0.6930720000000  0.6187540000000 1.0
C      1  0.5505650000000  0.5041400000000  0.2720440000000 1.0
C      1  0.4175740000000  0.3425090000000  0.6998310000000 1.0
C      1  0.4158140000000  0.4078150000000  0.2625420000000 1.0
C      1  0.4164370000000  0.7521840000000  0.5362280000000 1.0
C      1  0.5823120000000  0.6575020000000  0.6998590000000 1.0
C      1  0.5842070000000  0.5921590000000  0.2625630000000 1.0
C      1  0.5834880000000  0.2478770000000  0.5363100000000 1.0
C      1  0.3742620000000  0.5685050000000  0.6992250000000 1.0
C      1  0.3743450000000  0.2957360000000  0.4600260000000 1.0
C      1  0.3725400000000  0.6386200000000  0.3405300000000 1.0
C      1  0.6257950000000  0.4314920000000  0.6992190000000 1.0
C      1  0.6256420000000  0.7042500000000  0.4600680000000 1.0
C      1  0.6274490000000  0.3613810000000  0.3405390000000 1.0
C      1  0.5098120000000  0.5466460000000  0.6164320000000 1.0
C      1  0.5114110000000  0.3758230000000  0.4823090000000 1.0
C      1  0.5075770000000  0.5777430000000  0.4015780000000 1.0
C      1  0.4902780000000  0.4534340000000  0.6164130000000 1.0
C      1  0.4885840000000  0.6241830000000  0.4823270000000 1.0
C      1  0.4924200000000  0.4222290000000  0.4015750000000 1.0
C      1  0.5631920000000  0.6707440000000  0.5227280000000 1.0
C      1  0.5642250000000  0.3945810000000  0.6375880000000 1.0
C      1  0.5662650000000  0.4334690000000  0.3396420000000 1.0
C      1  0.4367970000000  0.3292100000000  0.5227220000000 1.0
C      1  0.4358860000000  0.6054920000000  0.6376190000000 1.0
C      1  0.4337180000000  0.5665360000000  0.3396500000000 1.0
C      1  0.4080550000000  0.5138550000000  0.7689950000000 1.0
C      1  0.4075890000000  0.2625420000000  0.3776090000000 1.0
C      1  0.4076870000000  0.7258630000000  0.3529530000000 1.0
C      1  0.5919630000000  0.4861340000000  0.7690100000000 1.0
C      1  0.5924170000000  0.7374370000000  0.3776280000000 1.0
C      1  0.5923160000000  0.2741150000000  0.3529740000000 1.0
C      1  0.3171060000000  0.4132710000000  0.5857810000000 1.0
C      1  0.3192680000000  0.4689530000000  0.3815230000000 1.0
C      1  0.3160300000000  0.6180860000000  0.5343290000000 1.0
C      1  0.6829970000000  0.5867290000000  0.5858270000000 1.0
C      1  0.6807040000000  0.5310100000000  0.3815440000000 1.0
C      1  0.6839660000000  0.3819480000000  0.5342630000000 1.0
C      1  0.4258390000000  0.4098180000000  0.7636260000000 1.0
C      1  0.4252770000000  0.3191480000000  0.2899860000000 1.0
C      1  0.4258310000000  0.7729770000000  0.4459590000000 1.0
C      1  0.5741360000000  0.5901590000000  0.7636700000000 1.0
C      1  0.5747310000000  0.6808530000000  0.2900150000000 1.0
C      1  0.5741300000000  0.2270290000000  0.4459390000000 1.0
END
