TITL C-3036485-3770-589 0.0249865756823063 3375 -337.405065240981 0 0 60 (C1) n - 1
REM
REM in /home/bkarasulu/work/CARBON/AIRSS/Generating-Clusters/REBO/Higher-Symm/Only-C60
REM
REM
REM
REM
REM
REM ./C.cell (a2850807a9bf4ad07a5b6933b78d9264)
REM AIRSS Version 0.9.1 bugfix July 2018 build 013d7b7c2542+ Fri, 06 Jul 2018 19:26:36 +0100
REM compiler GCC version 9.2.1 20190827 (Red Hat 9.2.1-1)
REM options -cpp -mtune=generic -march=x86-64 -g -O0 -fpre-include=/usr/include/finclude/math-vector-fortran.h
REM seed 1630024643 1254306026 1210902857 1646598608 -1193066992 -989114223 1068115163 -2019267641 -827562129 -919034884 -2101176629 333995590 -23695270 323814636 -1536375353 -1845599215 -475502477 -1368720110 -528541581 703473121 113548767 19434483 -1415020627 878639723 -805711991 388121158 -2098744757 -250124624 -1651809653 1537494797 1817955610 -1469442706 -1158621976
REM
CELL 1.54180   15.00000   15.00000   15.00000   90.00000   90.00000   90.00000
LATT -1
SFAC C  
C      1  0.3706280000000  0.4542450000000  0.3183930000000 1.0
C      1  0.4041970000000  0.4599570000000  0.7335110000000 1.0
C      1  0.7346370000000  0.4531720000000  0.4605680000000 1.0
C      1  0.3352020000000  0.5571790000000  0.3100300000000 1.0
C      1  0.4084310000000  0.5687490000000  0.7517470000000 1.0
C      1  0.7483790000000  0.5611900000000  0.4559840000000 1.0
C      1  0.4783990000000  0.5498920000000  0.4211500000000 1.0
C      1  0.4554230000000  0.5253720000000  0.5997550000000 1.0
C      1  0.5779740000000  0.5261210000000  0.4688910000000 1.0
C      1  0.2999150000000  0.5041730000000  0.5111970000000 1.0
C      1  0.6068070000000  0.4729470000000  0.6767010000000 1.0
C      1  0.5980880000000  0.4721740000000  0.3010840000000 1.0
C      1  0.6147840000000  0.6026510000000  0.5444510000000 1.0
C      1  0.4931870000000  0.6248370000000  0.3453420000000 1.0
C      1  0.3772970000000  0.6062670000000  0.5929670000000 1.0
C      1  0.4420310000000  0.3097000000000  0.5297900000000 1.0
C      1  0.5489220000000  0.2967130000000  0.5237610000000 1.0
C      1  0.4908180000000  0.3091730000000  0.4341170000000 1.0
C      1  0.5122100000000  0.5202440000000  0.6838530000000 1.0
C      1  0.6437930000000  0.5164780000000  0.3869730000000 1.0
C      1  0.3746090000000  0.5229180000000  0.4330600000000 1.0
C      1  0.2991840000000  0.5997430000000  0.4096970000000 1.0
C      1  0.5106660000000  0.6159450000000  0.7258720000000 1.0
C      1  0.6742120000000  0.6127940000000  0.3713030000000 1.0
C      1  0.5911350000000  0.7250850000000  0.4315850000000 1.0
C      1  0.4068560000000  0.7044640000000  0.4611700000000 1.0
C      1  0.5022050000000  0.7081260000000  0.6084190000000 1.0
C      1  0.6517920000000  0.6881530000000  0.4959780000000 1.0
C      1  0.4198760000000  0.6958950000000  0.3656520000000 1.0
C      1  0.4140570000000  0.6911070000000  0.6405220000000 1.0
C      1  0.5240440000000  0.3449740000000  0.7647180000000 1.0
C      1  0.7154470000000  0.3400680000000  0.3382130000000 1.0
C      1  0.3018120000000  0.3346490000000  0.4217170000000 1.0
C      1  0.5101090000000  0.4351250000000  0.7577010000000 1.0
C      1  0.7086090000000  0.4294860000000  0.3561480000000 1.0
C      1  0.3360510000000  0.4187860000000  0.4189400000000 1.0
C      1  0.4527940000000  0.2995300000000  0.7260980000000 1.0
C      1  0.7211470000000  0.2922900000000  0.4176890000000 1.0
C      1  0.3263250000000  0.2884380000000  0.3446740000000 1.0
C      1  0.3336510000000  0.6666220000000  0.3256390000000 1.0
C      1  0.4160410000000  0.6770680000000  0.7400540000000 1.0
C      1  0.7359150000000  0.6630370000000  0.4486010000000 1.0
C      1  0.4795420000000  0.4415720000000  0.4376980000000 1.0
C      1  0.4544520000000  0.4410740000000  0.5467860000000 1.0
C      1  0.5593830000000  0.4288410000000  0.5136400000000 1.0
C      1  0.7137610000000  0.3500790000000  0.4893910000000 1.0
C      1  0.3850850000000  0.3435360000000  0.2985110000000 1.0
C      1  0.3931550000000  0.3603060000000  0.6898880000000 1.0
C      1  0.4444820000000  0.5370140000000  0.2936190000000 1.0
C      1  0.3430550000000  0.5282440000000  0.6686250000000 1.0
C      1  0.6887180000000  0.5179580000000  0.5417200000000 1.0
C      1  0.5861970000000  0.6661970000000  0.3566030000000 1.0
C      1  0.3522040000000  0.6364950000000  0.4989290000000 1.0
C      1  0.5625700000000  0.6349740000000  0.6265150000000 1.0
C      1  0.4710960000000  0.3741830000000  0.3533540000000 1.0
C      1  0.3828860000000  0.3731100000000  0.5887360000000 1.0
C      1  0.6312210000000  0.3578160000000  0.5488930000000 1.0
C      1  0.3211770000000  0.4626260000000  0.5899330000000 1.0
C      1  0.6547650000000  0.4457260000000  0.6049210000000 1.0
C      1  0.5085920000000  0.4547100000000  0.2985220000000 1.0
END
