TITL C-3036485-3770-343 0.0085791421509693 3375 -346.484985852789 0 0 60 (C5) n - 1
REM
REM in /home/bkarasulu/work/CARBON/AIRSS/Generating-Clusters/REBO/Higher-Symm/Only-C60
REM
REM
REM
REM
REM
REM ./C.cell (a2850807a9bf4ad07a5b6933b78d9264)
REM AIRSS Version 0.9.1 bugfix July 2018 build 013d7b7c2542+ Fri, 06 Jul 2018 19:26:36 +0100
REM compiler GCC version 9.2.1 20190827 (Red Hat 9.2.1-1)
REM options -cpp -mtune=generic -march=x86-64 -g -O0 -fpre-include=/usr/include/finclude/math-vector-fortran.h
REM seed -1012325520 886058180 -708098583 -1344678157 -2035685061 1859021716 668947405 -1649335186 -2008145294 -187779718 1063767609 -372992853 745725524 960172266 -202400216 -1729315893 -1499637526 -1254990109 -1448925740 594496850 -444880259 261074687 332143993 -1537119250 -1754644714 981835089 -1366128600 836986827 -1432552084 955137170 1719473392 -573538863 1565287535
REM
CELL 1.54180   15.00000   15.00000   15.00000   90.00000   90.00000   90.00000
LATT -1
SFAC C  
C      1  0.6321720000000  0.4074130000000  0.6928380000000 1.0
C      1  0.4529890000000  0.3457510000000  0.6929290000000 1.0
C      1  0.3389110000000  0.4969300000000  0.6929360000000 1.0
C      1  0.4473820000000  0.6523290000000  0.6928530000000 1.0
C      1  0.6288520000000  0.5970660000000  0.6927910000000 1.0
C      1  0.3678280000000  0.4074130000000  0.6928380000000 1.0
C      1  0.5470110000000  0.3457510000000  0.6929290000000 1.0
C      1  0.6610890000000  0.4969300000000  0.6929360000000 1.0
C      1  0.5526180000000  0.6523290000000  0.6928530000000 1.0
C      1  0.3711480000000  0.5970660000000  0.6927910000000 1.0
C      1  0.3757200000000  0.5882990000000  0.3531140000000 1.0
C      1  0.5455640000000  0.6454880000000  0.3531030000000 1.0
C      1  0.6524410000000  0.5016300000000  0.3530970000000 1.0
C      1  0.5486520000000  0.3555240000000  0.3531120000000 1.0
C      1  0.3776200000000  0.4090890000000  0.3531210000000 1.0
C      1  0.6242800000000  0.5882990000000  0.3531140000000 1.0
C      1  0.4544360000000  0.6454880000000  0.3531030000000 1.0
C      1  0.3475590000000  0.5016300000000  0.3530970000000 1.0
C      1  0.4513480000000  0.3555240000000  0.3531120000000 1.0
C      1  0.6223800000000  0.4090890000000  0.3531210000000 1.0
C      1  0.3537000000000  0.3951490000000  0.5138350000000 1.0
C      1  0.3550970000000  0.6067180000000  0.5138330000000 1.0
C      1  0.5568570000000  0.6706870000000  0.5137620000000 1.0
C      1  0.6799040000000  0.4985770000000  0.5137250000000 1.0
C      1  0.5543560000000  0.3284420000000  0.5137730000000 1.0
C      1  0.6463000000000  0.3951490000000  0.5138350000000 1.0
C      1  0.6449030000000  0.6067180000000  0.5138330000000 1.0
C      1  0.4431430000000  0.6706870000000  0.5137620000000 1.0
C      1  0.3200960000000  0.4985770000000  0.5137250000000 1.0
C      1  0.4456440000000  0.3284420000000  0.5137730000000 1.0
C      1  0.7366380000000  0.4828050000000  0.4206400000000 1.0
C      1  0.5567740000000  0.2696400000000  0.4206640000000 1.0
C      1  0.2984820000000  0.3748310000000  0.4207090000000 1.0
C      1  0.3186960000000  0.6529720000000  0.4207170000000 1.0
C      1  0.5894720000000  0.7197250000000  0.4206760000000 1.0
C      1  0.2633620000000  0.4828050000000  0.4206400000000 1.0
C      1  0.4432260000000  0.2696400000000  0.4206640000000 1.0
C      1  0.7015180000000  0.3748310000000  0.4207090000000 1.0
C      1  0.6813040000000  0.6529720000000  0.4207170000000 1.0
C      1  0.4105280000000  0.7197250000000  0.4206760000000 1.0
C      1  0.7162020000000  0.2744710000000  0.4081360000000 1.0
C      1  0.3523090000000  0.2246870000000  0.4081340000000 1.0
C      1  0.1925240000000  0.5553910000000  0.4081400000000 1.0
C      1  0.4576570000000  0.8095410000000  0.4081480000000 1.0
C      1  0.7812960000000  0.6359290000000  0.4081450000000 1.0
C      1  0.2837980000000  0.2744710000000  0.4081360000000 1.0
C      1  0.6476910000000  0.2246870000000  0.4081340000000 1.0
C      1  0.8074760000000  0.5553910000000  0.4081400000000 1.0
C      1  0.5423430000000  0.8095410000000  0.4081480000000 1.0
C      1  0.2187040000000  0.6359290000000  0.4081450000000 1.0
C      1  0.4139250000000  0.2940310000000  0.6114060000000 1.0
C      1  0.2777400000000  0.5183200000000  0.6113940000000 1.0
C      1  0.4483400000000  0.7173230000000  0.6114140000000 1.0
C      1  0.6909290000000  0.6167770000000  0.6114330000000 1.0
C      1  0.6698860000000  0.3544660000000  0.6114220000000 1.0
C      1  0.5860750000000  0.2940310000000  0.6114060000000 1.0
C      1  0.7222600000000  0.5183200000000  0.6113940000000 1.0
C      1  0.5516600000000  0.7173230000000  0.6114140000000 1.0
C      1  0.3090710000000  0.6167770000000  0.6114330000000 1.0
C      1  0.3301140000000  0.3544660000000  0.6114220000000 1.0
END
