TITL C-3036479-9801-1018 2.68787311636947e-05 3375 -340.38011284416 0 0 60 (S10) n - 1
REM
REM in /home/bkarasulu/work/CARBON/AIRSS/Generating-Clusters/REBO/Higher-Symm/Only-C60
REM
REM
REM
REM
REM
REM ./C.cell (a2850807a9bf4ad07a5b6933b78d9264)
REM AIRSS Version 0.9.1 bugfix July 2018 build 013d7b7c2542+ Fri, 06 Jul 2018 19:26:36 +0100
REM compiler GCC version 9.2.1 20190827 (Red Hat 9.2.1-1)
REM options -cpp -mtune=generic -march=x86-64 -g -O0 -fpre-include=/usr/include/finclude/math-vector-fortran.h
REM seed 1703489054 700325211 -176054048 -1228735082 -176278071 834469771 -686032806 298969241 155863725 -1382545291 723671026 -1792122644 -1878826859 1998434870 -1403541408 -1442728448 -413660394 1522800531 -913765268 -2094119454 199199506 989753452 -641727543 585093448 1743096936 2034493639 1079271805 -3951224 -356586070 1655431402 57621307 -2141725662 -905636222
REM
CELL 1.54180   15.00000   15.00000   15.00000   90.00000   90.00000   90.00000
LATT -1
SFAC C  
C      1  0.6909070000000  0.4573030000000  0.3492950000000 1.0
C      1  0.5658650000000  0.5426970000000  0.2658650000000 1.0
C      1  0.4156650000000  0.4573040000000  0.2718680000000 1.0
C      1  0.2976770000000  0.5426980000000  0.3650060000000 1.0
C      1  0.2569730000000  0.4573040000000  0.5097110000000 1.0
C      1  0.3090930000000  0.5426970000000  0.6507050000000 1.0
C      1  0.4341350000000  0.4573030000000  0.7341350000000 1.0
C      1  0.5843350000000  0.5426960000000  0.7281320000000 1.0
C      1  0.7023230000000  0.4573020000000  0.6349940000000 1.0
C      1  0.7430270000000  0.5426960000000  0.4902890000000 1.0
C      1  0.6341020000000  0.3648800000000  0.6294760000000 1.0
C      1  0.6845920000000  0.6351180000000  0.5259260000000 1.0
C      1  0.6645780000000  0.3648810000000  0.4124720000000 1.0
C      1  0.5816990000000  0.6351190000000  0.3324530000000 1.0
C      1  0.4676150000000  0.3648820000000  0.3164310000000 1.0
C      1  0.3658980000000  0.6351200000000  0.3705240000000 1.0
C      1  0.3154080000000  0.3648820000000  0.4740740000000 1.0
C      1  0.3354220000000  0.6351190000000  0.5875280000000 1.0
C      1  0.4183010000000  0.3648810000000  0.6675470000000 1.0
C      1  0.5323850000000  0.6351180000000  0.6835690000000 1.0
C      1  0.5579390000000  0.3012770000000  0.5771660000000 1.0
C      1  0.5922290000000  0.6987220000000  0.5283740000000 1.0
C      1  0.5912940000000  0.3012770000000  0.4687440000000 1.0
C      1  0.5554850000000  0.6987220000000  0.4210520000000 1.0
C      1  0.4984850000000  0.3012780000000  0.4035160000000 1.0
C      1  0.4420610000000  0.6987230000000  0.4228340000000 1.0
C      1  0.4077710000000  0.3012780000000  0.4716260000000 1.0
C      1  0.4087060000000  0.6987230000000  0.5312560000000 1.0
C      1  0.4445150000000  0.3012780000000  0.5789480000000 1.0
C      1  0.5015150000000  0.6987220000000  0.5964840000000 1.0
C      1  0.6890960000000  0.4059230000000  0.5386650000000 1.0
C      1  0.6757050000000  0.5940760000000  0.4201340000000 1.0
C      1  0.5952060000000  0.4059240000000  0.3321080000000 1.0
C      1  0.4783390000000  0.5940770000000  0.3082120000000 1.0
C      1  0.3697470000000  0.4059250000000  0.3575740000000 1.0
C      1  0.3109040000000  0.5940770000000  0.4613350000000 1.0
C      1  0.3242950000000  0.4059240000000  0.5798660000000 1.0
C      1  0.4047940000000  0.5940760000000  0.6678920000000 1.0
C      1  0.5216610000000  0.4059230000000  0.6917880000000 1.0
C      1  0.6302530000000  0.5940750000000  0.6424260000000 1.0
C      1  0.5877190000000  0.4109950000000  0.5102480000000 1.0
C      1  0.5769860000000  0.5890040000000  0.4567320000000 1.0
C      1  0.5368540000000  0.4109960000000  0.4197430000000 1.0
C      1  0.4826390000000  0.5890040000000  0.4134090000000 1.0
C      1  0.4350610000000  0.4109970000000  0.4401510000000 1.0
C      1  0.4122810000000  0.5890050000000  0.4897520000000 1.0
C      1  0.4230140000000  0.4109960000000  0.5432680000000 1.0
C      1  0.4631460000000  0.5890040000000  0.5802570000000 1.0
C      1  0.5173610000000  0.4109960000000  0.5865910000000 1.0
C      1  0.5649390000000  0.5890030000000  0.5598490000000 1.0
C      1  0.6171410000000  0.4456280000000  0.7088940000000 1.0
C      1  0.7175530000000  0.5543700000000  0.6001450000000 1.0
C      1  0.7348690000000  0.4456280000000  0.4531440000000 1.0
C      1  0.6624710000000  0.5543710000000  0.3240410000000 1.0
C      1  0.5280160000000  0.4456290000000  0.2621480000000 1.0
C      1  0.3828590000000  0.5543720000000  0.2911060000000 1.0
C      1  0.2824470000000  0.4456300000000  0.3998550000000 1.0
C      1  0.2651310000000  0.5543720000000  0.5468560000000 1.0
C      1  0.3375290000000  0.4456290000000  0.6759590000000 1.0
C      1  0.4719840000000  0.5543710000000  0.7378520000000 1.0
END
