TITL C-3036480-97-730 -0.0156950414893377 3375 -363.817094493058 0 0 60 (D2) n - 1
REM
REM in /home/bkarasulu/work/CARBON/AIRSS/Generating-Clusters/REBO/Higher-Symm/Only-C60
REM
REM
REM
REM
REM
REM ./C.cell (a2850807a9bf4ad07a5b6933b78d9264)
REM AIRSS Version 0.9.1 bugfix July 2018 build 013d7b7c2542+ Fri, 06 Jul 2018 19:26:36 +0100
REM compiler GCC version 9.2.1 20190827 (Red Hat 9.2.1-1)
REM options -cpp -mtune=generic -march=x86-64 -g -O0 -fpre-include=/usr/include/finclude/math-vector-fortran.h
REM seed 350065780 -1966413404 -1895333785 632200561 1821174568 -1228929755 670063482 -1096472550 -601165952 1952870197 -522970739 -1770387968 152543861 502403799 -1084241825 -756616652 -1825988403 -248680276 -1884256360 -1404335289 343209981 -25684315 1667899177 1874982837 -1221788200 -1989253325 1336161207 389641094 -2006248286 -888909917 -186410004 31044931 -888433740
REM
CELL 1.54180   15.00000   15.00000   15.00000   90.00000   90.00000   90.00000
LATT -1
SFAC C  
C      1  0.5057590000000  0.6105790000000  0.7432600000000 1.0
C      1  0.5057590000000  0.3894210000000  0.2567400000000 1.0
C      1  0.4942410000000  0.6105790000000  0.2567400000000 1.0
C      1  0.4942410000000  0.3894210000000  0.7432600000000 1.0
C      1  0.6991320000000  0.4511780000000  0.5030780000000 1.0
C      1  0.6991320000000  0.5488220000000  0.4969220000000 1.0
C      1  0.3008680000000  0.4511780000000  0.4969220000000 1.0
C      1  0.3008680000000  0.5488220000000  0.5030780000000 1.0
C      1  0.4874170000000  0.6957840000000  0.6702180000000 1.0
C      1  0.4874170000000  0.3042160000000  0.3297820000000 1.0
C      1  0.5125830000000  0.6957840000000  0.3297820000000 1.0
C      1  0.5125830000000  0.3042160000000  0.6702180000000 1.0
C      1  0.6235940000000  0.5744760000000  0.5764350000000 1.0
C      1  0.6235940000000  0.4255240000000  0.4235650000000 1.0
C      1  0.3764060000000  0.5744760000000  0.4235650000000 1.0
C      1  0.3764060000000  0.4255240000000  0.5764350000000 1.0
C      1  0.4091120000000  0.6329510000000  0.6581820000000 1.0
C      1  0.4091120000000  0.3670490000000  0.3418180000000 1.0
C      1  0.5908880000000  0.6329510000000  0.3418180000000 1.0
C      1  0.5908880000000  0.3670490000000  0.6581820000000 1.0
C      1  0.4130650000000  0.5908540000000  0.5752390000000 1.0
C      1  0.4130650000000  0.4091460000000  0.4247610000000 1.0
C      1  0.5869340000000  0.5908540000000  0.4247610000000 1.0
C      1  0.5869330000000  0.4091450000000  0.5752390000000 1.0
C      1  0.5956320000000  0.5588220000000  0.2601480000000 1.0
C      1  0.5956320000000  0.4411780000000  0.7398520000000 1.0
C      1  0.4043680000000  0.5588220000000  0.7398520000000 1.0
C      1  0.4043680000000  0.4411780000000  0.2601480000000 1.0
C      1  0.6896790000000  0.5459690000000  0.3259280000000 1.0
C      1  0.6896790000000  0.4540310000000  0.6740720000000 1.0
C      1  0.3103210000000  0.5459690000000  0.6740720000000 1.0
C      1  0.3103210000000  0.4540310000000  0.3259280000000 1.0
C      1  0.6035560000000  0.3587500000000  0.4982490000000 1.0
C      1  0.6035560000000  0.6412500000000  0.5017510000000 1.0
C      1  0.3964440000000  0.3587500000000  0.5017510000000 1.0
C      1  0.3964440000000  0.6412500000000  0.4982490000000 1.0
C      1  0.4343200000000  0.7274580000000  0.4976530000000 1.0
C      1  0.4343200000000  0.2725420000000  0.5023470000000 1.0
C      1  0.5656800000000  0.7274580000000  0.5023470000000 1.0
C      1  0.5656800000000  0.2725420000000  0.4976530000000 1.0
C      1  0.5779620000000  0.4467480000000  0.2579430000000 1.0
C      1  0.5779620000000  0.5532520000000  0.7420570000000 1.0
C      1  0.4220380000000  0.4467480000000  0.7420570000000 1.0
C      1  0.4220380000000  0.5532520000000  0.2579430000000 1.0
C      1  0.6466210000000  0.4564620000000  0.3281620000000 1.0
C      1  0.6466210000000  0.5435380000000  0.6718380000000 1.0
C      1  0.3533790000000  0.4564620000000  0.6718380000000 1.0
C      1  0.3533790000000  0.5435380000000  0.3281620000000 1.0
C      1  0.5469620000000  0.4968310000000  0.5734560000000 1.0
C      1  0.5469620000000  0.5031690000000  0.4265440000000 1.0
C      1  0.4530380000000  0.4968310000000  0.4265440000000 1.0
C      1  0.4530380000000  0.5031690000000  0.5734560000000 1.0
C      1  0.5019290000000  0.2552140000000  0.4132450000000 1.0
C      1  0.5019290000000  0.7447860000000  0.5867550000000 1.0
C      1  0.4980710000000  0.2552140000000  0.5867550000000 1.0
C      1  0.4980710000000  0.7447860000000  0.4132450000000 1.0
C      1  0.2811250000000  0.5805700000000  0.5907370000000 1.0
C      1  0.2811250000000  0.4194300000000  0.4092630000000 1.0
C      1  0.7188760000000  0.5805700000000  0.4092630000000 1.0
C      1  0.7188770000000  0.4194300000000  0.5907370000000 1.0
END
