TITL C-3036479-9801-293 -3.1708153156576e-06 3375 -331.749037292786 0 0 60 (C1) n - 1
REM
REM in /home/bkarasulu/work/CARBON/AIRSS/Generating-Clusters/REBO/Higher-Symm/Only-C60
REM
REM
REM
REM
REM
REM ./C.cell (a2850807a9bf4ad07a5b6933b78d9264)
REM AIRSS Version 0.9.1 bugfix July 2018 build 013d7b7c2542+ Fri, 06 Jul 2018 19:26:36 +0100
REM compiler GCC version 9.2.1 20190827 (Red Hat 9.2.1-1)
REM options -cpp -mtune=generic -march=x86-64 -g -O0 -fpre-include=/usr/include/finclude/math-vector-fortran.h
REM seed 557421348 -267060388 650343023 -1256961266 368148210 -1204666145 -519731355 -1905202410 -753506508 -672206249 -1094316301 -877910300 -626034597 -603148927 1050430652 -554252992 -329971244 1458239607 -486888431 1174724123 1066374957 1993213117 -478689164 170254246 -1879418746 -1717116013 -636992714 -482441023 -793668441 -988433487 -1110701630 1768395005 -1940382506
REM
CELL 1.54180   15.00000   15.00000   15.00000   90.00000   90.00000   90.00000
LATT -1
SFAC C  
C      1  0.2935200000000  0.6807810000000  0.4655780000000 1.0
C      1  0.6671880000000  0.4434710000000  0.3225200000000 1.0
C      1  0.4361500000000  0.3203690000000  0.6839320000000 1.0
C      1  0.2913810000000  0.3243310000000  0.5298670000000 1.0
C      1  0.6980810000000  0.6798220000000  0.5562350000000 1.0
C      1  0.6648460000000  0.3356640000000  0.4262560000000 1.0
C      1  0.6817670000000  0.5664930000000  0.6794690000000 1.0
C      1  0.3299170000000  0.4530890000000  0.6914240000000 1.0
C      1  0.3318100000000  0.5533450000000  0.3040340000000 1.0
C      1  0.4466080000000  0.6673780000000  0.3261730000000 1.0
C      1  0.5605240000000  0.3124930000000  0.3218670000000 1.0
C      1  0.5332690000000  0.7080620000000  0.6834610000000 1.0
C      1  0.6826420000000  0.6867560000000  0.4460740000000 1.0
C      1  0.3166410000000  0.4429160000000  0.3140730000000 1.0
C      1  0.5446810000000  0.2955860000000  0.6796970000000 1.0
C      1  0.7013300000000  0.3234610000000  0.5310850000000 1.0
C      1  0.3239810000000  0.6711930000000  0.5726680000000 1.0
C      1  0.3340230000000  0.3348900000000  0.4272640000000 1.0
C      1  0.3301580000000  0.5631320000000  0.6721960000000 1.0
C      1  0.6859920000000  0.4583380000000  0.7054600000000 1.0
C      1  0.6889610000000  0.5492580000000  0.2935130000000 1.0
C      1  0.5562660000000  0.6865890000000  0.3317640000000 1.0
C      1  0.4508200000000  0.2916170000000  0.3260530000000 1.0
C      1  0.4282140000000  0.6721190000000  0.6726990000000 1.0
C      1  0.4482480000000  0.2797810000000  0.5906510000000 1.0
C      1  0.2526280000000  0.5868060000000  0.4543420000000 1.0
C      1  0.5765220000000  0.4341980000000  0.2749890000000 1.0
C      1  0.4587770000000  0.7095370000000  0.4181660000000 1.0
C      1  0.5465670000000  0.2755380000000  0.4159510000000 1.0
C      1  0.5435010000000  0.7509270000000  0.5902720000000 1.0
C      1  0.2544550000000  0.4194840000000  0.5396830000000 1.0
C      1  0.7335880000000  0.5836030000000  0.5598130000000 1.0
C      1  0.7125140000000  0.4238690000000  0.4457530000000 1.0
C      1  0.5907560000000  0.5485760000000  0.7225740000000 1.0
C      1  0.4256790000000  0.4447130000000  0.7269910000000 1.0
C      1  0.4270360000000  0.5517620000000  0.2659150000000 1.0
C      1  0.5481320000000  0.2628220000000  0.5824280000000 1.0
C      1  0.7194390000000  0.5921750000000  0.4595390000000 1.0
C      1  0.4106390000000  0.4516220000000  0.2742250000000 1.0
C      1  0.5585550000000  0.7258690000000  0.4264990000000 1.0
C      1  0.4453260000000  0.2620480000000  0.4239770000000 1.0
C      1  0.4453560000000  0.7232280000000  0.5857730000000 1.0
C      1  0.7388120000000  0.4183080000000  0.5442770000000 1.0
C      1  0.2734220000000  0.5846180000000  0.5542540000000 1.0
C      1  0.2835130000000  0.4224640000000  0.4413890000000 1.0
C      1  0.4222940000000  0.5455100000000  0.7119710000000 1.0
C      1  0.5906850000000  0.4492950000000  0.7433550000000 1.0
C      1  0.5935840000000  0.5333040000000  0.2592010000000 1.0
C      1  0.6032600000000  0.2778100000000  0.5033910000000 1.0
C      1  0.5200860000000  0.5977290000000  0.2729650000000 1.0
C      1  0.6073020000000  0.7341860000000  0.5179890000000 1.0
C      1  0.3967790000000  0.7119170000000  0.4941800000000 1.0
C      1  0.7137060000000  0.5164460000000  0.3973960000000 1.0
C      1  0.7315380000000  0.4917580000000  0.6082320000000 1.0
C      1  0.5139440000000  0.3903870000000  0.7305550000000 1.0
C      1  0.3919560000000  0.2813470000000  0.5103690000000 1.0
C      1  0.2748920000000  0.5146100000000  0.3923530000000 1.0
C      1  0.2738770000000  0.4920420000000  0.6025680000000 1.0
C      1  0.5095190000000  0.6032000000000  0.7145350000000 1.0
C      1  0.4843380000000  0.3873570000000  0.2801170000000 1.0
END
