TITL C-3036481-494-137 -3.80065643099192e-06 3375 -347.299739388581 0 0 60 (C1) n - 1
REM
REM in /home/bkarasulu/work/CARBON/AIRSS/Generating-Clusters/REBO/Higher-Symm/Only-C60
REM
REM
REM
REM
REM
REM ./C.cell (a2850807a9bf4ad07a5b6933b78d9264)
REM AIRSS Version 0.9.1 bugfix July 2018 build 013d7b7c2542+ Fri, 06 Jul 2018 19:26:36 +0100
REM compiler GCC version 9.2.1 20190827 (Red Hat 9.2.1-1)
REM options -cpp -mtune=generic -march=x86-64 -g -O0 -fpre-include=/usr/include/finclude/math-vector-fortran.h
REM seed -420173187 571599631 -376363573 -957163209 1211692386 947890148 -365477806 -1772828011 1692563794 304780929 -1762970949 -334826160 227451831 -1584490376 1353826944 -755664245 -2131306865 599527846 -967066627 -1938641198 -600615611 -552291686 1782672431 -622864262 693933378 -784592578 -295174403 -1859789860 300276347 893383207 -974017739 -1834303780 -83087736
REM
CELL 1.54180   15.00000   15.00000   15.00000   90.00000   90.00000   90.00000
LATT -1
SFAC C  
C      1  0.5932120000000  0.4505880000000  0.7098910000000 1.0
C      1  0.6001400000000  0.5461360000000  0.2788110000000 1.0
C      1  0.4107090000000  0.4421280000000  0.7191640000000 1.0
C      1  0.4158000000000  0.5645230000000  0.2730000000000 1.0
C      1  0.5908610000000  0.4338470000000  0.2743670000000 1.0
C      1  0.5943800000000  0.5611490000000  0.7291680000000 1.0
C      1  0.4114430000000  0.4555180000000  0.2934370000000 1.0
C      1  0.4217330000000  0.5523930000000  0.7005050000000 1.0
C      1  0.3608900000000  0.3745320000000  0.3476830000000 1.0
C      1  0.3628910000000  0.6231540000000  0.6506570000000 1.0
C      1  0.6433030000000  0.3584530000000  0.3403570000000 1.0
C      1  0.6397110000000  0.6436120000000  0.6656820000000 1.0
C      1  0.3541200000000  0.3656890000000  0.6572570000000 1.0
C      1  0.3622620000000  0.6258350000000  0.3467450000000 1.0
C      1  0.6478730000000  0.3702460000000  0.6537620000000 1.0
C      1  0.6422100000000  0.6194870000000  0.3542960000000 1.0
C      1  0.4156050000000  0.6849340000000  0.5903060000000 1.0
C      1  0.4259470000000  0.3108010000000  0.4097220000000 1.0
C      1  0.5968720000000  0.6914860000000  0.5720250000000 1.0
C      1  0.6025910000000  0.3093530000000  0.4334970000000 1.0
C      1  0.3987020000000  0.6775370000000  0.4354330000000 1.0
C      1  0.4035460000000  0.3209850000000  0.5670950000000 1.0
C      1  0.5738470000000  0.6844470000000  0.4151230000000 1.0
C      1  0.5804740000000  0.3088060000000  0.5883640000000 1.0
C      1  0.4084520000000  0.4476820000000  0.6067220000000 1.0
C      1  0.4608770000000  0.5755680000000  0.3770660000000 1.0
C      1  0.5826860000000  0.4408700000000  0.6005560000000 1.0
C      1  0.5539280000000  0.5576030000000  0.3804700000000 1.0
C      1  0.4063630000000  0.4578910000000  0.4062510000000 1.0
C      1  0.4713950000000  0.5639100000000  0.6034460000000 1.0
C      1  0.5627300000000  0.4248040000000  0.3821180000000 1.0
C      1  0.5675830000000  0.5715750000000  0.6195430000000 1.0
C      1  0.7228210000000  0.4183310000000  0.5876220000000 1.0
C      1  0.7208810000000  0.5870320000000  0.4181780000000 1.0
C      1  0.2938020000000  0.3954580000000  0.5661100000000 1.0
C      1  0.2901490000000  0.6008990000000  0.4280820000000 1.0
C      1  0.6857050000000  0.4127730000000  0.4300400000000 1.0
C      1  0.6906650000000  0.5973590000000  0.5764640000000 1.0
C      1  0.2803200000000  0.4154540000000  0.4105090000000 1.0
C      1  0.2853100000000  0.5768510000000  0.5919830000000 1.0
C      1  0.2592560000000  0.4842420000000  0.5462590000000 1.0
C      1  0.2570280000000  0.4978490000000  0.4518580000000 1.0
C      1  0.7463640000000  0.5037490000000  0.5519630000000 1.0
C      1  0.7440560000000  0.5021190000000  0.4552800000000 1.0
C      1  0.5089370000000  0.2971310000000  0.4521450000000 1.0
C      1  0.4898220000000  0.6958450000000  0.4557840000000 1.0
C      1  0.4951610000000  0.3006040000000  0.5482100000000 1.0
C      1  0.5019340000000  0.7001340000000  0.5519760000000 1.0
C      1  0.6112970000000  0.4969800000000  0.4484330000000 1.0
C      1  0.6151910000000  0.5213930000000  0.5398640000000 1.0
C      1  0.3811370000000  0.5464470000000  0.4520870000000 1.0
C      1  0.3817200000000  0.5361630000000  0.5504080000000 1.0
C      1  0.3403000000000  0.3447120000000  0.4759310000000 1.0
C      1  0.3297070000000  0.6548570000000  0.5210840000000 1.0
C      1  0.6630160000000  0.3486030000000  0.5211940000000 1.0
C      1  0.6592160000000  0.6557590000000  0.4840130000000 1.0
C      1  0.5030670000000  0.4974670000000  0.2456590000000 1.0
C      1  0.5033160000000  0.4975160000000  0.7541600000000 1.0
C      1  0.4955500000000  0.4633590000000  0.5491990000000 1.0
C      1  0.4908850000000  0.4353710000000  0.4529880000000 1.0
END
