TITL C-3036480-97-427 -0.00536563060958357 3375 -339.144213097279 0 0 60 (C2) n - 1
REM
REM in /home/bkarasulu/work/CARBON/AIRSS/Generating-Clusters/REBO/Higher-Symm/Only-C60
REM
REM
REM
REM
REM
REM ./C.cell (a2850807a9bf4ad07a5b6933b78d9264)
REM AIRSS Version 0.9.1 bugfix July 2018 build 013d7b7c2542+ Fri, 06 Jul 2018 19:26:36 +0100
REM compiler GCC version 9.2.1 20190827 (Red Hat 9.2.1-1)
REM options -cpp -mtune=generic -march=x86-64 -g -O0 -fpre-include=/usr/include/finclude/math-vector-fortran.h
REM seed 1908309712 1468985911 -608074764 49595080 249903858 2063581111 1023684414 605278337 -1665933876 1912216371 -1633611201 -674774649 -1342105068 -911977207 -827738147 1779128876 -1471952786 1620301060 1310786889 138011624 -598169751 442558505 2090910500 -1482668570 -2042713664 825925667 1641075514 -1895916903 -289905845 562629444 1913938094 -1626358201 -788017502
REM
CELL 1.54180   15.00000   15.00000   15.00000   90.00000   90.00000   90.00000
LATT -1
SFAC C  
C      1  0.4011760000000  0.4637230000000  0.6844850000000 1.0
C      1  0.5988290000000  0.5363190000000  0.6844970000000 1.0
C      1  0.5844840000000  0.4471850000000  0.6871590000000 1.0
C      1  0.4154920000000  0.5528600000000  0.6871270000000 1.0
C      1  0.5542980000000  0.3812490000000  0.4164390000000 1.0
C      1  0.4457700000000  0.6188790000000  0.4163880000000 1.0
C      1  0.4473370000000  0.4063550000000  0.4186250000000 1.0
C      1  0.5527010000000  0.5937410000000  0.4186060000000 1.0
C      1  0.6928680000000  0.3806120000000  0.5222770000000 1.0
C      1  0.3070560000000  0.6190580000000  0.5224750000000 1.0
C      1  0.3212730000000  0.3615060000000  0.5220740000000 1.0
C      1  0.6787670000000  0.6385850000000  0.5221020000000 1.0
C      1  0.3371290000000  0.5462260000000  0.4404810000000 1.0
C      1  0.6629450000000  0.4538610000000  0.4405730000000 1.0
C      1  0.6797070000000  0.5628340000000  0.4379790000000 1.0
C      1  0.3203180000000  0.4372690000000  0.4380090000000 1.0
C      1  0.5503690000000  0.6961170000000  0.3901360000000 1.0
C      1  0.4497070000000  0.3039380000000  0.3903100000000 1.0
C      1  0.4558010000000  0.7226760000000  0.3812970000000 1.0
C      1  0.5442840000000  0.2774440000000  0.3814200000000 1.0
C      1  0.5514840000000  0.4585870000000  0.2633850000000 1.0
C      1  0.4485960000000  0.5413930000000  0.2633440000000 1.0
C      1  0.4494220000000  0.4343200000000  0.2584240000000 1.0
C      1  0.5506570000000  0.5656370000000  0.2583450000000 1.0
C      1  0.5410470000000  0.4015330000000  0.5943460000000 1.0
C      1  0.4589450000000  0.5985260000000  0.5943430000000 1.0
C      1  0.4350350000000  0.4147760000000  0.5936250000000 1.0
C      1  0.5649580000000  0.5852820000000  0.5936340000000 1.0
C      1  0.5301490000000  0.7461650000000  0.5119300000000 1.0
C      1  0.4697300000000  0.2536600000000  0.5120120000000 1.0
C      1  0.4392110000000  0.7430890000000  0.5116280000000 1.0
C      1  0.5607010000000  0.2564990000000  0.5117250000000 1.0
C      1  0.4115410000000  0.4579190000000  0.5066980000000 1.0
C      1  0.5885020000000  0.5421780000000  0.5066970000000 1.0
C      1  0.5732360000000  0.4365070000000  0.5093070000000 1.0
C      1  0.4268500000000  0.5635770000000  0.5092410000000 1.0
C      1  0.2713740000000  0.5324490000000  0.5578340000000 1.0
C      1  0.7283150000000  0.4674670000000  0.5574190000000 1.0
C      1  0.7237710000000  0.5580210000000  0.5634510000000 1.0
C      1  0.2760990000000  0.4418870000000  0.5634470000000 1.0
C      1  0.5349110000000  0.3645300000000  0.7217640000000 1.0
C      1  0.4650620000000  0.6354690000000  0.7217410000000 1.0
C      1  0.4339300000000  0.3758690000000  0.7206860000000 1.0
C      1  0.5660400000000  0.6241680000000  0.7207190000000 1.0
C      1  0.6248330000000  0.7471000000000  0.3746870000000 1.0
C      1  0.3752710000000  0.2528950000000  0.3748700000000 1.0
C      1  0.4017940000000  0.7912010000000  0.3585800000000 1.0
C      1  0.5981670000000  0.2088810000000  0.3585440000000 1.0
C      1  0.3640650000000  0.6868000000000  0.5489700000000 1.0
C      1  0.6359320000000  0.3128170000000  0.5488290000000 1.0
C      1  0.6129260000000  0.6987780000000  0.5431690000000 1.0
C      1  0.3870690000000  0.3012910000000  0.5431520000000 1.0
C      1  0.3876680000000  0.5702540000000  0.3436310000000 1.0
C      1  0.6124050000000  0.4298530000000  0.3437090000000 1.0
C      1  0.6141160000000  0.5413600000000  0.3468750000000 1.0
C      1  0.3859160000000  0.4587310000000  0.3468960000000 1.0
C      1  0.5459060000000  0.6915900000000  0.6324300000000 1.0
C      1  0.4540650000000  0.3084710000000  0.6323660000000 1.0
C      1  0.4330850000000  0.7014980000000  0.6375870000000 1.0
C      1  0.5669070000000  0.2985360000000  0.6375010000000 1.0
END
