TITL C-3036480-97-769 -1.83334200865746e-05 3375 -350.161816263 0 0 60 (C6h) n - 1
REM
REM in /home/bkarasulu/work/CARBON/AIRSS/Generating-Clusters/REBO/Higher-Symm/Only-C60
REM
REM
REM
REM
REM
REM ./C.cell (a2850807a9bf4ad07a5b6933b78d9264)
REM AIRSS Version 0.9.1 bugfix July 2018 build 013d7b7c2542+ Fri, 06 Jul 2018 19:26:36 +0100
REM compiler GCC version 9.2.1 20190827 (Red Hat 9.2.1-1)
REM options -cpp -mtune=generic -march=x86-64 -g -O0 -fpre-include=/usr/include/finclude/math-vector-fortran.h
REM seed 249308850 -850924520 -1653388731 -1844123758 -1618856475 -45261943 -538096034 -151434681 283210331 1161001356 844342145 959201513 -1470111098 -278550608 -1731316454 -2066328313 2114355368 -2027560387 -1296145523 -1025552414 -1382596978 418684642 1211638724 1044109042 -640061013 754727040 -268553536 -1228526328 -514243515 -1651803327 -1548269890 -161711687 -87493689
REM
CELL 1.54180   15.00000   15.00000   15.00000   90.00000   90.00000   90.00000
LATT -1
SFAC C  
C      1  0.5125860000000  0.5870340000000  0.3973760000000 1.0
C      1  0.4174170000000  0.5870340000000  0.4377870000000 1.0
C      1  0.4048320000000  0.5870340000000  0.5404120000000 1.0
C      1  0.4874140000000  0.5870340000000  0.6026240000000 1.0
C      1  0.5825830000000  0.5870340000000  0.5622130000000 1.0
C      1  0.5951680000000  0.5870340000000  0.4595880000000 1.0
C      1  0.5125860000000  0.4129660000000  0.3973760000000 1.0
C      1  0.4174170000000  0.4129660000000  0.4377870000000 1.0
C      1  0.4048320000000  0.4129660000000  0.5404120000000 1.0
C      1  0.4874140000000  0.4129660000000  0.6026240000000 1.0
C      1  0.5825830000000  0.4129660000000  0.5622130000000 1.0
C      1  0.5951680000000  0.4129660000000  0.4595880000000 1.0
C      1  0.6984600000000  0.5473360000000  0.4881900000000 1.0
C      1  0.5890040000000  0.5473360000000  0.3222260000000 1.0
C      1  0.3905390000000  0.5473360000000  0.3340340000000 1.0
C      1  0.3015400000000  0.5473360000000  0.5118100000000 1.0
C      1  0.4109960000000  0.5473360000000  0.6777740000000 1.0
C      1  0.6094610000000  0.5473360000000  0.6659660000000 1.0
C      1  0.6984600000000  0.4526640000000  0.4881900000000 1.0
C      1  0.5890040000000  0.4526640000000  0.3222260000000 1.0
C      1  0.3905390000000  0.4526640000000  0.3340340000000 1.0
C      1  0.3015400000000  0.4526640000000  0.5118100000000 1.0
C      1  0.4109960000000  0.4526640000000  0.6777740000000 1.0
C      1  0.6094610000000  0.4526640000000  0.6659660000000 1.0
C      1  0.6139790000000  0.3429940000000  0.3479970000000 1.0
C      1  0.4253510000000  0.3429960000000  0.3252880000000 1.0
C      1  0.3113700000000  0.3429950000000  0.4772940000000 1.0
C      1  0.3860210000000  0.3429940000000  0.6520030000000 1.0
C      1  0.5746490000000  0.3429960000000  0.6747120000000 1.0
C      1  0.6886300000000  0.3429950000000  0.5227060000000 1.0
C      1  0.6139790000000  0.6570060000000  0.3479970000000 1.0
C      1  0.4253510000000  0.6570040000000  0.3252880000000 1.0
C      1  0.3113700000000  0.6570050000000  0.4772940000000 1.0
C      1  0.3860210000000  0.6570060000000  0.6520030000000 1.0
C      1  0.5746490000000  0.6570040000000  0.6747120000000 1.0
C      1  0.6886300000000  0.6570050000000  0.5227060000000 1.0
C      1  0.4789460000000  0.3685430000000  0.7098890000000 1.0
C      1  0.6712430000000  0.3685390000000  0.6231770000000 1.0
C      1  0.6922960000000  0.3685430000000  0.4132870000000 1.0
C      1  0.5210540000000  0.3685430000000  0.2901110000000 1.0
C      1  0.3287570000000  0.3685390000000  0.3768230000000 1.0
C      1  0.3077040000000  0.3685430000000  0.5867130000000 1.0
C      1  0.4789460000000  0.6314570000000  0.7098890000000 1.0
C      1  0.6712430000000  0.6314610000000  0.6231770000000 1.0
C      1  0.6922960000000  0.6314570000000  0.4132870000000 1.0
C      1  0.5210540000000  0.6314570000000  0.2901110000000 1.0
C      1  0.3287570000000  0.6314610000000  0.3768230000000 1.0
C      1  0.3077040000000  0.6314570000000  0.5867130000000 1.0
C      1  0.5567030000000  0.7097250000000  0.4243110000000 1.0
C      1  0.4628030000000  0.7097250000000  0.4130480000000 1.0
C      1  0.4060990000000  0.7097250000000  0.4887380000000 1.0
C      1  0.4432970000000  0.7097250000000  0.5756890000000 1.0
C      1  0.5371970000000  0.7097250000000  0.5869520000000 1.0
C      1  0.5939010000000  0.7097250000000  0.5112620000000 1.0
C      1  0.5567030000000  0.2902750000000  0.4243110000000 1.0
C      1  0.4628030000000  0.2902750000000  0.4130480000000 1.0
C      1  0.4060990000000  0.2902750000000  0.4887380000000 1.0
C      1  0.4432970000000  0.2902750000000  0.5756890000000 1.0
C      1  0.5371970000000  0.2902750000000  0.5869520000000 1.0
C      1  0.5939010000000  0.2902750000000  0.5112620000000 1.0
END
