TITL C-3036485-3770-536 4.19053612902374e-05 3375 -327.058773328358 0 0 60 (S10) n - 1
REM
REM in /home/bkarasulu/work/CARBON/AIRSS/Generating-Clusters/REBO/Higher-Symm/Only-C60
REM
REM
REM
REM
REM
REM ./C.cell (a2850807a9bf4ad07a5b6933b78d9264)
REM AIRSS Version 0.9.1 bugfix July 2018 build 013d7b7c2542+ Fri, 06 Jul 2018 19:26:36 +0100
REM compiler GCC version 9.2.1 20190827 (Red Hat 9.2.1-1)
REM options -cpp -mtune=generic -march=x86-64 -g -O0 -fpre-include=/usr/include/finclude/math-vector-fortran.h
REM seed 946063287 206828667 -466137762 -1123646949 -955348021 247713144 -2147416173 -2059957416 976950991 -96537194 -1806437905 1854711738 -766208198 -2091839275 -973387428 713614312 -752589619 -1040460234 624226386 -1883446925 -380626525 814687584 1759905676 -1558785737 1078550266 -1092363332 978785687 1590677289 957310462 -811188251 -255255039 215634841 1487996814
REM
CELL 1.54180   15.00000   15.00000   15.00000   90.00000   90.00000   90.00000
LATT -1
SFAC C  
C      1  0.6377190000000  0.7369130000000  0.3630580000000 1.0
C      1  0.4721740000000  0.7726090000000  0.6369590000000 1.0
C      1  0.3172420000000  0.7041970000000  0.3630670000000 1.0
C      1  0.2321330000000  0.5577680000000  0.6369580000000 1.0
C      1  0.2493240000000  0.3892950000000  0.3630570000000 1.0
C      1  0.3622810000000  0.2630870000000  0.6369420000000 1.0
C      1  0.5278260000000  0.2273910000000  0.3630410000000 1.0
C      1  0.6827580000000  0.2958030000000  0.6369330000000 1.0
C      1  0.7678670000000  0.4422310000000  0.3630420000000 1.0
C      1  0.7506760000000  0.6107050000000  0.6369430000000 1.0
C      1  0.5332640000000  0.3543230000000  0.4950060000000 1.0
C      1  0.6125380000000  0.4016970000000  0.5049800000000 1.0
C      1  0.6488260000000  0.4866190000000  0.4950070000000 1.0
C      1  0.6282680000000  0.5766530000000  0.5049860000000 1.0
C      1  0.5587160000000  0.6374080000000  0.4950160000000 1.0
C      1  0.4667360000000  0.6456770000000  0.5049940000000 1.0
C      1  0.3874620000000  0.5983030000000  0.4950200000000 1.0
C      1  0.3511740000000  0.5133800000000  0.5049930000000 1.0
C      1  0.3717320000000  0.4233470000000  0.4950140000000 1.0
C      1  0.4412840000000  0.3625920000000  0.5049840000000 1.0
C      1  0.5201250000000  0.6703150000000  0.6246380000000 1.0
C      1  0.4161630000000  0.6496240000000  0.3753760000000 1.0
C      1  0.3442380000000  0.5717630000000  0.6246400000000 1.0
C      1  0.3317940000000  0.4665100000000  0.3753720000000 1.0
C      1  0.3836140000000  0.3740300000000  0.6246310000000 1.0
C      1  0.4798750000000  0.3296850000000  0.3753620000000 1.0
C      1  0.5838370000000  0.3503760000000  0.6246240000000 1.0
C      1  0.6557620000000  0.4282370000000  0.3753600000000 1.0
C      1  0.6682060000000  0.5334900000000  0.6246280000000 1.0
C      1  0.6163860000000  0.6259700000000  0.3753690000000 1.0
C      1  0.3088850000000  0.3229170000000  0.5555400000000 1.0
C      1  0.4494670000000  0.2444050000000  0.4444500000000 1.0
C      1  0.6093580000000  0.2635140000000  0.5555280000000 1.0
C      1  0.7274710000000  0.3729610000000  0.4444460000000 1.0
C      1  0.7587040000000  0.5309240000000  0.5555340000000 1.0
C      1  0.6911150000000  0.6770830000000  0.4444600000000 1.0
C      1  0.5505330000000  0.7555950000000  0.5555500000000 1.0
C      1  0.3906420000000  0.7364860000000  0.4444720000000 1.0
C      1  0.2725290000000  0.6270390000000  0.5555540000000 1.0
C      1  0.2412960000000  0.4690760000000  0.4444660000000 1.0
C      1  0.6014110000000  0.7378670000000  0.4706020000000 1.0
C      1  0.4422310000000  0.7520450000000  0.5294160000000 1.0
C      1  0.3051130000000  0.6699540000000  0.4706090000000 1.0
C      1  0.2424390000000  0.5229430000000  0.5294130000000 1.0
C      1  0.2781410000000  0.3671720000000  0.4705980000000 1.0
C      1  0.3985890000000  0.2621330000000  0.5293980000000 1.0
C      1  0.5577690000000  0.2479550000000  0.4705840000000 1.0
C      1  0.6948870000000  0.3300460000000  0.5293910000000 1.0
C      1  0.7575610000000  0.4770570000000  0.4705870000000 1.0
C      1  0.7218590000000  0.6328280000000  0.5294020000000 1.0
C      1  0.5858370000000  0.4606890000000  0.6313370000000 1.0
C      1  0.5925400000000  0.5186580000000  0.3686570000000 1.0
C      1  0.5639100000000  0.5694810000000  0.6313420000000 1.0
C      1  0.5108540000000  0.5937840000000  0.3686620000000 1.0
C      1  0.4536670000000  0.5822450000000  0.6313460000000 1.0
C      1  0.4141630000000  0.5393110000000  0.3686630000000 1.0
C      1  0.4074600000000  0.4813420000000  0.6313430000000 1.0
C      1  0.4360900000000  0.4305190000000  0.3686580000000 1.0
C      1  0.4891460000000  0.4062160000000  0.6313380000000 1.0
C      1  0.5463330000000  0.4177550000000  0.3686540000000 1.0
END
