TITL C-3036484-3770-680 -3.39643522664888e-06 3375 -352.856639846767 0 0 60 (C1) n - 1
REM
REM in /home/bkarasulu/work/CARBON/AIRSS/Generating-Clusters/REBO/Higher-Symm/Only-C60
REM
REM
REM
REM
REM
REM ./C.cell (a2850807a9bf4ad07a5b6933b78d9264)
REM AIRSS Version 0.9.1 bugfix July 2018 build 013d7b7c2542+ Fri, 06 Jul 2018 19:26:36 +0100
REM compiler GCC version 9.2.1 20190827 (Red Hat 9.2.1-1)
REM options -cpp -mtune=generic -march=x86-64 -g -O0 -fpre-include=/usr/include/finclude/math-vector-fortran.h
REM seed 241672572 1370435663 -1086292707 1507250957 -1096891467 -938026828 1325156763 482016852 -717517515 563492130 -888724347 -445315413 984857997 -375427595 406647070 -810848164 1108409254 1242413775 598561076 -1440669083 2087785989 535613199 758811839 -854609489 742374576 -2144294536 -9714408 88342129 -93121163 -1562994362 -2013550737 -439376410 -1689245488
REM
CELL 1.54180   15.00000   15.00000   15.00000   90.00000   90.00000   90.00000
LATT -1
SFAC C  
C      1  0.6784460000000  0.6147700000000  0.4520480000000 1.0
C      1  0.3191900000000  0.6218900000000  0.5499490000000 1.0
C      1  0.3211300000000  0.6332950000000  0.4473170000000 1.0
C      1  0.6801870000000  0.6268560000000  0.5557170000000 1.0
C      1  0.5518200000000  0.7263230000000  0.5422940000000 1.0
C      1  0.4146210000000  0.7275890000000  0.4581330000000 1.0
C      1  0.4122970000000  0.7168820000000  0.5407200000000 1.0
C      1  0.5515650000000  0.7179410000000  0.4588840000000 1.0
C      1  0.3082760000000  0.4670230000000  0.4054280000000 1.0
C      1  0.6939830000000  0.4599790000000  0.5954330000000 1.0
C      1  0.7104220000000  0.4482460000000  0.3957920000000 1.0
C      1  0.2908910000000  0.4546320000000  0.6054740000000 1.0
C      1  0.5921060000000  0.2568740000000  0.4544690000000 1.0
C      1  0.4041260000000  0.2610520000000  0.5433970000000 1.0
C      1  0.4134420000000  0.2706570000000  0.4610630000000 1.0
C      1  0.5839010000000  0.2662200000000  0.5369420000000 1.0
C      1  0.4575390000000  0.3486060000000  0.4112180000000 1.0
C      1  0.5431710000000  0.3456640000000  0.5868810000000 1.0
C      1  0.5588670000000  0.3302320000000  0.3921350000000 1.0
C      1  0.4411350000000  0.3319280000000  0.6064600000000 1.0
C      1  0.5951640000000  0.5793840000000  0.2481500000000 1.0
C      1  0.4144130000000  0.5825680000000  0.7594890000000 1.0
C      1  0.4178310000000  0.5990030000000  0.2314220000000 1.0
C      1  0.5928760000000  0.5976770000000  0.7610090000000 1.0
C      1  0.6656350000000  0.3735400000000  0.5442110000000 1.0
C      1  0.3369380000000  0.3806370000000  0.4564270000000 1.0
C      1  0.3303480000000  0.3759900000000  0.5480080000000 1.0
C      1  0.6707760000000  0.3690170000000  0.4524780000000 1.0
C      1  0.4588170000000  0.6471020000000  0.3025670000000 1.0
C      1  0.5470810000000  0.6473040000000  0.6938990000000 1.0
C      1  0.5532870000000  0.6373580000000  0.3105470000000 1.0
C      1  0.4523400000000  0.6374630000000  0.6919850000000 1.0
C      1  0.5583440000000  0.4129080000000  0.2838790000000 1.0
C      1  0.4447740000000  0.4162440000000  0.7182270000000 1.0
C      1  0.4516550000000  0.4279410000000  0.2792150000000 1.0
C      1  0.5523830000000  0.4267070000000  0.7203980000000 1.0
C      1  0.5435930000000  0.5458370000000  0.4498550000000 1.0
C      1  0.4566240000000  0.5477580000000  0.5505860000000 1.0
C      1  0.4333920000000  0.5584240000000  0.4403620000000 1.0
C      1  0.5667320000000  0.5572390000000  0.5588440000000 1.0
C      1  0.7298390000000  0.5263870000000  0.4402290000000 1.0
C      1  0.2683090000000  0.5322990000000  0.5608800000000 1.0
C      1  0.2778280000000  0.5401250000000  0.4542250000000 1.0
C      1  0.7230600000000  0.5338460000000  0.5470000000000 1.0
C      1  0.3851230000000  0.4041360000000  0.3534180000000 1.0
C      1  0.6159370000000  0.3980250000000  0.6463840000000 1.0
C      1  0.6406020000000  0.3819270000000  0.3415300000000 1.0
C      1  0.3627660000000  0.3880550000000  0.6584840000000 1.0
C      1  0.5893200000000  0.6502870000000  0.6027280000000 1.0
C      1  0.4102430000000  0.6461430000000  0.3889270000000 1.0
C      1  0.4127360000000  0.6283550000000  0.6010320000000 1.0
C      1  0.5858790000000  0.6339800000000  0.4058130000000 1.0
C      1  0.4496990000000  0.4513520000000  0.4593770000000 1.0
C      1  0.5556490000000  0.4483910000000  0.5394100000000 1.0
C      1  0.5571030000000  0.4349180000000  0.4298390000000 1.0
C      1  0.4474220000000  0.4361730000000  0.5686490000000 1.0
C      1  0.4474880000000  0.5104960000000  0.2153240000000 1.0
C      1  0.5621280000000  0.5103430000000  0.7816820000000 1.0
C      1  0.5507700000000  0.4980620000000  0.2262160000000 1.0
C      1  0.4579810000000  0.4999430000000  0.7775410000000 1.0
END
