TITL C-3036481-494-369 6.9154413518528e-06 3375 -333.659573420105 0 0 60 (S12) n - 1
REM
REM in /home/bkarasulu/work/CARBON/AIRSS/Generating-Clusters/REBO/Higher-Symm/Only-C60
REM
REM
REM
REM
REM
REM ./C.cell (a2850807a9bf4ad07a5b6933b78d9264)
REM AIRSS Version 0.9.1 bugfix July 2018 build 013d7b7c2542+ Fri, 06 Jul 2018 19:26:36 +0100
REM compiler GCC version 9.2.1 20190827 (Red Hat 9.2.1-1)
REM options -cpp -mtune=generic -march=x86-64 -g -O0 -fpre-include=/usr/include/finclude/math-vector-fortran.h
REM seed 781568428 -659680400 1747183680 -99123621 1832931708 -712983060 772765896 -1383424203 1871852177 659955853 -225308816 269863759 -906022451 1286969776 2052741244 -1244746048 -201841150 513139398 1102452741 -796781971 1170212725 1979605692 1547196050 1969378752 1907901368 1160659422 -318693357 -962628184 1369978050 -1320897097 -738262014 249579287 -656045082
REM
CELL 1.54180   15.00000   15.00000   15.00000   90.00000   90.00000   90.00000
LATT -1
SFAC C  
C      1  0.3672590000000  0.4153350000000  0.3453350000000 1.0
C      1  0.6327460000000  0.5040220000000  0.3237280000000 1.0
C      1  0.3672510000000  0.5916080000000  0.3493500000000 1.0
C      1  0.6327380000000  0.6546710000000  0.4153420000000 1.0
C      1  0.3672460000000  0.6762670000000  0.5040150000000 1.0
C      1  0.6327370000000  0.6506550000000  0.5916150000000 1.0
C      1  0.3672500000000  0.5846520000000  0.6546640000000 1.0
C      1  0.6327440000000  0.4959900000000  0.6762730000000 1.0
C      1  0.3672580000000  0.4083800000000  0.6506490000000 1.0
C      1  0.6327520000000  0.3453420000000  0.5846590000000 1.0
C      1  0.3672630000000  0.3237210000000  0.4959840000000 1.0
C      1  0.6327530000000  0.3493580000000  0.4083860000000 1.0
C      1  0.3633770000000  0.4959870000000  0.1899160000000 1.0
C      1  0.6366200000000  0.6515800000000  0.2294580000000 1.0
C      1  0.3633610000000  0.7665310000000  0.3414890000000 1.0
C      1  0.6366150000000  0.8100890000000  0.4959970000000 1.0
C      1  0.3633590000000  0.7705360000000  0.6515720000000 1.0
C      1  0.6366180000000  0.6585160000000  0.7665390000000 1.0
C      1  0.3633750000000  0.5039990000000  0.8100830000000 1.0
C      1  0.6366310000000  0.3484330000000  0.7705430000000 1.0
C      1  0.3633880000000  0.2334560000000  0.6585100000000 1.0
C      1  0.6366410000000  0.1899230000000  0.5040050000000 1.0
C      1  0.3633890000000  0.2294500000000  0.3484270000000 1.0
C      1  0.6366350000000  0.3414970000000  0.2334630000000 1.0
C      1  0.3834980000000  0.6840970000000  0.6059590000000 1.0
C      1  0.6164870000000  0.6064630000000  0.6838160000000 1.0
C      1  0.3835070000000  0.5002820000000  0.7124170000000 1.0
C      1  0.6164960000000  0.3940450000000  0.6841030000000 1.0
C      1  0.3835160000000  0.3161790000000  0.6064570000000 1.0
C      1  0.6165030000000  0.2875880000000  0.5002870000000 1.0
C      1  0.3835170000000  0.3158920000000  0.3940400000000 1.0
C      1  0.6164980000000  0.3935480000000  0.3161850000000 1.0
C      1  0.3835090000000  0.4997070000000  0.2875820000000 1.0
C      1  0.6164880000000  0.6059660000000  0.3158980000000 1.0
C      1  0.3834990000000  0.6838100000000  0.3935420000000 1.0
C      1  0.6164830000000  0.7124230000000  0.4997140000000 1.0
C      1  0.3064420000000  0.4073770000000  0.4985070000000 1.0
C      1  0.6935650000000  0.4205500000000  0.4524020000000 1.0
C      1  0.3064410000000  0.4549760000000  0.4190480000000 1.0
C      1  0.6935620000000  0.5015020000000  0.4073880000000 1.0
C      1  0.3064360000000  0.5475890000000  0.4205400000000 1.0
C      1  0.6935580000000  0.5809610000000  0.4549870000000 1.0
C      1  0.3064340000000  0.5926040000000  0.5014910000000 1.0
C      1  0.6935570000000  0.5794690000000  0.5476000000000 1.0
C      1  0.3064360000000  0.5450050000000  0.5809510000000 1.0
C      1  0.6935610000000  0.4985170000000  0.5926140000000 1.0
C      1  0.3064400000000  0.4523920000000  0.5794590000000 1.0
C      1  0.6935650000000  0.4190580000000  0.5450150000000 1.0
C      1  0.5282250000000  0.5394450000000  0.6685570000000 1.0
C      1  0.4717740000000  0.4498790000000  0.6656960000000 1.0
C      1  0.5282330000000  0.3737480000000  0.6184370000000 1.0
C      1  0.4717800000000  0.3314410000000  0.5394430000000 1.0
C      1  0.5282360000000  0.3343050000000  0.4498800000000 1.0
C      1  0.4717780000000  0.3815620000000  0.3737460000000 1.0
C      1  0.5282300000000  0.4605580000000  0.3314430000000 1.0
C      1  0.4717710000000  0.5501190000000  0.3343040000000 1.0
C      1  0.5282220000000  0.6262550000000  0.3815630000000 1.0
C      1  0.4717640000000  0.6685560000000  0.4605570000000 1.0
C      1  0.5282190000000  0.6656980000000  0.5501200000000 1.0
C      1  0.4717660000000  0.6184360000000  0.6262530000000 1.0
END
