TITL C-3036481-494-989 -3.45114633399177e-05 3375 -338.376007905995 0 0 60 (C2) n - 1
REM
REM in /home/bkarasulu/work/CARBON/AIRSS/Generating-Clusters/REBO/Higher-Symm/Only-C60
REM
REM
REM
REM
REM
REM ./C.cell (a2850807a9bf4ad07a5b6933b78d9264)
REM AIRSS Version 0.9.1 bugfix July 2018 build 013d7b7c2542+ Fri, 06 Jul 2018 19:26:36 +0100
REM compiler GCC version 9.2.1 20190827 (Red Hat 9.2.1-1)
REM options -cpp -mtune=generic -march=x86-64 -g -O0 -fpre-include=/usr/include/finclude/math-vector-fortran.h
REM seed 845911413 -140769144 1712794865 1868675580 2002038678 1287601847 -750974678 376210578 -776084878 987344294 1902521456 1164286799 158278642 508038206 297451417 1943855107 933151653 -464034791 297317778 2078906375 -507925552 203642106 1781230103 -342495779 -1188764286 -2104585467 -1230113357 1437359063 1916815423 -1971082919 -1612853263 1042730400 816642134
REM
CELL 1.54180   15.00000   15.00000   15.00000   90.00000   90.00000   90.00000
LATT -1
SFAC C  
C      1  0.7564230000000  0.7306370000000  0.4423390000000 1.0
C      1  0.4062570000000  0.7176530000000  0.7218070000000 1.0
C      1  0.3238430000000  0.7363530000000  0.3198430000000 1.0
C      1  0.7519350000000  0.2854780000000  0.4677800000000 1.0
C      1  0.4052900000000  0.2771980000000  0.7196120000000 1.0
C      1  0.3257980000000  0.2654020000000  0.3183420000000 1.0
C      1  0.7519460000000  0.7145040000000  0.5322260000000 1.0
C      1  0.4052590000000  0.7227530000000  0.2803560000000 1.0
C      1  0.3258220000000  0.7346600000000  0.6815780000000 1.0
C      1  0.7564050000000  0.2693550000000  0.5576850000000 1.0
C      1  0.4062480000000  0.2823900000000  0.2781320000000 1.0
C      1  0.3238740000000  0.2635850000000  0.6800970000000 1.0
C      1  0.3168980000000  0.4513930000000  0.4083160000000 1.0
C      1  0.6776720000000  0.4524240000000  0.3821610000000 1.0
C      1  0.5120900000000  0.4474220000000  0.7044360000000 1.0
C      1  0.3172380000000  0.5497360000000  0.4079640000000 1.0
C      1  0.6782730000000  0.5518170000000  0.3804520000000 1.0
C      1  0.5115630000000  0.5471370000000  0.7044380000000 1.0
C      1  0.3172590000000  0.4502580000000  0.5920600000000 1.0
C      1  0.6782620000000  0.4481830000000  0.6195640000000 1.0
C      1  0.5115880000000  0.4528680000000  0.2955610000000 1.0
C      1  0.3169200000000  0.5485970000000  0.5917100000000 1.0
C      1  0.6776650000000  0.5475800000000  0.6178600000000 1.0
C      1  0.5121110000000  0.5525810000000  0.2955660000000 1.0
C      1  0.3464600000000  0.3506930000000  0.6254120000000 1.0
C      1  0.4520880000000  0.3645300000000  0.3152420000000 1.0
C      1  0.6969670000000  0.3559210000000  0.5665380000000 1.0
C      1  0.3464370000000  0.6481510000000  0.6252610000000 1.0
C      1  0.4530810000000  0.6411410000000  0.3160940000000 1.0
C      1  0.6968970000000  0.6327940000000  0.5548290000000 1.0
C      1  0.3464430000000  0.3518800000000  0.3747030000000 1.0
C      1  0.4530690000000  0.3588480000000  0.6838950000000 1.0
C      1  0.6968950000000  0.3672030000000  0.4452090000000 1.0
C      1  0.3464570000000  0.6492830000000  0.3745590000000 1.0
C      1  0.4520710000000  0.6354790000000  0.6847400000000 1.0
C      1  0.6969810000000  0.6440980000000  0.4334760000000 1.0
C      1  0.5962940000000  0.4202230000000  0.2451890000000 1.0
C      1  0.6708420000000  0.4179820000000  0.7188730000000 1.0
C      1  0.2305700000000  0.4174200000000  0.5421480000000 1.0
C      1  0.5959900000000  0.5835650000000  0.2433750000000 1.0
C      1  0.6704340000000  0.5811230000000  0.7155830000000 1.0
C      1  0.2302480000000  0.5814680000000  0.5418840000000 1.0
C      1  0.5959650000000  0.4164430000000  0.7566380000000 1.0
C      1  0.6704580000000  0.4188810000000  0.2844350000000 1.0
C      1  0.2302380000000  0.4185340000000  0.4581590000000 1.0
C      1  0.5962640000000  0.5797830000000  0.7548200000000 1.0
C      1  0.6708630000000  0.5820230000000  0.2811460000000 1.0
C      1  0.2305610000000  0.5825710000000  0.4578980000000 1.0
C      1  0.5932340000000  0.5869150000000  0.5529840000000 1.0
C      1  0.4123270000000  0.5946640000000  0.5503150000000 1.0
C      1  0.5087870000000  0.5928580000000  0.4016600000000 1.0
C      1  0.5963780000000  0.4064160000000  0.5526990000000 1.0
C      1  0.4127180000000  0.4041670000000  0.5506010000000 1.0
C      1  0.5069630000000  0.4128600000000  0.4015700000000 1.0
C      1  0.5963680000000  0.5935880000000  0.4473130000000 1.0
C      1  0.4127120000000  0.5958240000000  0.4493950000000 1.0
C      1  0.5069610000000  0.5871400000000  0.5984280000000 1.0
C      1  0.5932340000000  0.4130880000000  0.4470230000000 1.0
C      1  0.4123230000000  0.4053360000000  0.4496820000000 1.0
C      1  0.5087850000000  0.4071420000000  0.5983410000000 1.0
END
