TITL C-3036484-3770-201 -6.00221909918708e-05 3375 -337.469299793704 0 0 60 (C3) n - 1
REM
REM in /home/bkarasulu/work/CARBON/AIRSS/Generating-Clusters/REBO/Higher-Symm/Only-C60
REM
REM
REM
REM
REM
REM ./C.cell (a2850807a9bf4ad07a5b6933b78d9264)
REM AIRSS Version 0.9.1 bugfix July 2018 build 013d7b7c2542+ Fri, 06 Jul 2018 19:26:36 +0100
REM compiler GCC version 9.2.1 20190827 (Red Hat 9.2.1-1)
REM options -cpp -mtune=generic -march=x86-64 -g -O0 -fpre-include=/usr/include/finclude/math-vector-fortran.h
REM seed -908149901 398934143 2061715404 -329850814 -1707070615 -51443272 -1218270952 -2065036798 -1058739443 -1496506325 1752005388 -986864340 2048370935 -1533348528 324444487 -680327693 -617545516 -945418000 -1441996718 -1998717855 613424683 6806135 -1573881634 -2103821308 -2017888154 1226442641 -1453896519 1244864465 1771150971 -1102047383 995155231 1424913802 -382970443
REM
CELL 1.54180   15.00000   15.00000   15.00000   90.00000   90.00000   90.00000
LATT -1
SFAC C  
C      1  0.4634320000000  0.4856000000000  0.3940810000000 1.0
C      1  0.4634290000000  0.5989290000000  0.5404860000000 1.0
C      1  0.4634260000000  0.4154730000000  0.5654280000000 1.0
C      1  0.3687520000000  0.4489880000000  0.3423950000000 1.0
C      1  0.3687500000000  0.6619980000000  0.5346190000000 1.0
C      1  0.3687450000000  0.3890220000000  0.6229780000000 1.0
C      1  0.5268500000000  0.3829000000000  0.3294860000000 1.0
C      1  0.5268520000000  0.7062190000000  0.4838440000000 1.0
C      1  0.5268400000000  0.4108840000000  0.6866710000000 1.0
C      1  0.5282340000000  0.4987130000000  0.2151160000000 1.0
C      1  0.5282330000000  0.7473610000000  0.6413240000000 1.0
C      1  0.5282170000000  0.2539300000000  0.6435630000000 1.0
C      1  0.6613030000000  0.6570130000000  0.5915880000000 1.0
C      1  0.6612960000000  0.3421710000000  0.5901960000000 1.0
C      1  0.6613060000000  0.5008030000000  0.3182270000000 1.0
C      1  0.4624840000000  0.6325620000000  0.6494450000000 1.0
C      1  0.4624830000000  0.3042960000000  0.5400730000000 1.0
C      1  0.4624880000000  0.5631460000000  0.3104770000000 1.0
C      1  0.5798320000000  0.3770010000000  0.5169370000000 1.0
C      1  0.5798370000000  0.5468330000000  0.3850150000000 1.0
C      1  0.5798320000000  0.5761610000000  0.5980520000000 1.0
C      1  0.5302070000000  0.5737530000000  0.7205770000000 1.0
C      1  0.5302080000000  0.2721000000000  0.4535790000000 1.0
C      1  0.5302140000000  0.6541500000000  0.3258420000000 1.0
C      1  0.4876170000000  0.5872840000000  0.4381830000000 1.0
C      1  0.4876080000000  0.5098930000000  0.6064980000000 1.0
C      1  0.4876150000000  0.4028240000000  0.4553160000000 1.0
C      1  0.3042320000000  0.5170640000000  0.3550250000000 1.0
C      1  0.3042290000000  0.6170230000000  0.5872580000000 1.0
C      1  0.3042270000000  0.3659200000000  0.5577070000000 1.0
C      1  0.4130550000000  0.5181260000000  0.6929950000000 1.0
C      1  0.4130590000000  0.3238040000000  0.4191930000000 1.0
C      1  0.4130630000000  0.6580790000000  0.3878090000000 1.0
C      1  0.2594760000000  0.5483110000000  0.5413300000000 1.0
C      1  0.2594730000000  0.4400520000000  0.5211670000000 1.0
C      1  0.2594770000000  0.5116420000000  0.4374940000000 1.0
C      1  0.4335290000000  0.4192130000000  0.6945600000000 1.0
C      1  0.4335380000000  0.3719010000000  0.3327470000000 1.0
C      1  0.4335400000000  0.7088960000000  0.4726860000000 1.0
C      1  0.6812840000000  0.4233940000000  0.4941070000000 1.0
C      1  0.6812840000000  0.5434000000000  0.4366170000000 1.0
C      1  0.6812800000000  0.5331850000000  0.5692900000000 1.0
C      1  0.7201020000000  0.4484320000000  0.3918890000000 1.0
C      1  0.7201020000000  0.6194040000000  0.5094070000000 1.0
C      1  0.7200970000000  0.4321450000000  0.5987200000000 1.0
C      1  0.5596300000000  0.4731460000000  0.2992720000000 1.0
C      1  0.5596290000000  0.6872620000000  0.5771070000000 1.0
C      1  0.5596190000000  0.3395930000000  0.6236240000000 1.0
C      1  0.5758910000000  0.6818190000000  0.4047480000000 1.0
C      1  0.5758810000000  0.4915810000000  0.7050920000000 1.0
C      1  0.5758870000000  0.3265960000000  0.3901630000000 1.0
C      1  0.3512250000000  0.6101220000000  0.6751320000000 1.0
C      1  0.3512250000000  0.2932730000000  0.5077910000000 1.0
C      1  0.3512300000000  0.5966160000000  0.3170690000000 1.0
C      1  0.4294640000000  0.6101450000000  0.7581260000000 1.0
C      1  0.4294640000000  0.2213870000000  0.4663140000000 1.0
C      1  0.4294710000000  0.6684770000000  0.2755530000000 1.0
C      1  0.6634190000000  0.6521920000000  0.4185100000000 1.0
C      1  0.6634120000000  0.4944730000000  0.6725610000000 1.0
C      1  0.6634170000000  0.3533210000000  0.4089400000000 1.0
END
