TITL C-3036481-494-915 0.00847423447490405 3375 -346.734895130101 0 0 60 (C1) n - 1
REM
REM in /home/bkarasulu/work/CARBON/AIRSS/Generating-Clusters/REBO/Higher-Symm/Only-C60
REM
REM
REM
REM
REM
REM ./C.cell (a2850807a9bf4ad07a5b6933b78d9264)
REM AIRSS Version 0.9.1 bugfix July 2018 build 013d7b7c2542+ Fri, 06 Jul 2018 19:26:36 +0100
REM compiler GCC version 9.2.1 20190827 (Red Hat 9.2.1-1)
REM options -cpp -mtune=generic -march=x86-64 -g -O0 -fpre-include=/usr/include/finclude/math-vector-fortran.h
REM seed 459653217 -1205014777 -837958682 -688661803 -253741485 1352628460 1979369457 1378076406 1554899756 2063597367 -83448906 1150212188 -1676633621 -783109347 546285897 1549477883 1494185358 -1662630915 1033980284 -1046610908 1643609591 251856349 523606382 1202100265 1736779518 1257329196 566958239 1443383827 -859116605 1434790303 -10789542 1955399911 33846194
REM
CELL 1.54180   15.00000   15.00000   15.00000   90.00000   90.00000   90.00000
LATT -1
SFAC C  
C      1  0.3104340000000  0.4744630000000  0.3726480000000 1.0
C      1  0.5937220000000  0.6717550000000  0.5849080000000 1.0
C      1  0.5425000000000  0.6795750000000  0.2856150000000 1.0
C      1  0.4233010000000  0.5765690000000  0.3165130000000 1.0
C      1  0.7330190000000  0.5597340000000  0.5430750000000 1.0
C      1  0.4959860000000  0.3551860000000  0.3012870000000 1.0
C      1  0.5029770000000  0.6017840000000  0.2534150000000 1.0
C      1  0.3304500000000  0.2913370000000  0.7302330000000 1.0
C      1  0.6026680000000  0.4317580000000  0.4161890000000 1.0
C      1  0.7051040000000  0.6000330000000  0.3495310000000 1.0
C      1  0.5568060000000  0.3375100000000  0.3728670000000 1.0
C      1  0.6848090000000  0.6009940000000  0.4529070000000 1.0
C      1  0.5335910000000  0.5071530000000  0.6156350000000 1.0
C      1  0.7365770000000  0.4904710000000  0.6876060000000 1.0
C      1  0.7159840000000  0.4745610000000  0.2342360000000 1.0
C      1  0.3093390000000  0.4022610000000  0.6095510000000 1.0
C      1  0.4340150000000  0.7007230000000  0.4896530000000 1.0
C      1  0.3219900000000  0.5598020000000  0.5083660000000 1.0
C      1  0.5615730000000  0.4196030000000  0.5201490000000 1.0
C      1  0.6096440000000  0.5880240000000  0.6423640000000 1.0
C      1  0.5148260000000  0.5878840000000  0.5122660000000 1.0
C      1  0.4907690000000  0.6314010000000  0.6823600000000 1.0
C      1  0.4897920000000  0.4495510000000  0.4120570000000 1.0
C      1  0.4709220000000  0.6216570000000  0.5895930000000 1.0
C      1  0.5635450000000  0.3184530000000  0.4740530000000 1.0
C      1  0.2382210000000  0.4576400000000  0.6309290000000 1.0
C      1  0.3473760000000  0.5699620000000  0.4022460000000 1.0
C      1  0.4616750000000  0.4568290000000  0.5445620000000 1.0
C      1  0.3721250000000  0.3312420000000  0.4114200000000 1.0
C      1  0.6572480000000  0.5329930000000  0.2742430000000 1.0
C      1  0.3551770000000  0.4535410000000  0.5318960000000 1.0
C      1  0.6835760000000  0.4149470000000  0.6607670000000 1.0
C      1  0.6650550000000  0.4929730000000  0.4812850000000 1.0
C      1  0.6140600000000  0.6678770000000  0.4739850000000 1.0
C      1  0.3427410000000  0.4261040000000  0.2893800000000 1.0
C      1  0.5347420000000  0.5439060000000  0.4369380000000 1.0
C      1  0.4292300000000  0.5158530000000  0.6590140000000 1.0
C      1  0.5167450000000  0.4713780000000  0.7489300000000 1.0
C      1  0.7089970000000  0.5648330000000  0.6350000000000 1.0
C      1  0.5943500000000  0.5805110000000  0.3575070000000 1.0
C      1  0.5588960000000  0.5262360000000  0.2381170000000 1.0
C      1  0.3695330000000  0.3574710000000  0.6781680000000 1.0
C      1  0.3717630000000  0.6483520000000  0.5589540000000 1.0
C      1  0.5229650000000  0.7207160000000  0.5175160000000 1.0
C      1  0.4295710000000  0.6483460000000  0.4006790000000 1.0
C      1  0.4878880000000  0.3165720000000  0.5583050000000 1.0
C      1  0.4192840000000  0.4388790000000  0.7218810000000 1.0
C      1  0.4710780000000  0.3410930000000  0.6475180000000 1.0
C      1  0.2621260000000  0.5457490000000  0.6056370000000 1.0
C      1  0.6329630000000  0.4612930000000  0.5854620000000 1.0
C      1  0.3570900000000  0.5710900000000  0.6357010000000 1.0
C      1  0.4351380000000  0.4716120000000  0.3232510000000 1.0
C      1  0.5373800000000  0.6722620000000  0.3940570000000 1.0
C      1  0.5467300000000  0.5627420000000  0.7347280000000 1.0
C      1  0.5364120000000  0.3767200000000  0.7090190000000 1.0
C      1  0.5143650000000  0.4455650000000  0.2565200000000 1.0
C      1  0.4436900000000  0.3734910000000  0.4726170000000 1.0
C      1  0.3988440000000  0.3425170000000  0.3170330000000 1.0
C      1  0.3199470000000  0.4118770000000  0.4435030000000 1.0
C      1  0.6286750000000  0.3545850000000  0.7061560000000 1.0
END
