TITL C-3036480-97-583 -7.93932540903895e-06 3375 -352.493293104263 0 0 60 (C1) n - 1
REM
REM in /home/bkarasulu/work/CARBON/AIRSS/Generating-Clusters/REBO/Higher-Symm/Only-C60
REM
REM
REM
REM
REM
REM ./C.cell (a2850807a9bf4ad07a5b6933b78d9264)
REM AIRSS Version 0.9.1 bugfix July 2018 build 013d7b7c2542+ Fri, 06 Jul 2018 19:26:36 +0100
REM compiler GCC version 9.2.1 20190827 (Red Hat 9.2.1-1)
REM options -cpp -mtune=generic -march=x86-64 -g -O0 -fpre-include=/usr/include/finclude/math-vector-fortran.h
REM seed -10170190 -1813845670 1444108803 -1400741983 1821802839 -856118688 -1295621654 887181541 953494779 -1866086482 -403434382 1422903697 1693090477 1009409183 297003741 -2134975737 -1708286859 -1139811264 -13537637 765170948 -998633022 1204208646 1146543232 -767377325 1045969715 -1936232718 72791006 -1422338076 -1084642303 -1970030819 -2071532083 338778589 -569968740
REM
CELL 1.54180   15.00000   15.00000   15.00000   90.00000   90.00000   90.00000
LATT -1
SFAC C  
C      1  0.5058370000000  0.6939380000000  0.6152970000000 1.0
C      1  0.5824230000000  0.6535220000000  0.6641340000000 1.0
C      1  0.3102930000000  0.6171670000000  0.3952460000000 1.0
C      1  0.6163750000000  0.3167140000000  0.6269360000000 1.0
C      1  0.6687430000000  0.4530000000000  0.4643470000000 1.0
C      1  0.3745880000000  0.2581480000000  0.5320650000000 1.0
C      1  0.6371520000000  0.7032270000000  0.4349290000000 1.0
C      1  0.5646230000000  0.4215680000000  0.4849410000000 1.0
C      1  0.7076380000000  0.3418180000000  0.5669940000000 1.0
C      1  0.3441890000000  0.6651640000000  0.5874120000000 1.0
C      1  0.5546220000000  0.4530920000000  0.3106070000000 1.0
C      1  0.4634910000000  0.4881570000000  0.3649400000000 1.0
C      1  0.3874950000000  0.6814480000000  0.4150390000000 1.0
C      1  0.3415840000000  0.5902190000000  0.6499790000000 1.0
C      1  0.6641670000000  0.6719280000000  0.6208410000000 1.0
C      1  0.5509670000000  0.5517300000000  0.7020300000000 1.0
C      1  0.6916920000000  0.6937800000000  0.5141460000000 1.0
C      1  0.7236290000000  0.4325900000000  0.5449150000000 1.0
C      1  0.2904100000000  0.5478630000000  0.3347750000000 1.0
C      1  0.6337760000000  0.5784620000000  0.4811720000000 1.0
C      1  0.3757530000000  0.4875240000000  0.3026690000000 1.0
C      1  0.5278160000000  0.5478200000000  0.2654160000000 1.0
C      1  0.4488920000000  0.4662170000000  0.7052170000000 1.0
C      1  0.7047740000000  0.5039900000000  0.6055790000000 1.0
C      1  0.6458410000000  0.2952800000000  0.4988720000000 1.0
C      1  0.3898190000000  0.7084390000000  0.5112100000000 1.0
C      1  0.5397290000000  0.7152830000000  0.4647570000000 1.0
C      1  0.4646080000000  0.3093880000000  0.4090460000000 1.0
C      1  0.4678280000000  0.6038280000000  0.6118980000000 1.0
C      1  0.3204620000000  0.5032960000000  0.6196770000000 1.0
C      1  0.4792290000000  0.7387290000000  0.5347860000000 1.0
C      1  0.3340800000000  0.5816440000000  0.4848010000000 1.0
C      1  0.6508230000000  0.4331770000000  0.3550890000000 1.0
C      1  0.5857620000000  0.3655980000000  0.7204440000000 1.0
C      1  0.5752190000000  0.4126470000000  0.5964150000000 1.0
C      1  0.5391110000000  0.4409530000000  0.7375940000000 1.0
C      1  0.2998990000000  0.4043680000000  0.5841530000000 1.0
C      1  0.3637700000000  0.4816320000000  0.4963680000000 1.0
C      1  0.4772030000000  0.3967770000000  0.5552340000000 1.0
C      1  0.2936270000000  0.4429010000000  0.3639100000000 1.0
C      1  0.4682330000000  0.6693060000000  0.3620390000000 1.0
C      1  0.4374950000000  0.5702600000000  0.7075240000000 1.0
C      1  0.4057930000000  0.4277440000000  0.6173620000000 1.0
C      1  0.5451110000000  0.6257470000000  0.3207280000000 1.0
C      1  0.4209130000000  0.5609590000000  0.5451880000000 1.0
C      1  0.5357050000000  0.3768540000000  0.3892010000000 1.0
C      1  0.6364220000000  0.3355870000000  0.4127600000000 1.0
C      1  0.6789550000000  0.5377150000000  0.3892960000000 1.0
C      1  0.2936870000000  0.3317890000000  0.5085070000000 1.0
C      1  0.6187040000000  0.4891130000000  0.6436280000000 1.0
C      1  0.3145870000000  0.4177030000000  0.4514240000000 1.0
C      1  0.5606520000000  0.2610950000000  0.5460780000000 1.0
C      1  0.4408530000000  0.5368410000000  0.2341490000000 1.0
C      1  0.4686710000000  0.2976530000000  0.5152200000000 1.0
C      1  0.7038700000000  0.5914410000000  0.5600320000000 1.0
C      1  0.4818430000000  0.5516610000000  0.4270380000000 1.0
C      1  0.3897570000000  0.2706540000000  0.3727290000000 1.0
C      1  0.3224330000000  0.2486090000000  0.4383640000000 1.0
C      1  0.6327410000000  0.6353880000000  0.3616550000000 1.0
C      1  0.5456350000000  0.6108510000000  0.4631960000000 1.0
END
