TITL C-3036484-3770-101 7.36681073603266e-07 3375 -338.626166672928 0 0 60 (C2) n - 1
REM
REM in /home/bkarasulu/work/CARBON/AIRSS/Generating-Clusters/REBO/Higher-Symm/Only-C60
REM
REM
REM
REM
REM
REM ./C.cell (a2850807a9bf4ad07a5b6933b78d9264)
REM AIRSS Version 0.9.1 bugfix July 2018 build 013d7b7c2542+ Fri, 06 Jul 2018 19:26:36 +0100
REM compiler GCC version 9.2.1 20190827 (Red Hat 9.2.1-1)
REM options -cpp -mtune=generic -march=x86-64 -g -O0 -fpre-include=/usr/include/finclude/math-vector-fortran.h
REM seed -1798800183 276182131 -1019488583 -741530337 -1738158074 1294993870 -415398735 1903231650 -525146759 1519955570 -810271167 -939634779 -1571281649 669210874 51242608 2027094778 447845340 1767190230 1916138622 -725817891 -47370603 -745363617 2073761189 -886972568 1394197604 -274955780 -293402740 2079725679 1832049444 350122193 1124367463 -257466454 -1933969356
REM
CELL 1.54180   15.00000   15.00000   15.00000   90.00000   90.00000   90.00000
LATT -1
SFAC C  
C      1  0.4002140000000  0.5568590000000  0.5190860000000 1.0
C      1  0.5997860000000  0.5568590000000  0.4809140000000 1.0
C      1  0.6064510000000  0.3874260000000  0.4095320000000 1.0
C      1  0.3935490000000  0.3874260000000  0.5904680000000 1.0
C      1  0.4798610000000  0.7221070000000  0.6403310000000 1.0
C      1  0.5201390000000  0.7221070000000  0.3596690000000 1.0
C      1  0.5815470000000  0.7130210000000  0.5893610000000 1.0
C      1  0.4184530000000  0.7130210000000  0.4106390000000 1.0
C      1  0.2829160000000  0.4882640000000  0.4026410000000 1.0
C      1  0.7170840000000  0.4882640000000  0.5973590000000 1.0
C      1  0.3455820000000  0.6969600000000  0.4696650000000 1.0
C      1  0.6544180000000  0.6969600000000  0.5303350000000 1.0
C      1  0.7172050000000  0.4189100000000  0.5062450000000 1.0
C      1  0.2827950000000  0.4189100000000  0.4937550000000 1.0
C      1  0.4921110000000  0.5726010000000  0.2875050000000 1.0
C      1  0.5078890000000  0.5726010000000  0.7124950000000 1.0
C      1  0.5429150000000  0.4386590000000  0.4783040000000 1.0
C      1  0.4570850000000  0.4386590000000  0.5216960000000 1.0
C      1  0.3532280000000  0.2620900000000  0.5732990000000 1.0
C      1  0.6467720000000  0.2620900000000  0.4267010000000 1.0
C      1  0.6000310000000  0.5902160000000  0.7189450000000 1.0
C      1  0.3999690000000  0.5902160000000  0.2810550000000 1.0
C      1  0.4533890000000  0.4003190000000  0.3063650000000 1.0
C      1  0.5466110000000  0.4003190000000  0.6936350000000 1.0
C      1  0.5643200000000  0.3007980000000  0.3777500000000 1.0
C      1  0.4356800000000  0.3007980000000  0.6222500000000 1.0
C      1  0.3365540000000  0.5388980000000  0.3176100000000 1.0
C      1  0.6634460000000  0.5388980000000  0.6823900000000 1.0
C      1  0.6467410000000  0.5851470000000  0.3599380000000 1.0
C      1  0.3532590000000  0.5851470000000  0.6400620000000 1.0
C      1  0.4388900000000  0.5113930000000  0.6079390000000 1.0
C      1  0.5611100000000  0.5113930000000  0.3920610000000 1.0
C      1  0.5062910000000  0.6622410000000  0.4527100000000 1.0
C      1  0.4937090000000  0.6622410000000  0.5472900000000 1.0
C      1  0.6294630000000  0.4399900000000  0.6527670000000 1.0
C      1  0.3705370000000  0.4399900000000  0.3472330000000 1.0
C      1  0.3832220000000  0.4699160000000  0.7514360000000 1.0
C      1  0.6167780000000  0.4699160000000  0.2485640000000 1.0
C      1  0.5286830000000  0.3161350000000  0.6462220000000 1.0
C      1  0.4713170000000  0.3161350000000  0.3537780000000 1.0
C      1  0.6153880000000  0.4192800000000  0.5473020000000 1.0
C      1  0.3846120000000  0.4192800000000  0.4526980000000 1.0
C      1  0.3228510000000  0.3118250000000  0.4958960000000 1.0
C      1  0.6771490000000  0.3118250000000  0.5041040000000 1.0
C      1  0.4414340000000  0.6307840000000  0.6803310000000 1.0
C      1  0.5585660000000  0.6307840000000  0.3196690000000 1.0
C      1  0.6865290000000  0.4254600000000  0.3775430000000 1.0
C      1  0.3134710000000  0.4254600000000  0.6224570000000 1.0
C      1  0.3005820000000  0.5321250000000  0.5021830000000 1.0
C      1  0.6994180000000  0.5321250000000  0.4978170000000 1.0
C      1  0.5999780000000  0.3133190000000  0.5791110000000 1.0
C      1  0.4000220000000  0.3133190000000  0.4208890000000 1.0
C      1  0.6087090000000  0.6940300000000  0.4257870000000 1.0
C      1  0.3912910000000  0.6940300000000  0.5742130000000 1.0
C      1  0.3222450000000  0.4952210000000  0.6856730000000 1.0
C      1  0.6777550000000  0.4952210000000  0.3143270000000 1.0
C      1  0.7005290000000  0.6339170000000  0.4466540000000 1.0
C      1  0.2994710000000  0.6339170000000  0.5533460000000 1.0
C      1  0.5215470000000  0.4720880000000  0.2933220000000 1.0
C      1  0.4784530000000  0.4720880000000  0.7066780000000 1.0
END
