TITL C-3036486-2224-819 -0.150786181181148 3375 -328.032739856684 0 0 60 (C4v) n - 1
REM
REM in /home/bkarasulu/work/CARBON/AIRSS/Generating-Clusters/REBO/Higher-Symm/Only-C60
REM
REM
REM
REM
REM
REM ./C.cell (a2850807a9bf4ad07a5b6933b78d9264)
REM AIRSS Version 0.9.1 bugfix July 2018 build 013d7b7c2542+ Fri, 06 Jul 2018 19:26:36 +0100
REM compiler GCC version 9.2.1 20190827 (Red Hat 9.2.1-1)
REM options -cpp -mtune=generic -march=x86-64 -g -O0 -fpre-include=/usr/include/finclude/math-vector-fortran.h
REM seed -632897577 1533530328 -1588194294 -1322045937 834561766 -1465826652 1931296917 -1549806468 936641118 1653514872 1731239068 -1769530773 -1791655339 -406461509 1477813730 -1916190178 -1938754714 238133803 1469692385 -1139061392 -1510323032 248939036 -405885634 -753676101 1531911116 147617210 479106990 -1463094730 -1566760479 1548547244 -498814556 -717429410 1364566826
REM
CELL 1.54180   15.00000   15.00000   15.00000   90.00000   90.00000   90.00000
LATT -1
SFAC C  
C      1  0.4216100000000  0.2913730000000  0.3734160000000 1.0
C      1  0.2922060000000  0.5792320000000  0.3748110000000 1.0
C      1  0.5789180000000  0.7081980000000  0.3743770000000 1.0
C      1  0.7082920000000  0.4212800000000  0.3740360000000 1.0
C      1  0.5788230000000  0.2918560000000  0.3742140000000 1.0
C      1  0.7084610000000  0.5785970000000  0.3737360000000 1.0
C      1  0.4210370000000  0.7079920000000  0.3746730000000 1.0
C      1  0.2912220000000  0.4218090000000  0.3732900000000 1.0
C      1  0.3617630000000  0.4360640000000  0.5476650000000 1.0
C      1  0.4363770000000  0.6382240000000  0.5473450000000 1.0
C      1  0.6381130000000  0.5634690000000  0.5476280000000 1.0
C      1  0.5637460000000  0.3615800000000  0.5472400000000 1.0
C      1  0.6383080000000  0.4359700000000  0.5475100000000 1.0
C      1  0.5636900000000  0.6382710000000  0.5471880000000 1.0
C      1  0.3617210000000  0.5634680000000  0.5471760000000 1.0
C      1  0.4362980000000  0.3616870000000  0.5474630000000 1.0
C      1  0.5483190000000  0.3836540000000  0.3630950000000 1.0
C      1  0.3834420000000  0.4517370000000  0.3628310000000 1.0
C      1  0.4518120000000  0.6163970000000  0.3633000000000 1.0
C      1  0.6164860000000  0.5483080000000  0.3629710000000 1.0
C      1  0.4516390000000  0.3835290000000  0.3628420000000 1.0
C      1  0.6164330000000  0.4517100000000  0.3630560000000 1.0
C      1  0.5484040000000  0.6164570000000  0.3631670000000 1.0
C      1  0.3837500000000  0.5483720000000  0.3632870000000 1.0
C      1  0.5829590000000  0.2299550000000  0.4518180000000 1.0
C      1  0.2312700000000  0.4167300000000  0.4516640000000 1.0
C      1  0.4171860000000  0.7707170000000  0.4519660000000 1.0
C      1  0.7693130000000  0.5831860000000  0.4518430000000 1.0
C      1  0.4167040000000  0.2311820000000  0.4517100000000 1.0
C      1  0.7698750000000  0.4170400000000  0.4517870000000 1.0
C      1  0.5829250000000  0.7703360000000  0.4518950000000 1.0
C      1  0.2291620000000  0.5827900000000  0.4519500000000 1.0
C      1  0.6361960000000  0.7053840000000  0.4992050000000 1.0
C      1  0.7054100000000  0.3636940000000  0.4995120000000 1.0
C      1  0.3633370000000  0.2943580000000  0.5007380000000 1.0
C      1  0.2953350000000  0.6358040000000  0.4982970000000 1.0
C      1  0.3641360000000  0.7048200000000  0.4984660000000 1.0
C      1  0.2940760000000  0.3633110000000  0.5009020000000 1.0
C      1  0.6362870000000  0.2947950000000  0.4992760000000 1.0
C      1  0.7049710000000  0.6361780000000  0.5000090000000 1.0
C      1  0.7365410000000  0.4451170000000  0.6024750000000 1.0
C      1  0.4449090000000  0.2634970000000  0.6026280000000 1.0
C      1  0.2635430000000  0.5548290000000  0.6024790000000 1.0
C      1  0.5550280000000  0.7364210000000  0.6025110000000 1.0
C      1  0.2634800000000  0.4448640000000  0.6025850000000 1.0
C      1  0.5548470000000  0.2635440000000  0.6025740000000 1.0
C      1  0.7365430000000  0.5550280000000  0.6025350000000 1.0
C      1  0.4450420000000  0.7364700000000  0.6025360000000 1.0
C      1  0.3633040000000  0.5569310000000  0.6601220000000 1.0
C      1  0.5568910000000  0.6367250000000  0.6600990000000 1.0
C      1  0.6367580000000  0.4432460000000  0.6602740000000 1.0
C      1  0.4432030000000  0.3633460000000  0.6602200000000 1.0
C      1  0.6368600000000  0.5567560000000  0.6604220000000 1.0
C      1  0.4432020000000  0.6367420000000  0.6602100000000 1.0
C      1  0.3632270000000  0.4431800000000  0.6603470000000 1.0
C      1  0.5568250000000  0.3633820000000  0.6600830000000 1.0
C      1  0.2114380000000  0.4997600000000  0.5158730000000 1.0
C      1  0.5000410000000  0.7888730000000  0.5161040000000 1.0
C      1  0.7884550000000  0.5001040000000  0.5158640000000 1.0
C      1  0.4998490000000  0.2116730000000  0.5157900000000 1.0
END
