TITL C-3036484-3770-522 -0.00167839355276587 3375 -339.085855491014 0 0 60 (C1) n - 1
REM
REM in /home/bkarasulu/work/CARBON/AIRSS/Generating-Clusters/REBO/Higher-Symm/Only-C60
REM
REM
REM
REM
REM
REM ./C.cell (a2850807a9bf4ad07a5b6933b78d9264)
REM AIRSS Version 0.9.1 bugfix July 2018 build 013d7b7c2542+ Fri, 06 Jul 2018 19:26:36 +0100
REM compiler GCC version 9.2.1 20190827 (Red Hat 9.2.1-1)
REM options -cpp -mtune=generic -march=x86-64 -g -O0 -fpre-include=/usr/include/finclude/math-vector-fortran.h
REM seed 676988700 1730376370 531369209 -1997231418 -993127434 -855254350 331808210 299421457 335631251 1102084630 2055885896 986737695 1715271413 207222311 688035585 321062656 -629978874 -548238001 -843020022 1356933238 670487280 -1483395725 2101830391 243646888 -1328768497 1147826363 358357612 469468254 1910168411 -302086718 465784619 708766113 -910894629
REM
CELL 1.54180   15.00000   15.00000   15.00000   90.00000   90.00000   90.00000
LATT -1
SFAC C  
C      1  0.5603910000000  0.7393120000000  0.4183660000000 1.0
C      1  0.5283910000000  0.2770170000000  0.4247300000000 1.0
C      1  0.4429580000000  0.4658010000000  0.6276170000000 1.0
C      1  0.2941330000000  0.5765650000000  0.5956120000000 1.0
C      1  0.3585150000000  0.4485400000000  0.6985520000000 1.0
C      1  0.4615860000000  0.4623020000000  0.4116670000000 1.0
C      1  0.6210190000000  0.5550720000000  0.4716730000000 1.0
C      1  0.4821910000000  0.5544790000000  0.4175110000000 1.0
C      1  0.5228150000000  0.7548690000000  0.5166680000000 1.0
C      1  0.5776280000000  0.5053010000000  0.5492660000000 1.0
C      1  0.5829940000000  0.6981230000000  0.5785130000000 1.0
C      1  0.4318240000000  0.7515620000000  0.4444100000000 1.0
C      1  0.4489790000000  0.2571420000000  0.4753800000000 1.0
C      1  0.7342750000000  0.5136880000000  0.4156430000000 1.0
C      1  0.7291960000000  0.4853630000000  0.5053290000000 1.0
C      1  0.3549380000000  0.4250020000000  0.5261390000000 1.0
C      1  0.5709500000000  0.5822670000000  0.3525620000000 1.0
C      1  0.5114560000000  0.3305650000000  0.3416170000000 1.0
C      1  0.6279710000000  0.6551760000000  0.4187410000000 1.0
C      1  0.4182840000000  0.7578560000000  0.5577970000000 1.0
C      1  0.4932940000000  0.5474120000000  0.5864940000000 1.0
C      1  0.3922640000000  0.1928530000000  0.4450610000000 1.0
C      1  0.6456860000000  0.5081630000000  0.3493250000000 1.0
C      1  0.4412620000000  0.5869680000000  0.5045640000000 1.0
C      1  0.3812370000000  0.5550530000000  0.6649490000000 1.0
C      1  0.2919030000000  0.6286170000000  0.5059240000000 1.0
C      1  0.6425930000000  0.3372710000000  0.3657120000000 1.0
C      1  0.3800850000000  0.4253450000000  0.3137350000000 1.0
C      1  0.4250440000000  0.3137740000000  0.5437500000000 1.0
C      1  0.5095530000000  0.6720430000000  0.3609050000000 1.0
C      1  0.6516180000000  0.4530620000000  0.6076800000000 1.0
C      1  0.4119420000000  0.6676010000000  0.3706530000000 1.0
C      1  0.6560650000000  0.6460660000000  0.5271820000000 1.0
C      1  0.6210010000000  0.4469740000000  0.4378890000000 1.0
C      1  0.5440980000000  0.3703520000000  0.7033200000000 1.0
C      1  0.3611410000000  0.4155450000000  0.4193770000000 1.0
C      1  0.4413050000000  0.6426470000000  0.6756210000000 1.0
C      1  0.5248020000000  0.5423870000000  0.6967830000000 1.0
C      1  0.4307600000000  0.3611270000000  0.7075850000000 1.0
C      1  0.2866470000000  0.5744940000000  0.4253620000000 1.0
C      1  0.5519030000000  0.6435350000000  0.6578460000000 1.0
C      1  0.6950390000000  0.5573380000000  0.5829620000000 1.0
C      1  0.6328090000000  0.5649320000000  0.6754520000000 1.0
C      1  0.6684230000000  0.3910940000000  0.5180420000000 1.0
C      1  0.5961940000000  0.4584430000000  0.7014740000000 1.0
C      1  0.6219180000000  0.3026760000000  0.4683130000000 1.0
C      1  0.4879640000000  0.3714680000000  0.6062170000000 1.0
C      1  0.3825580000000  0.6713000000000  0.5005190000000 1.0
C      1  0.4388900000000  0.3556300000000  0.2839440000000 1.0
C      1  0.5953120000000  0.2954860000000  0.6470590000000 1.0
C      1  0.2740450000000  0.4802450000000  0.4360530000000 1.0
C      1  0.3619310000000  0.5205620000000  0.5382720000000 1.0
C      1  0.3706810000000  0.5203830000000  0.2959890000000 1.0
C      1  0.3564690000000  0.3654510000000  0.6191340000000 1.0
C      1  0.3523630000000  0.5956590000000  0.3551620000000 1.0
C      1  0.5348150000000  0.4076090000000  0.4001880000000 1.0
C      1  0.4051430000000  0.7266590000000  0.6544350000000 1.0
C      1  0.6213530000000  0.4009780000000  0.2183660000000 1.0
C      1  0.6224740000000  0.2781980000000  0.5718540000000 1.0
C      1  0.6369240000000  0.4085960000000  0.3090490000000 1.0
END
