TITL C-3036481-494-697 3.77924547431175e-06 3375 -337.747244708593 0 0 60 (D3) n - 1
REM
REM in /home/bkarasulu/work/CARBON/AIRSS/Generating-Clusters/REBO/Higher-Symm/Only-C60
REM
REM
REM
REM
REM
REM ./C.cell (a2850807a9bf4ad07a5b6933b78d9264)
REM AIRSS Version 0.9.1 bugfix July 2018 build 013d7b7c2542+ Fri, 06 Jul 2018 19:26:36 +0100
REM compiler GCC version 9.2.1 20190827 (Red Hat 9.2.1-1)
REM options -cpp -mtune=generic -march=x86-64 -g -O0 -fpre-include=/usr/include/finclude/math-vector-fortran.h
REM seed -1033807167 735901301 1145244051 -1787236308 -841652570 545945253 -1788577281 -1561960865 -277819820 -2068900011 -1332550781 -1603911642 -1846410669 -1068956042 1271944575 1321640104 2119002715 -609508524 2091229086 -1776224698 655383052 96783022 941313403 -870215714 718973712 2106064772 1677849253 -59528428 -1535828947 364910902 -180962563 -1044998678 281673879
REM
CELL 1.54180   15.00000   15.00000   15.00000   90.00000   90.00000   90.00000
LATT -1
SFAC C  
C      1  0.3461050000000  0.5310780000000  0.3782220000000 1.0
C      1  0.3461200000000  0.3789850000000  0.5339980000000 1.0
C      1  0.3461260000000  0.5899380000000  0.5878270000000 1.0
C      1  0.6538950000000  0.5310770000000  0.6217780000000 1.0
C      1  0.6538790000000  0.3789840000000  0.4660010000000 1.0
C      1  0.6538740000000  0.5899380000000  0.4121730000000 1.0
C      1  0.5402110000000  0.3708330000000  0.6815710000000 1.0
C      1  0.5401950000000  0.7218320000000  0.5210700000000 1.0
C      1  0.5401720000000  0.4073350000000  0.2973470000000 1.0
C      1  0.4597890000000  0.3708330000000  0.3184290000000 1.0
C      1  0.4598050000000  0.7218320000000  0.4789300000000 1.0
C      1  0.4598280000000  0.4073350000000  0.7026530000000 1.0
C      1  0.6943100000000  0.6791920000000  0.4553100000000 1.0
C      1  0.6943000000000  0.3717180000000  0.3671300000000 1.0
C      1  0.6943320000000  0.4490890000000  0.6775000000000 1.0
C      1  0.3056910000000  0.6791920000000  0.5446900000000 1.0
C      1  0.3056990000000  0.3717180000000  0.6328690000000 1.0
C      1  0.3056680000000  0.4490900000000  0.3225000000000 1.0
C      1  0.5859490000000  0.4957670000000  0.3483610000000 1.0
C      1  0.5859730000000  0.3708010000000  0.5794720000000 1.0
C      1  0.5859720000000  0.6334320000000  0.5721410000000 1.0
C      1  0.4140510000000  0.4957670000000  0.6516390000000 1.0
C      1  0.4140270000000  0.3708010000000  0.4205280000000 1.0
C      1  0.4140280000000  0.6334320000000  0.4278600000000 1.0
C      1  0.6401820000000  0.4469770000000  0.5557270000000 1.0
C      1  0.6401780000000  0.5747850000000  0.5180340000000 1.0
C      1  0.6401690000000  0.4782370000000  0.4261960000000 1.0
C      1  0.3598180000000  0.4469780000000  0.4442730000000 1.0
C      1  0.3598220000000  0.5747850000000  0.4819660000000 1.0
C      1  0.3598310000000  0.4782380000000  0.5738040000000 1.0
C      1  0.3480800000000  0.7328490000000  0.4873120000000 1.0
C      1  0.3480610000000  0.3725740000000  0.3047140000000 1.0
C      1  0.3481030000000  0.3945780000000  0.7080210000000 1.0
C      1  0.6519200000000  0.7328490000000  0.5126890000000 1.0
C      1  0.6519380000000  0.3725730000000  0.6952850000000 1.0
C      1  0.6518970000000  0.3945780000000  0.2919790000000 1.0
C      1  0.4888440000000  0.5879250000000  0.2434230000000 1.0
C      1  0.4888750000000  0.2338340000000  0.5521450000000 1.0
C      1  0.4888910000000  0.6782410000000  0.7044360000000 1.0
C      1  0.5111560000000  0.5879250000000  0.7565780000000 1.0
C      1  0.5111240000000  0.2338340000000  0.4478550000000 1.0
C      1  0.5111090000000  0.6782410000000  0.2955640000000 1.0
C      1  0.5796580000000  0.5484990000000  0.2229640000000 1.0
C      1  0.5796960000000  0.2358370000000  0.5965040000000 1.0
C      1  0.5797050000000  0.7156630000000  0.6805070000000 1.0
C      1  0.4203420000000  0.5484990000000  0.7770360000000 1.0
C      1  0.4203030000000  0.2358380000000  0.4034950000000 1.0
C      1  0.4202950000000  0.7156640000000  0.3194930000000 1.0
C      1  0.5944990000000  0.6022220000000  0.6808370000000 1.0
C      1  0.5944620000000  0.6055070000000  0.3210400000000 1.0
C      1  0.5944800000000  0.2922710000000  0.4980940000000 1.0
C      1  0.4055010000000  0.6022230000000  0.3191630000000 1.0
C      1  0.4055380000000  0.6055060000000  0.6789600000000 1.0
C      1  0.4055190000000  0.2922710000000  0.5019060000000 1.0
C      1  0.6027310000000  0.7614600000000  0.6039080000000 1.0
C      1  0.6026920000000  0.4592660000000  0.2216000000000 1.0
C      1  0.6027380000000  0.2792740000000  0.6744610000000 1.0
C      1  0.3972700000000  0.7614600000000  0.3960930000000 1.0
C      1  0.3973080000000  0.4592660000000  0.7784000000000 1.0
C      1  0.3972620000000  0.2792750000000  0.3255380000000 1.0
END
