TITL C-3036486-2224-649 -0.00667676930283768 3375 -323.557058376597 0 0 60 (D3) n - 1
REM
REM in /home/bkarasulu/work/CARBON/AIRSS/Generating-Clusters/REBO/Higher-Symm/Only-C60
REM
REM
REM
REM
REM
REM ./C.cell (a2850807a9bf4ad07a5b6933b78d9264)
REM AIRSS Version 0.9.1 bugfix July 2018 build 013d7b7c2542+ Fri, 06 Jul 2018 19:26:36 +0100
REM compiler GCC version 9.2.1 20190827 (Red Hat 9.2.1-1)
REM options -cpp -mtune=generic -march=x86-64 -g -O0 -fpre-include=/usr/include/finclude/math-vector-fortran.h
REM seed 291517182 1803221327 -1368690331 2097271609 -1634605772 -1405620055 675759702 -129617303 -1963835809 1142707013 2038935198 2081613837 -249389461 396313773 1588532462 -510476460 1609209903 777660529 623976680 1218220878 738658456 1531603484 -163189598 -1593128622 821981720 -1257961907 -1662049688 435942125 -1236611965 -1358962760 1744100702 1739643266 1431097043
REM
CELL 1.54180   15.00000   15.00000   15.00000   90.00000   90.00000   90.00000
LATT -1
SFAC C  
C      1  0.4919540000000  0.4299960000000  0.6930880000000 1.0
C      1  0.4433960000000  0.5419710000000  0.6930890000000 1.0
C      1  0.5646500000000  0.5280320000000  0.6930890000000 1.0
C      1  0.4919490000000  0.5700030000000  0.3069110000000 1.0
C      1  0.4433980000000  0.4580260000000  0.3069110000000 1.0
C      1  0.5646490000000  0.4719670000000  0.3069130000000 1.0
C      1  0.5355710000000  0.4440730000000  0.5679330000000 1.0
C      1  0.4337800000000  0.4971580000000  0.5679340000000 1.0
C      1  0.5306490000000  0.5587690000000  0.5679330000000 1.0
C      1  0.5355710000000  0.5559270000000  0.4320670000000 1.0
C      1  0.4337800000000  0.5028410000000  0.4320660000000 1.0
C      1  0.5306500000000  0.4412310000000  0.4320660000000 1.0
C      1  0.3206250000000  0.3788990000000  0.4140890000000 1.0
C      1  0.4848110000000  0.7158950000000  0.4140890000000 1.0
C      1  0.6945640000000  0.4052070000000  0.4140890000000 1.0
C      1  0.3206250000000  0.6211010000000  0.5859110000000 1.0
C      1  0.4848110000000  0.2841050000000  0.5859110000000 1.0
C      1  0.6945650000000  0.5947930000000  0.5859110000000 1.0
C      1  0.3334720000000  0.3192760000000  0.5066580000000 1.0
C      1  0.4267520000000  0.7345800000000  0.5066580000000 1.0
C      1  0.7397760000000  0.4461440000000  0.5066580000000 1.0
C      1  0.3334720000000  0.6807240000000  0.4933420000000 1.0
C      1  0.4267520000000  0.2654200000000  0.4933420000000 1.0
C      1  0.7397770000000  0.5538560000000  0.4933420000000 1.0
C      1  0.2768900000000  0.5829850000000  0.4673980000000 1.0
C      1  0.6834220000000  0.6517260000000  0.4673980000000 1.0
C      1  0.5396880000000  0.2652890000000  0.4673980000000 1.0
C      1  0.2768900000000  0.4170150000000  0.5326020000000 1.0
C      1  0.6834220000000  0.3482740000000  0.5326010000000 1.0
C      1  0.5396880000000  0.7347110000000  0.5326010000000 1.0
C      1  0.5946980000000  0.2940010000000  0.5628490000000 1.0
C      1  0.2742510000000  0.5209880000000  0.5628490000000 1.0
C      1  0.6310510000000  0.6850100000000  0.5628490000000 1.0
C      1  0.5946980000000  0.7059990000000  0.4371510000000 1.0
C      1  0.2742510000000  0.4790120000000  0.4371510000000 1.0
C      1  0.6310510000000  0.3149900000000  0.4371510000000 1.0
C      1  0.5033300000000  0.3687530000000  0.3252430000000 1.0
C      1  0.3846690000000  0.5627440000000  0.3252430000000 1.0
C      1  0.6120040000000  0.5685080000000  0.3252440000000 1.0
C      1  0.5033290000000  0.6312490000000  0.6747570000000 1.0
C      1  0.3846710000000  0.4372600000000  0.6747570000000 1.0
C      1  0.6119980000000  0.4314920000000  0.6747570000000 1.0
C      1  0.3410580000000  0.3699470000000  0.6079770000000 1.0
C      1  0.4668420000000  0.7026750000000  0.6079760000000 1.0
C      1  0.6921000000000  0.4273790000000  0.6079770000000 1.0
C      1  0.3410580000000  0.6300530000000  0.3920230000000 1.0
C      1  0.4668410000000  0.2973250000000  0.3920240000000 1.0
C      1  0.6921000000000  0.5726210000000  0.3920230000000 1.0
C      1  0.4397830000000  0.6179920000000  0.4435920000000 1.0
C      1  0.6322930000000  0.4931530000000  0.4435920000000 1.0
C      1  0.4279240000000  0.3888550000000  0.4435920000000 1.0
C      1  0.4397840000000  0.3820070000000  0.5564080000000 1.0
C      1  0.6322930000000  0.5068470000000  0.5564080000000 1.0
C      1  0.4279240000000  0.6111450000000  0.5564080000000 1.0
C      1  0.5483000000000  0.3437320000000  0.6540070000000 1.0
C      1  0.3405180000000  0.5363050000000  0.6540080000000 1.0
C      1  0.6111820000000  0.6199630000000  0.6540080000000 1.0
C      1  0.5483000000000  0.6562680000000  0.3459930000000 1.0
C      1  0.3405180000000  0.4636950000000  0.3459920000000 1.0
C      1  0.6111810000000  0.3800370000000  0.3459920000000 1.0
END
