TITL C-3036481-494-855 -8.65595514628303e-06 3375 -359.2415296545 0 0 60 (C3) n - 1
REM
REM in /home/bkarasulu/work/CARBON/AIRSS/Generating-Clusters/REBO/Higher-Symm/Only-C60
REM
REM
REM
REM
REM
REM ./C.cell (a2850807a9bf4ad07a5b6933b78d9264)
REM AIRSS Version 0.9.1 bugfix July 2018 build 013d7b7c2542+ Fri, 06 Jul 2018 19:26:36 +0100
REM compiler GCC version 9.2.1 20190827 (Red Hat 9.2.1-1)
REM options -cpp -mtune=generic -march=x86-64 -g -O0 -fpre-include=/usr/include/finclude/math-vector-fortran.h
REM seed -1094512580 1196221671 -88308058 1471219241 227134441 2119263263 2015468422 -75724797 -44107034 -1979966153 760094875 1020357594 1137172883 -2068402775 485522744 -61152392 136449142 1763334082 1284049645 -515415682 -1082151843 1589137766 1401152359 2051464703 -1599030789 20041712 1125111458 -842410206 -549109620 -870514382 -1483784042 -1220604806 1125575414
REM
CELL 1.54180   15.00000   15.00000   15.00000   90.00000   90.00000   90.00000
LATT -1
SFAC C  
C      1  0.6465810000000  0.4988610000000  0.7240570000000 1.0
C      1  0.5013820000000  0.7121710000000  0.6508880000000 1.0
C      1  0.7135310000000  0.6364260000000  0.4965720000000 1.0
C      1  0.3635760000000  0.4965600000000  0.2864670000000 1.0
C      1  0.3490830000000  0.4986460000000  0.7121510000000 1.0
C      1  0.6348560000000  0.5012880000000  0.2784130000000 1.0
C      1  0.5011690000000  0.7240360000000  0.3533870000000 1.0
C      1  0.5034100000000  0.2864860000000  0.6364550000000 1.0
C      1  0.4986840000000  0.2783940000000  0.3651750000000 1.0
C      1  0.2878490000000  0.6509150000000  0.4985960000000 1.0
C      1  0.2759460000000  0.3534160000000  0.4988490000000 1.0
C      1  0.7215870000000  0.3651460000000  0.5013380000000 1.0
C      1  0.7220300000000  0.5013420000000  0.6486080000000 1.0
C      1  0.6379880000000  0.7127800000000  0.4985450000000 1.0
C      1  0.4969010000000  0.6328700000000  0.7225990000000 1.0
C      1  0.2872220000000  0.4985540000000  0.3620100000000 1.0
C      1  0.7138660000000  0.5012850000000  0.3505980000000 1.0
C      1  0.2773830000000  0.5031150000000  0.6328390000000 1.0
C      1  0.3671590000000  0.7226170000000  0.5030670000000 1.0
C      1  0.6494030000000  0.2861350000000  0.5013350000000 1.0
C      1  0.3513950000000  0.2779680000000  0.5013500000000 1.0
C      1  0.4986800000000  0.6485760000000  0.2779480000000 1.0
C      1  0.4986970000000  0.3505680000000  0.2861540000000 1.0
C      1  0.5014250000000  0.3620400000000  0.7127990000000 1.0
C      1  0.2139970000000  0.4215710000000  0.4978720000000 1.0
C      1  0.4316730000000  0.4973540000000  0.2237860000000 1.0
C      1  0.5011910000000  0.2186480000000  0.4358380000000 1.0
C      1  0.7813420000000  0.4358010000000  0.4988210000000 1.0
C      1  0.7762130000000  0.5683290000000  0.4973840000000 1.0
C      1  0.2225690000000  0.5863160000000  0.4934240000000 1.0
C      1  0.5784260000000  0.4979010000000  0.7860060000000 1.0
C      1  0.5642020000000  0.4987730000000  0.2186570000000 1.0
C      1  0.4136810000000  0.4934750000000  0.7774320000000 1.0
C      1  0.5026090000000  0.2237960000000  0.5683660000000 1.0
C      1  0.5021360000000  0.7859940000000  0.4215330000000 1.0
C      1  0.5065620000000  0.7774430000000  0.5862800000000 1.0
C      1  0.5000050000000  0.4156570000000  0.2211180000000 1.0
C      1  0.2238670000000  0.5029820000000  0.4293840000000 1.0
C      1  0.4194290000000  0.2160600000000  0.5047100000000 1.0
C      1  0.4970070000000  0.4294230000000  0.7761440000000 1.0
C      1  0.4953530000000  0.5619160000000  0.7820030000000 1.0
C      1  0.4953290000000  0.5805330000000  0.2160490000000 1.0
C      1  0.7839380000000  0.5046840000000  0.5805730000000 1.0
C      1  0.2179900000000  0.5046530000000  0.5618760000000 1.0
C      1  0.7788920000000  0.4999870000000  0.4156960000000 1.0
C      1  0.5843060000000  0.2211080000000  0.5000360000000 1.0
C      1  0.4381210000000  0.7820120000000  0.5046070000000 1.0
C      1  0.5706140000000  0.7761350000000  0.5029550000000 1.0
C      1  0.5935890000000  0.6739740000000  0.3251460000000 1.0
C      1  0.3258300000000  0.5949330000000  0.6671870000000 1.0
C      1  0.6758260000000  0.3333840000000  0.5955390000000 1.0
C      1  0.6666290000000  0.5954910000000  0.3241610000000 1.0
C      1  0.6748290000000  0.4064350000000  0.6740110000000 1.0
C      1  0.4050890000000  0.6672240000000  0.6741460000000 1.0
C      1  0.4044870000000  0.3241500000000  0.3333940000000 1.0
C      1  0.5970060000000  0.3324010000000  0.6689920000000 1.0
C      1  0.3327990000000  0.6741810000000  0.5948860000000 1.0
C      1  0.6676220000000  0.6689560000000  0.4029710000000 1.0
C      1  0.3310330000000  0.4029700000000  0.3323890000000 1.0
C      1  0.3260050000000  0.3251560000000  0.4064330000000 1.0
END
