TITL C-3036486-2224-828 0.0219430180364719 3375 -337.987643532553 0 0 60 (C1) n - 1
REM
REM in /home/bkarasulu/work/CARBON/AIRSS/Generating-Clusters/REBO/Higher-Symm/Only-C60
REM
REM
REM
REM
REM
REM ./C.cell (a2850807a9bf4ad07a5b6933b78d9264)
REM AIRSS Version 0.9.1 bugfix July 2018 build 013d7b7c2542+ Fri, 06 Jul 2018 19:26:36 +0100
REM compiler GCC version 9.2.1 20190827 (Red Hat 9.2.1-1)
REM options -cpp -mtune=generic -march=x86-64 -g -O0 -fpre-include=/usr/include/finclude/math-vector-fortran.h
REM seed 118947140 -1832707143 -64900727 87795426 1400769523 274641156 1292074400 -1433097186 520758436 1441043393 2033665821 177728654 2010019181 -943865601 -1218162626 -1462627620 -64550970 -23429907 -97093690 -239230855 87920875 -269541622 -1316160929 1975976354 544496857 542421603 1387299074 2113838790 522270143 -1954776315 1285738510 1469800169 -885880040
REM
CELL 1.54180   15.00000   15.00000   15.00000   90.00000   90.00000   90.00000
LATT -1
SFAC C  
C      1  0.4610980000000  0.2773500000000  0.6087660000000 1.0
C      1  0.4393260000000  0.5365640000000  0.2277330000000 1.0
C      1  0.4463700000000  0.7113420000000  0.6553620000000 1.0
C      1  0.5591030000000  0.2658280000000  0.6142420000000 1.0
C      1  0.5388390000000  0.5297710000000  0.2405990000000 1.0
C      1  0.5454160000000  0.7043740000000  0.6413630000000 1.0
C      1  0.4395410000000  0.2650260000000  0.3920470000000 1.0
C      1  0.4616570000000  0.5310510000000  0.7613430000000 1.0
C      1  0.4545230000000  0.7041930000000  0.3598920000000 1.0
C      1  0.5378150000000  0.2760220000000  0.3965170000000 1.0
C      1  0.5610900000000  0.5381020000000  0.7739550000000 1.0
C      1  0.5537900000000  0.7112190000000  0.3458090000000 1.0
C      1  0.3625140000000  0.5778810000000  0.4419300000000 1.0
C      1  0.3723170000000  0.4935310000000  0.6066440000000 1.0
C      1  0.3650240000000  0.3960110000000  0.4404920000000 1.0
C      1  0.6300940000000  0.5890910000000  0.4544440000000 1.0
C      1  0.6278290000000  0.4832300000000  0.6179560000000 1.0
C      1  0.6426620000000  0.4038650000000  0.4499940000000 1.0
C      1  0.3693740000000  0.5899730000000  0.5472410000000 1.0
C      1  0.3722510000000  0.4819520000000  0.3833880000000 1.0
C      1  0.3606920000000  0.4063200000000  0.5496940000000 1.0
C      1  0.6378350000000  0.5788180000000  0.5598900000000 1.0
C      1  0.6275060000000  0.4923270000000  0.3952350000000 1.0
C      1  0.6314840000000  0.3991220000000  0.5590050000000 1.0
C      1  0.7153010000000  0.5452120000000  0.3623360000000 1.0
C      1  0.7357230000000  0.6097830000000  0.6079350000000 1.0
C      1  0.7213520000000  0.3426910000000  0.5376480000000 1.0
C      1  0.2802430000000  0.5289030000000  0.3498740000000 1.0
C      1  0.2724320000000  0.6252580000000  0.5947910000000 1.0
C      1  0.2731510000000  0.3491130000000  0.5241300000000 1.0
C      1  0.7209380000000  0.5293130000000  0.6508480000000 1.0
C      1  0.7267810000000  0.6247780000000  0.4065940000000 1.0
C      1  0.7384280000000  0.3430670000000  0.4464880000000 1.0
C      1  0.2838200000000  0.5454680000000  0.6388210000000 1.0
C      1  0.2652010000000  0.6089610000000  0.3931230000000 1.0
C      1  0.2699540000000  0.3343510000000  0.4327730000000 1.0
C      1  0.5938230000000  0.6041380000000  0.2263180000000 1.0
C      1  0.6008070000000  0.6885400000000  0.7153160000000 1.0
C      1  0.6023280000000  0.2199860000000  0.5454470000000 1.0
C      1  0.3926750000000  0.6170460000000  0.2283920000000 1.0
C      1  0.4003660000000  0.6848770000000  0.7316050000000 1.0
C      1  0.4092740000000  0.2242940000000  0.5512010000000 1.0
C      1  0.6070870000000  0.6190060000000  0.7740140000000 1.0
C      1  0.6002760000000  0.6839190000000  0.2700560000000 1.0
C      1  0.5892830000000  0.2241260000000  0.4553640000000 1.0
C      1  0.4067000000000  0.6054140000000  0.7759620000000 1.0
C      1  0.3989060000000  0.6872040000000  0.2862970000000 1.0
C      1  0.3963200000000  0.2195480000000  0.4610420000000 1.0
C      1  0.4358380000000  0.3773130000000  0.6163130000000 1.0
C      1  0.4439750000000  0.4672690000000  0.3093160000000 1.0
C      1  0.4492590000000  0.6587810000000  0.5621380000000 1.0
C      1  0.5491120000000  0.3760560000000  0.6265110000000 1.0
C      1  0.5548810000000  0.4656340000000  0.3229650000000 1.0
C      1  0.5619790000000  0.6513450000000  0.5502570000000 1.0
C      1  0.4512060000000  0.3749690000000  0.3750980000000 1.0
C      1  0.4449990000000  0.4669150000000  0.6792890000000 1.0
C      1  0.4380400000000  0.6510850000000  0.4511590000000 1.0
C      1  0.5644940000000  0.3757150000000  0.3855290000000 1.0
C      1  0.5563030000000  0.4684690000000  0.6923610000000 1.0
C      1  0.5505950000000  0.6584850000000  0.4391520000000 1.0
END
