TITL C-3036480-97-786 -4.28372149989061e-06 3375 -340.536024251868 0 0 60 (C6) n - 1
REM
REM in /home/bkarasulu/work/CARBON/AIRSS/Generating-Clusters/REBO/Higher-Symm/Only-C60
REM
REM
REM
REM
REM
REM ./C.cell (a2850807a9bf4ad07a5b6933b78d9264)
REM AIRSS Version 0.9.1 bugfix July 2018 build 013d7b7c2542+ Fri, 06 Jul 2018 19:26:36 +0100
REM compiler GCC version 9.2.1 20190827 (Red Hat 9.2.1-1)
REM options -cpp -mtune=generic -march=x86-64 -g -O0 -fpre-include=/usr/include/finclude/math-vector-fortran.h
REM seed 1214938957 -1497253823 -1450612541 -1499011520 -1166588285 220762617 121291409 -1171041123 -1297410222 -941797973 -600473580 -1248326607 -1524698737 -558706765 -1293998003 -2093464210 -1546885335 -1267783594 758433627 187659275 2037895113 904584493 -361183542 -2104686771 2147439534 -1604867894 -1405272926 804521450 876615916 -1366212535 -130474285 589041750 -712560849
REM
CELL 1.54180   15.00000   15.00000   15.00000   90.00000   90.00000   90.00000
LATT -1
SFAC C  
C      1  0.3289910000000  0.6728820000000  0.6273130000000 1.0
C      1  0.3042390000000  0.6728820000000  0.4155590000000 1.0
C      1  0.4752480000000  0.6728820000000  0.2882450000000 1.0
C      1  0.6710090000000  0.6728820000000  0.3726870000000 1.0
C      1  0.6957610000000  0.6728820000000  0.5844410000000 1.0
C      1  0.5247520000000  0.6728820000000  0.7117550000000 1.0
C      1  0.2386060000000  0.3426730000000  0.5369810000000 1.0
C      1  0.3372780000000  0.3426720000000  0.2921160000000 1.0
C      1  0.5986720000000  0.3426720000000  0.2551360000000 1.0
C      1  0.7613940000000  0.3426730000000  0.4630190000000 1.0
C      1  0.6627220000000  0.3426720000000  0.7078840000000 1.0
C      1  0.4013280000000  0.3426720000000  0.7448640000000 1.0
C      1  0.4369280000000  0.4817390000000  0.6559910000000 1.0
C      1  0.3333720000000  0.4817390000000  0.5233730000000 1.0
C      1  0.3964440000000  0.4817390000000  0.3673830000000 1.0
C      1  0.5630720000000  0.4817390000000  0.3440090000000 1.0
C      1  0.6666280000000  0.4817390000000  0.4766270000000 1.0
C      1  0.6035560000000  0.4817390000000  0.6326170000000 1.0
C      1  0.3983960000000  0.5579540000000  0.5206420000000 1.0
C      1  0.4313210000000  0.5579540000000  0.4223290000000 1.0
C      1  0.5329250000000  0.5579540000000  0.4016870000000 1.0
C      1  0.6016040000000  0.5579540000000  0.4793580000000 1.0
C      1  0.5686790000000  0.5579540000000  0.5776710000000 1.0
C      1  0.4670750000000  0.5579540000000  0.5983130000000 1.0
C      1  0.5952080000000  0.6667880000000  0.4439610000000 1.0
C      1  0.5961360000000  0.6667880000000  0.5544330000000 1.0
C      1  0.5009270000000  0.6667880000000  0.6104720000000 1.0
C      1  0.4047920000000  0.6667880000000  0.5560390000000 1.0
C      1  0.4038640000000  0.6667880000000  0.4455670000000 1.0
C      1  0.4990730000000  0.6667890000000  0.3895280000000 1.0
C      1  0.5654270000000  0.3925340000000  0.5811050000000 1.0
C      1  0.4624750000000  0.3925350000000  0.5972140000000 1.0
C      1  0.3970480000000  0.3925350000000  0.5161090000000 1.0
C      1  0.4345730000000  0.3925340000000  0.4188950000000 1.0
C      1  0.5375250000000  0.3925350000000  0.4027860000000 1.0
C      1  0.6029520000000  0.3925350000000  0.4838910000000 1.0
C      1  0.4374120000000  0.3136440000000  0.6649360000000 1.0
C      1  0.3258670000000  0.3136450000000  0.5282660000000 1.0
C      1  0.3884550000000  0.3136440000000  0.3633290000000 1.0
C      1  0.5625880000000  0.3136450000000  0.3350630000000 1.0
C      1  0.6741330000000  0.3136450000000  0.4717340000000 1.0
C      1  0.6115450000000  0.3136440000000  0.6366710000000 1.0
C      1  0.6139510000000  0.5275480000000  0.7358240000000 1.0
C      1  0.3527460000000  0.5275480000000  0.7165970000000 1.0
C      1  0.2387940000000  0.5275490000000  0.4807740000000 1.0
C      1  0.3860490000000  0.5275480000000  0.2641760000000 1.0
C      1  0.6472540000000  0.5275480000000  0.2834030000000 1.0
C      1  0.7612060000000  0.5275490000000  0.5192260000000 1.0
C      1  0.5736880000000  0.6084440000000  0.7534170000000 1.0
C      1  0.3173780000000  0.6084440000000  0.6905240000000 1.0
C      1  0.2436900000000  0.6084450000000  0.4371090000000 1.0
C      1  0.4263120000000  0.6084440000000  0.2465830000000 1.0
C      1  0.6826220000000  0.6084440000000  0.3094760000000 1.0
C      1  0.7563100000000  0.6084450000000  0.5628910000000 1.0
C      1  0.3911970000000  0.4357930000000  0.7485400000000 1.0
C      1  0.2303570000000  0.4357930000000  0.5300450000000 1.0
C      1  0.3391600000000  0.4357930000000  0.2815040000000 1.0
C      1  0.6088030000000  0.4357930000000  0.2514600000000 1.0
C      1  0.7696430000000  0.4357930000000  0.4699550000000 1.0
C      1  0.6608400000000  0.4357930000000  0.7184960000000 1.0
END
