TITL C-3036481-494-3 3.41642162750183e-06 3375 -346.353794244273 0 0 60 (C3) n - 1
REM
REM in /home/bkarasulu/work/CARBON/AIRSS/Generating-Clusters/REBO/Higher-Symm/Only-C60
REM
REM
REM
REM
REM
REM ./C.cell (a2850807a9bf4ad07a5b6933b78d9264)
REM AIRSS Version 0.9.1 bugfix July 2018 build 013d7b7c2542+ Fri, 06 Jul 2018 19:26:36 +0100
REM compiler GCC version 9.2.1 20190827 (Red Hat 9.2.1-1)
REM options -cpp -mtune=generic -march=x86-64 -g -O0 -fpre-include=/usr/include/finclude/math-vector-fortran.h
REM seed 2096124251 -61666530 278481486 -1122897296 -1161300647 -623593607 1158742120 1407988285 -705152505 1093849714 -426844347 -192514091 -521829915 1206888439 -2028179196 -66088179 -567866513 -1887896267 305513173 1810464163 -322291877 1816624639 1254853070 -2128100603 1681711077 -323197040 41368991 753740613 649850427 -1649846343 -1263025049 1481853024 -375379164
REM
CELL 1.54180   15.00000   15.00000   15.00000   90.00000   90.00000   90.00000
LATT -1
SFAC C  
C      1  0.5399770000000  0.5536750000000  0.6357480000000 1.0
C      1  0.5399760000000  0.5907220000000  0.3856420000000 1.0
C      1  0.5399760000000  0.3556020000000  0.4786100000000 1.0
C      1  0.5482960000000  0.7127900000000  0.5341540000000 1.0
C      1  0.5482970000000  0.4231790000000  0.2986390000000 1.0
C      1  0.5482960000000  0.3640260000000  0.6672070000000 1.0
C      1  0.2539110000000  0.4660680000000  0.4434110000000 1.0
C      1  0.2539100000000  0.4679600000000  0.5576810000000 1.0
C      1  0.2539100000000  0.5659740000000  0.4989080000000 1.0
C      1  0.5825860000000  0.3859390000000  0.5658880000000 1.0
C      1  0.5825880000000  0.6140890000000  0.5658360000000 1.0
C      1  0.5825870000000  0.4999690000000  0.3682750000000 1.0
C      1  0.5469960000000  0.7132180000000  0.4372970000000 1.0
C      1  0.5469960000000  0.3390850000000  0.3466980000000 1.0
C      1  0.5469970000000  0.4476930000000  0.7160060000000 1.0
C      1  0.3585620000000  0.5630990000000  0.3422280000000 1.0
C      1  0.3585610000000  0.3318170000000  0.5242410000000 1.0
C      1  0.3585610000000  0.6050860000000  0.6335320000000 1.0
C      1  0.5191380000000  0.5924440000000  0.4863660000000 1.0
C      1  0.5191370000000  0.4419680000000  0.4267550000000 1.0
C      1  0.5191380000000  0.4655850000000  0.5868790000000 1.0
C      1  0.6838550000000  0.5203420000000  0.2848720000000 1.0
C      1  0.6838540000000  0.3035230000000  0.5899480000000 1.0
C      1  0.6838560000000  0.6761350000000  0.6251790000000 1.0
C      1  0.4554530000000  0.3221560000000  0.3812320000000 1.0
C      1  0.4554540000000  0.4860660000000  0.7134010000000 1.0
C      1  0.4554540000000  0.6917770000000  0.4053680000000 1.0
C      1  0.5165670000000  0.5514040000000  0.2609280000000 1.0
C      1  0.5165650000000  0.2672580000000  0.5750200000000 1.0
C      1  0.5165660000000  0.6813410000000  0.6640500000000 1.0
C      1  0.6252460000000  0.6545540000000  0.4054920000000 1.0
C      1  0.6252460000000  0.3408740000000  0.4134060000000 1.0
C      1  0.6252470000000  0.5045690000000  0.6811040000000 1.0
C      1  0.4273690000000  0.5729090000000  0.5243630000000 1.0
C      1  0.4273700000000  0.4846460000000  0.4246800000000 1.0
C      1  0.4273690000000  0.4424490000000  0.5509590000000 1.0
C      1  0.4534270000000  0.4762780000000  0.3143070000000 1.0
C      1  0.4534250000000  0.3510470000000  0.6133930000000 1.0
C      1  0.4534230000000  0.6726800000000  0.5723020000000 1.0
C      1  0.6916150000000  0.5927740000000  0.4480710000000 1.0
C      1  0.6916150000000  0.4086400000000  0.4456180000000 1.0
C      1  0.6916160000000  0.4985830000000  0.6063110000000 1.0
C      1  0.3902440000000  0.3870930000000  0.3432380000000 1.0
C      1  0.3902430000000  0.4206950000000  0.6761630000000 1.0
C      1  0.3902420000000  0.6922150000000  0.4805990000000 1.0
C      1  0.6866790000000  0.5901440000000  0.5525350000000 1.0
C      1  0.6866780000000  0.5004230000000  0.3956640000000 1.0
C      1  0.6866780000000  0.4094300000000  0.5518000000000 1.0
C      1  0.3183100000000  0.4659820000000  0.3510590000000 1.0
C      1  0.3183090000000  0.3880240000000  0.6039310000000 1.0
C      1  0.3183080000000  0.6459960000000  0.5450100000000 1.0
C      1  0.6045460000000  0.5437600000000  0.2443950000000 1.0
C      1  0.6045440000000  0.2567610000000  0.5899070000000 1.0
C      1  0.6045450000000  0.6994810000000  0.6656960000000 1.0
C      1  0.3491980000000  0.4275380000000  0.4740340000000 1.0
C      1  0.3491970000000  0.5137450000000  0.5757380000000 1.0
C      1  0.3491980000000  0.5587200000000  0.4502280000000 1.0
C      1  0.4480300000000  0.2949350000000  0.4890450000000 1.0
C      1  0.4480310000000  0.5930460000000  0.6830690000000 1.0
C      1  0.4480310000000  0.6120200000000  0.3278860000000 1.0
END
