TITL C-3036482-790-754 -6.54697765811783e-07 3375 -340.293077656906 0 0 60 (C2) n - 1
REM
REM in /home/bkarasulu/work/CARBON/AIRSS/Generating-Clusters/REBO/Higher-Symm/Only-C60
REM
REM
REM
REM
REM
REM ./C.cell (a2850807a9bf4ad07a5b6933b78d9264)
REM AIRSS Version 0.9.1 bugfix July 2018 build 013d7b7c2542+ Fri, 06 Jul 2018 19:26:36 +0100
REM compiler GCC version 9.2.1 20190827 (Red Hat 9.2.1-1)
REM options -cpp -mtune=generic -march=x86-64 -g -O0 -fpre-include=/usr/include/finclude/math-vector-fortran.h
REM seed -1987630335 -837753667 -373776040 956827387 1144877251 -2076542600 -926255050 -90885290 -265569568 764972114 1269078297 -1248389119 -711936512 -696599251 1883912578 -395781015 1410032940 1808576616 -1618705986 -757617647 954395590 -153989847 -1870653223 556058303 942611415 1642769713 -591445184 -1128107596 2088180026 -1952738776 256848633 1802532729 -1930926217
REM
CELL 1.54180   15.00000   15.00000   15.00000   90.00000   90.00000   90.00000
LATT -1
SFAC C  
C      1  0.5501930000000  0.2685150000000  0.4103130000000 1.0
C      1  0.4031080000000  0.2682230000000  0.4862500000000 1.0
C      1  0.5381140000000  0.2802970000000  0.5830930000000 1.0
C      1  0.5501950000000  0.7314830000000  0.5896910000000 1.0
C      1  0.4031160000000  0.7317800000000  0.5137420000000 1.0
C      1  0.5381280000000  0.7197020000000  0.4169100000000 1.0
C      1  0.4498010000000  0.7320010000000  0.5928630000000 1.0
C      1  0.5882180000000  0.7263610000000  0.5052110000000 1.0
C      1  0.4457260000000  0.7263360000000  0.4211280000000 1.0
C      1  0.4497990000000  0.2680000000000  0.4071330000000 1.0
C      1  0.5882100000000  0.2736350000000  0.4947960000000 1.0
C      1  0.4457110000000  0.2736660000000  0.5788680000000 1.0
C      1  0.4526720000000  0.5989360000000  0.5916640000000 1.0
C      1  0.6039670000000  0.5735430000000  0.5093200000000 1.0
C      1  0.4403050000000  0.5936770000000  0.4293270000000 1.0
C      1  0.4526750000000  0.4010650000000  0.4083320000000 1.0
C      1  0.6039650000000  0.4264540000000  0.4906880000000 1.0
C      1  0.4402960000000  0.4063250000000  0.5706680000000 1.0
C      1  0.5549980000000  0.4013040000000  0.4049010000000 1.0
C      1  0.3873950000000  0.4114180000000  0.4820630000000 1.0
C      1  0.5429430000000  0.4195110000000  0.5806970000000 1.0
C      1  0.5549940000000  0.5986940000000  0.5951030000000 1.0
C      1  0.3873970000000  0.5885860000000  0.5179290000000 1.0
C      1  0.5429530000000  0.5804890000000  0.4193060000000 1.0
C      1  0.6499930000000  0.3448260000000  0.5536930000000 1.0
C      1  0.4761770000000  0.3364820000000  0.3198440000000 1.0
C      1  0.3841960000000  0.3385850000000  0.6451040000000 1.0
C      1  0.6500030000000  0.6551690000000  0.4463180000000 1.0
C      1  0.4761690000000  0.6635190000000  0.6801540000000 1.0
C      1  0.3842130000000  0.6614190000000  0.3548870000000 1.0
C      1  0.3322850000000  0.6666820000000  0.4555580000000 1.0
C      1  0.5892490000000  0.6735980000000  0.6756580000000 1.0
C      1  0.5966990000000  0.6518510000000  0.3475220000000 1.0
C      1  0.3322750000000  0.3333240000000  0.5444300000000 1.0
C      1  0.5892560000000  0.3263990000000  0.3243490000000 1.0
C      1  0.5966810000000  0.3481460000000  0.6524850000000 1.0
C      1  0.7224410000000  0.5724500000000  0.4498720000000 1.0
C      1  0.3354890000000  0.5581320000000  0.3570070000000 1.0
C      1  0.4523980000000  0.5577430000000  0.7169500000000 1.0
C      1  0.7224350000000  0.4275420000000  0.5501450000000 1.0
C      1  0.3354760000000  0.4418740000000  0.6429810000000 1.0
C      1  0.4524120000000  0.4422590000000  0.2830470000000 1.0
C      1  0.2738410000000  0.4273420000000  0.5487440000000 1.0
C      1  0.6578580000000  0.4441650000000  0.6419350000000 1.0
C      1  0.5642740000000  0.4256750000000  0.2749420000000 1.0
C      1  0.2738470000000  0.5726660000000  0.4512390000000 1.0
C      1  0.6578710000000  0.5558290000000  0.3580770000000 1.0
C      1  0.5642600000000  0.5743230000000  0.7250630000000 1.0
C      1  0.5538870000000  0.4701710000000  0.6825790000000 1.0
C      1  0.6468680000000  0.4429020000000  0.3516160000000 1.0
C      1  0.2961610000000  0.4651220000000  0.4437470000000 1.0
C      1  0.5539020000000  0.5298280000000  0.3174250000000 1.0
C      1  0.6468590000000  0.5570930000000  0.6483950000000 1.0
C      1  0.2961580000000  0.5348850000000  0.5562380000000 1.0
C      1  0.4453750000000  0.5475440000000  0.3256630000000 1.0
C      1  0.3643540000000  0.5517490000000  0.6439660000000 1.0
C      1  0.7010160000000  0.5358680000000  0.5553940000000 1.0
C      1  0.4453600000000  0.4524580000000  0.6743320000000 1.0
C      1  0.3643620000000  0.4482560000000  0.3560240000000 1.0
C      1  0.7010190000000  0.4641250000000  0.4446210000000 1.0
END
