TITL C-3036479-9801-467 -6.42972593671078e-06 3375 -335.567280505589 0 0 60 (C1) n - 1
REM
REM in /home/bkarasulu/work/CARBON/AIRSS/Generating-Clusters/REBO/Higher-Symm/Only-C60
REM
REM
REM
REM
REM
REM ./C.cell (a2850807a9bf4ad07a5b6933b78d9264)
REM AIRSS Version 0.9.1 bugfix July 2018 build 013d7b7c2542+ Fri, 06 Jul 2018 19:26:36 +0100
REM compiler GCC version 9.2.1 20190827 (Red Hat 9.2.1-1)
REM options -cpp -mtune=generic -march=x86-64 -g -O0 -fpre-include=/usr/include/finclude/math-vector-fortran.h
REM seed 1694922158 -1878585226 647128551 1228845681 1483678509 600556844 1912471358 747173765 1601042732 1081392875 794066215 -554572090 -1764179403 -364036732 -810139090 -2049458170 -1336635873 -302974202 1235113975 -513478719 -902912012 -422953119 983511484 324783559 -72754753 -290294454 -1230534079 1220177994 -440970097 -2006520351 461978352 -1053745620 333971597
REM
CELL 1.54180   15.00000   15.00000   15.00000   90.00000   90.00000   90.00000
LATT -1
SFAC C  
C      1  0.6224680000000  0.6540160000000  0.4868970000000 1.0
C      1  0.3038140000000  0.5297690000000  0.4873460000000 1.0
C      1  0.5718940000000  0.3197950000000  0.4838870000000 1.0
C      1  0.4478640000000  0.4151520000000  0.2626250000000 1.0
C      1  0.5897130000000  0.4970560000000  0.2712080000000 1.0
C      1  0.4527180000000  0.5784260000000  0.2682490000000 1.0
C      1  0.7034690000000  0.4097310000000  0.3737750000000 1.0
C      1  0.4761300000000  0.7167800000000  0.3725190000000 1.0
C      1  0.3215310000000  0.3714590000000  0.3725860000000 1.0
C      1  0.6861020000000  0.4181110000000  0.5760940000000 1.0
C      1  0.4780660000000  0.7029530000000  0.5754290000000 1.0
C      1  0.3371580000000  0.3801440000000  0.5748620000000 1.0
C      1  0.6281450000000  0.4132200000000  0.3102530000000 1.0
C      1  0.5095690000000  0.6470000000000  0.3109580000000 1.0
C      1  0.3624630000000  0.4351630000000  0.3087710000000 1.0
C      1  0.4391270000000  0.4247740000000  0.7041470000000 1.0
C      1  0.5960080000000  0.4851820000000  0.7049270000000 1.0
C      1  0.4646640000000  0.5913430000000  0.7047660000000 1.0
C      1  0.7184620000000  0.3149990000000  0.4065420000000 1.0
C      1  0.5505980000000  0.7782310000000  0.4032460000000 1.0
C      1  0.2316330000000  0.4048400000000  0.4054830000000 1.0
C      1  0.5222330000000  0.6337800000000  0.5050250000000 1.0
C      1  0.3720970000000  0.4538330000000  0.5044120000000 1.0
C      1  0.6056060000000  0.4152290000000  0.5045720000000 1.0
C      1  0.4518350000000  0.3882610000000  0.5074360000000 1.0
C      1  0.6246780000000  0.5164470000000  0.5102640000000 1.0
C      1  0.4235520000000  0.6009550000000  0.5093960000000 1.0
C      1  0.6518090000000  0.5637750000000  0.6888630000000 1.0
C      1  0.3687290000000  0.6000110000000  0.6883090000000 1.0
C      1  0.4802980000000  0.3378210000000  0.6868480000000 1.0
C      1  0.3831060000000  0.6885160000000  0.4176970000000 1.0
C      1  0.3967660000000  0.3085720000000  0.4161350000000 1.0
C      1  0.7216810000000  0.5052740000000  0.4196010000000 1.0
C      1  0.4400650000000  0.7370000000000  0.4882710000000 1.0
C      1  0.3264720000000  0.3299270000000  0.4881170000000 1.0
C      1  0.7367710000000  0.4318900000000  0.4899730000000 1.0
C      1  0.3587370000000  0.5868600000000  0.4188230000000 1.0
C      1  0.4959480000000  0.3424310000000  0.4150410000000 1.0
C      1  0.6462720000000  0.5775300000000  0.4193740000000 1.0
C      1  0.5829140000000  0.5750720000000  0.3428310000000 1.0
C      1  0.3930760000000  0.5317960000000  0.3426580000000 1.0
C      1  0.5240350000000  0.4026790000000  0.3386990000000 1.0
C      1  0.5396420000000  0.2712700000000  0.5580500000000 1.0
C      1  0.6782620000000  0.6542390000000  0.5627760000000 1.0
C      1  0.2776040000000  0.5786760000000  0.5632940000000 1.0
C      1  0.4015490000000  0.5438790000000  0.5974610000000 1.0
C      1  0.5115310000000  0.3956860000000  0.5961560000000 1.0
C      1  0.5865200000000  0.5645500000000  0.5983380000000 1.0
C      1  0.6051760000000  0.4208660000000  0.6376190000000 1.0
C      1  0.5159290000000  0.6319220000000  0.6379600000000 1.0
C      1  0.3784600000000  0.4490840000000  0.6372970000000 1.0
C      1  0.2240070000000  0.4794980000000  0.4438960000000 1.0
C      1  0.6543390000000  0.2728770000000  0.4417710000000 1.0
C      1  0.6190240000000  0.7476160000000  0.4418370000000 1.0
C      1  0.5010330000000  0.5035200000000  0.4640680000000 1.0
C      1  0.4995070000000  0.4972970000000  0.2347460000000 1.0
C      1  0.5000430000000  0.5023140000000  0.5595370000000 1.0
C      1  0.4997950000000  0.5005040000000  0.7438010000000 1.0
C      1  0.4989830000000  0.5038290000000  0.3685190000000 1.0
C      1  0.4994450000000  0.5002660000000  0.8383110000000 1.0
END
