TITL C-3036486-2224-1083 2.58245306223534e-06 3375 -344.103059590664 0 0 60 (D2d) n - 1
REM
REM in /home/bkarasulu/work/CARBON/AIRSS/Generating-Clusters/REBO/Higher-Symm/Only-C60
REM
REM
REM
REM
REM
REM ./C.cell (a2850807a9bf4ad07a5b6933b78d9264)
REM AIRSS Version 0.9.1 bugfix July 2018 build 013d7b7c2542+ Fri, 06 Jul 2018 19:26:36 +0100
REM compiler GCC version 9.2.1 20190827 (Red Hat 9.2.1-1)
REM options -cpp -mtune=generic -march=x86-64 -g -O0 -fpre-include=/usr/include/finclude/math-vector-fortran.h
REM seed -1912916499 2080237009 -693429137 2122418360 950190290 -703794621 1085688798 1290761281 602098534 -251444713 -1945735442 441335348 666009342 1259977200 -1938844835 -698676880 1315820225 1288515216 1093481206 987306821 -1745333370 -735891763 -141441698 -732787269 -524120689 -622323339 -2042793358 -1983727454 1186707445 -1059636172 1907048220 176110914 -658010724
REM
CELL 1.54180   15.00000   15.00000   15.00000   90.00000   90.00000   90.00000
LATT -1
SFAC C  
C      1  0.4452700000000  0.3457010000000  0.6219580000000 1.0
C      1  0.5547300000000  0.3457010000000  0.3780420000000 1.0
C      1  0.5547300000000  0.6542990000000  0.6219580000000 1.0
C      1  0.4452700000000  0.6542990000000  0.3780420000000 1.0
C      1  0.6219580000000  0.3457010000000  0.4452700000000 1.0
C      1  0.3780420000000  0.3457010000000  0.5547300000000 1.0
C      1  0.6219580000000  0.6542990000000  0.5547300000000 1.0
C      1  0.3780420000000  0.6542990000000  0.4452700000000 1.0
C      1  0.3390430000000  0.5353550000000  0.5392520000000 1.0
C      1  0.6609570000000  0.5353550000000  0.4607480000000 1.0
C      1  0.6609570000000  0.4646450000000  0.5392520000000 1.0
C      1  0.3390430000000  0.4646450000000  0.4607480000000 1.0
C      1  0.5392520000000  0.5353550000000  0.3390430000000 1.0
C      1  0.4607480000000  0.5353550000000  0.6609570000000 1.0
C      1  0.5392520000000  0.4646450000000  0.6609570000000 1.0
C      1  0.4607480000000  0.4646450000000  0.3390430000000 1.0
C      1  0.7211940000000  0.6314090000000  0.5709200000000 1.0
C      1  0.2788060000000  0.6314090000000  0.4290800000000 1.0
C      1  0.2788060000000  0.3685910000000  0.5709200000000 1.0
C      1  0.7211940000000  0.3685910000000  0.4290800000000 1.0
C      1  0.5709200000000  0.6314090000000  0.7211940000000 1.0
C      1  0.4290800000000  0.6314090000000  0.2788060000000 1.0
C      1  0.5709200000000  0.3685910000000  0.2788060000000 1.0
C      1  0.4290800000000  0.3685910000000  0.7211940000000 1.0
C      1  0.5890640000000  0.6115000000000  0.4756520000000 1.0
C      1  0.4109360000000  0.6115000000000  0.5243480000000 1.0
C      1  0.4109360000000  0.3885000000000  0.4756520000000 1.0
C      1  0.5890640000000  0.3885000000000  0.5243480000000 1.0
C      1  0.4756520000000  0.6115000000000  0.5890640000000 1.0
C      1  0.5243480000000  0.6115000000000  0.4109360000000 1.0
C      1  0.4756520000000  0.3885000000000  0.4109360000000 1.0
C      1  0.5243480000000  0.3885000000000  0.5890640000000 1.0
C      1  0.2285300000000  0.4637290000000  0.5352740000000 1.0
C      1  0.7714700000000  0.4637290000000  0.4647260000000 1.0
C      1  0.7714700000000  0.5362710000000  0.5352740000000 1.0
C      1  0.2285300000000  0.5362710000000  0.4647260000000 1.0
C      1  0.5352740000000  0.4637290000000  0.2285300000000 1.0
C      1  0.4647260000000  0.4637290000000  0.7714700000000 1.0
C      1  0.5352740000000  0.5362710000000  0.7714700000000 1.0
C      1  0.4647260000000  0.5362710000000  0.2285300000000 1.0
C      1  0.3798140000000  0.6144450000000  0.6807720000000 1.0
C      1  0.6201860000000  0.6144450000000  0.3192280000000 1.0
C      1  0.6201860000000  0.3855550000000  0.6807720000000 1.0
C      1  0.3798140000000  0.3855550000000  0.3192280000000 1.0
C      1  0.6807720000000  0.6144450000000  0.3798140000000 1.0
C      1  0.3192280000000  0.6144450000000  0.6201860000000 1.0
C      1  0.6807720000000  0.3855550000000  0.6201860000000 1.0
C      1  0.3192280000000  0.3855550000000  0.3798140000000 1.0
C      1  0.7087930000000  0.4855860000000  0.3713820000000 1.0
C      1  0.2912070000000  0.4855860000000  0.6286180000000 1.0
C      1  0.2912070000000  0.5144140000000  0.3713820000000 1.0
C      1  0.7087930000000  0.5144140000000  0.6286180000000 1.0
C      1  0.3713820000000  0.4855860000000  0.7087930000000 1.0
C      1  0.6286180000000  0.4855860000000  0.2912070000000 1.0
C      1  0.3713820000000  0.5144140000000  0.2912070000000 1.0
C      1  0.6286180000000  0.5144140000000  0.7087930000000 1.0
C      1  0.6713930000000  0.3870810000000  0.3286070000000 1.0
C      1  0.3286070000000  0.3870810000000  0.6713930000000 1.0
C      1  0.3286070000000  0.6129190000000  0.3286070000000 1.0
C      1  0.6713930000000  0.6129190000000  0.6713930000000 1.0
END
