TITL C-3036479-9801-281 -2.88891298414616e-05 3375 -354.245976071154 0 0 60 (C1) n - 1
REM
REM in /home/bkarasulu/work/CARBON/AIRSS/Generating-Clusters/REBO/Higher-Symm/Only-C60
REM
REM
REM
REM
REM
REM ./C.cell (a2850807a9bf4ad07a5b6933b78d9264)
REM AIRSS Version 0.9.1 bugfix July 2018 build 013d7b7c2542+ Fri, 06 Jul 2018 19:26:36 +0100
REM compiler GCC version 9.2.1 20190827 (Red Hat 9.2.1-1)
REM options -cpp -mtune=generic -march=x86-64 -g -O0 -fpre-include=/usr/include/finclude/math-vector-fortran.h
REM seed 695355819 460762701 -1315454649 -1338111503 -245239323 -1322921694 1776577501 -1881748921 -701148452 1586984417 -818794111 101739113 887709317 1366884210 1238676763 1038471372 782540646 -1199433569 -215664973 1090930217 1359534945 306928816 980117772 226591573 -1952295964 1946020682 2019583807 254790290 -596916432 2049499290 1657164409 585179454 1887731597
REM
CELL 1.54180   15.00000   15.00000   15.00000   90.00000   90.00000   90.00000
LATT -1
SFAC C  
C      1  0.5981680000000  0.5750900000000  0.6417130000000 1.0
C      1  0.5861500000000  0.4163680000000  0.3513810000000 1.0
C      1  0.4052250000000  0.5702210000000  0.3586070000000 1.0
C      1  0.4156460000000  0.4131510000000  0.6479400000000 1.0
C      1  0.5961010000000  0.6504500000000  0.5700700000000 1.0
C      1  0.5857570000000  0.3444280000000  0.4216430000000 1.0
C      1  0.4090030000000  0.3391210000000  0.5799180000000 1.0
C      1  0.4040000000000  0.6468930000000  0.4293050000000 1.0
C      1  0.2485710000000  0.6797880000000  0.4509930000000 1.0
C      1  0.2514100000000  0.3315670000000  0.5358330000000 1.0
C      1  0.7514630000000  0.6838890000000  0.5464760000000 1.0
C      1  0.7409420000000  0.3296310000000  0.4741370000000 1.0
C      1  0.2660100000000  0.4819450000000  0.6601400000000 1.0
C      1  0.2488520000000  0.5412220000000  0.3304480000000 1.0
C      1  0.7539250000000  0.5494030000000  0.6704180000000 1.0
C      1  0.7381750000000  0.4803110000000  0.3445990000000 1.0
C      1  0.5683130000000  0.5905700000000  0.3497830000000 1.0
C      1  0.5778480000000  0.3977660000000  0.6486820000000 1.0
C      1  0.4347120000000  0.5877890000000  0.6513750000000 1.0
C      1  0.4234860000000  0.4007910000000  0.3331820000000 1.0
C      1  0.5715420000000  0.3174470000000  0.5947960000000 1.0
C      1  0.5686220000000  0.6691080000000  0.4035980000000 1.0
C      1  0.4316180000000  0.6667680000000  0.5982050000000 1.0
C      1  0.4239760000000  0.3376920000000  0.4044870000000 1.0
C      1  0.7210640000000  0.4243120000000  0.5136160000000 1.0
C      1  0.7345440000000  0.5936040000000  0.5032400000000 1.0
C      1  0.2773290000000  0.4225750000000  0.4918390000000 1.0
C      1  0.2667790000000  0.5914710000000  0.4971410000000 1.0
C      1  0.7184280000000  0.5064060000000  0.4448990000000 1.0
C      1  0.7355010000000  0.5114030000000  0.5764860000000 1.0
C      1  0.2653760000000  0.5071050000000  0.4266170000000 1.0
C      1  0.2825250000000  0.5061880000000  0.5583570000000 1.0
C      1  0.3187300000000  0.5746560000000  0.2959610000000 1.0
C      1  0.3257400000000  0.4383530000000  0.7001680000000 1.0
C      1  0.6841290000000  0.5846420000000  0.7037600000000 1.0
C      1  0.6790400000000  0.4374450000000  0.3032170000000 1.0
C      1  0.3133340000000  0.2916710000000  0.5771810000000 1.0
C      1  0.3188930000000  0.7091720000000  0.4134080000000 1.0
C      1  0.6807430000000  0.7142270000000  0.5825120000000 1.0
C      1  0.6781830000000  0.2920030000000  0.4324250000000 1.0
C      1  0.4881580000000  0.7094230000000  0.4253560000000 1.0
C      1  0.4899820000000  0.2769370000000  0.5746960000000 1.0
C      1  0.5102220000000  0.7100350000000  0.5752440000000 1.0
C      1  0.5013090000000  0.2880640000000  0.4211370000000 1.0
C      1  0.5020560000000  0.4171100000000  0.7000790000000 1.0
C      1  0.4905530000000  0.5715610000000  0.3022980000000 1.0
C      1  0.5135700000000  0.5699460000000  0.6975740000000 1.0
C      1  0.5040370000000  0.4200730000000  0.2906740000000 1.0
C      1  0.3754950000000  0.5996600000000  0.5294580000000 1.0
C      1  0.3780180000000  0.3837910000000  0.4838840000000 1.0
C      1  0.6258000000000  0.6016100000000  0.4708800000000 1.0
C      1  0.6177410000000  0.3854890000000  0.5225020000000 1.0
C      1  0.3835500000000  0.5105560000000  0.6041810000000 1.0
C      1  0.3715400000000  0.4713500000000  0.4052480000000 1.0
C      1  0.6285850000000  0.4763790000000  0.5938070000000 1.0
C      1  0.6193770000000  0.5127410000000  0.3956720000000 1.0
C      1  0.5099270000000  0.4942320000000  0.7527320000000 1.0
C      1  0.4991970000000  0.5002100000000  0.2419530000000 1.0
C      1  0.4976980000000  0.7654930000000  0.5002860000000 1.0
C      1  0.4933310000000  0.2287010000000  0.4937820000000 1.0
END
