TITL C-3036481-494-787 0.0423239029247769 3375 -338.63022889866 0 0 60 (C1) n - 1
REM
REM in /home/bkarasulu/work/CARBON/AIRSS/Generating-Clusters/REBO/Higher-Symm/Only-C60
REM
REM
REM
REM
REM
REM ./C.cell (a2850807a9bf4ad07a5b6933b78d9264)
REM AIRSS Version 0.9.1 bugfix July 2018 build 013d7b7c2542+ Fri, 06 Jul 2018 19:26:36 +0100
REM compiler GCC version 9.2.1 20190827 (Red Hat 9.2.1-1)
REM options -cpp -mtune=generic -march=x86-64 -g -O0 -fpre-include=/usr/include/finclude/math-vector-fortran.h
REM seed -245903307 -1438214145 -1313361161 -28256652 -79778193 -1894265806 -1365783136 1222352301 -1180646842 -1457499135 -241104584 -1192988819 -989368208 278523286 -380077450 461930508 -1992469806 1823334838 1538327684 -818051343 -1208565586 1745694463 -4580765 1174452988 581326715 -803987744 1522202885 -164371378 -2128881987 1115459327 -277772757 -107302388 -394193209
REM
CELL 1.54180   15.00000   15.00000   15.00000   90.00000   90.00000   90.00000
LATT -1
SFAC C  
C      1  0.3898020000000  0.5555100000000  0.6762470000000 1.0
C      1  0.3962380000000  0.7195200000000  0.6159020000000 1.0
C      1  0.5076640000000  0.3287030000000  0.6318760000000 1.0
C      1  0.3392170000000  0.5906820000000  0.3223670000000 1.0
C      1  0.3416690000000  0.6630460000000  0.5476410000000 1.0
C      1  0.5112440000000  0.4854850000000  0.7112280000000 1.0
C      1  0.3040600000000  0.6885840000000  0.4479260000000 1.0
C      1  0.3786100000000  0.4764380000000  0.7196230000000 1.0
C      1  0.4827990000000  0.6902780000000  0.6393930000000 1.0
C      1  0.3720750000000  0.4281660000000  0.3690150000000 1.0
C      1  0.2780510000000  0.6128920000000  0.3969540000000 1.0
C      1  0.6989520000000  0.4630730000000  0.5016740000000 1.0
C      1  0.7217130000000  0.6907840000000  0.6274140000000 1.0
C      1  0.7027670000000  0.6750050000000  0.4977630000000 1.0
C      1  0.3203110000000  0.5113200000000  0.4271630000000 1.0
C      1  0.4528350000000  0.2103650000000  0.4760460000000 1.0
C      1  0.3805150000000  0.3534140000000  0.4546400000000 1.0
C      1  0.5558190000000  0.5413070000000  0.5447430000000 1.0
C      1  0.3272330000000  0.4903710000000  0.5383820000000 1.0
C      1  0.6487300000000  0.7349020000000  0.5670880000000 1.0
C      1  0.6430810000000  0.3368480000000  0.3475350000000 1.0
C      1  0.3891710000000  0.5900460000000  0.4733080000000 1.0
C      1  0.5591550000000  0.4911820000000  0.2890970000000 1.0
C      1  0.5590990000000  0.3702650000000  0.5419030000000 1.0
C      1  0.6331750000000  0.3004400000000  0.4545270000000 1.0
C      1  0.2882480000000  0.4165140000000  0.5999180000000 1.0
C      1  0.6262730000000  0.4128620000000  0.4293880000000 1.0
C      1  0.4635620000000  0.5217600000000  0.2553840000000 1.0
C      1  0.5215770000000  0.4503800000000  0.5028860000000 1.0
C      1  0.4729580000000  0.2786420000000  0.3944370000000 1.0
C      1  0.4841900000000  0.7052660000000  0.4711000000000 1.0
C      1  0.4474750000000  0.3965910000000  0.6930630000000 1.0
C      1  0.6178400000000  0.4514620000000  0.6895190000000 1.0
C      1  0.7110460000000  0.4947230000000  0.6629990000000 1.0
C      1  0.4015400000000  0.7192490000000  0.4428320000000 1.0
C      1  0.3935090000000  0.2812430000000  0.5136510000000 1.0
C      1  0.6710850000000  0.3610560000000  0.5424830000000 1.0
C      1  0.5552910000000  0.4086060000000  0.3405990000000 1.0
C      1  0.5192920000000  0.6074510000000  0.3016430000000 1.0
C      1  0.5485690000000  0.7119480000000  0.5641580000000 1.0
C      1  0.7344010000000  0.5207560000000  0.5784090000000 1.0
C      1  0.4339250000000  0.3402040000000  0.2432570000000 1.0
C      1  0.4876850000000  0.5955260000000  0.6826820000000 1.0
C      1  0.5655470000000  0.6297320000000  0.4911270000000 1.0
C      1  0.3787670000000  0.5045430000000  0.2922960000000 1.0
C      1  0.5757100000000  0.5429500000000  0.6406190000000 1.0
C      1  0.4389000000000  0.5935570000000  0.3707640000000 1.0
C      1  0.6847700000000  0.5243610000000  0.4126070000000 1.0
C      1  0.3461780000000  0.3677600000000  0.6497020000000 1.0
C      1  0.4085180000000  0.3043260000000  0.6054350000000 1.0
C      1  0.6180720000000  0.5725500000000  0.3358990000000 1.0
C      1  0.4707410000000  0.5019820000000  0.4168140000000 1.0
C      1  0.4583930000000  0.5634200000000  0.5342090000000 1.0
C      1  0.4612660000000  0.3627800000000  0.3415980000000 1.0
C      1  0.6133590000000  0.3635330000000  0.6401380000000 1.0
C      1  0.6460310000000  0.6253860000000  0.4291640000000 1.0
C      1  0.3407460000000  0.5706470000000  0.5959300000000 1.0
C      1  0.4132480000000  0.4448450000000  0.4939770000000 1.0
C      1  0.7538770000000  0.6120570000000  0.5655620000000 1.0
C      1  0.5534270000000  0.2427030000000  0.4562980000000 1.0
END
