TITL C-3036480-97-1124 1.44564313802133e-05 3375 -339.128730727585 0 0 60 (C3i) n - 1
REM
REM in /home/bkarasulu/work/CARBON/AIRSS/Generating-Clusters/REBO/Higher-Symm/Only-C60
REM
REM
REM
REM
REM
REM ./C.cell (a2850807a9bf4ad07a5b6933b78d9264)
REM AIRSS Version 0.9.1 bugfix July 2018 build 013d7b7c2542+ Fri, 06 Jul 2018 19:26:36 +0100
REM compiler GCC version 9.2.1 20190827 (Red Hat 9.2.1-1)
REM options -cpp -mtune=generic -march=x86-64 -g -O0 -fpre-include=/usr/include/finclude/math-vector-fortran.h
REM seed 1051613500 855036117 -311775263 -1005938254 -2012384897 1375328320 236282540 1047162333 -1276697487 1701668445 -2002204697 1446154941 574279739 -2107531884 -1879577751 1485495080 -2044205133 -1308716411 967724982 1256362834 210882168 -653607097 -1388367458 -1729710446 945236234 -1874937804 -284574324 1675505344 -978477106 -1643068779 -1432219130 -1755180640 1592929631
REM
CELL 1.54180   15.00000   15.00000   15.00000   90.00000   90.00000   90.00000
LATT -1
SFAC C  
C      1  0.6198170000000  0.6152280000000  0.6567150000000 1.0
C      1  0.4241880000000  0.3847710000000  0.6821230000000 1.0
C      1  0.3043720000000  0.6152280000000  0.5254070000000 1.0
C      1  0.3801830000000  0.3847720000000  0.3432850000000 1.0
C      1  0.5758120000000  0.6152290000000  0.3178770000000 1.0
C      1  0.6956280000000  0.3847720000000  0.4745930000000 1.0
C      1  0.6006360000000  0.7547070000000  0.4292300000000 1.0
C      1  0.6116060000000  0.2452930000000  0.5517670000000 1.0
C      1  0.5109710000000  0.7547070000000  0.6225370000000 1.0
C      1  0.3993640000000  0.2452930000000  0.5707700000000 1.0
C      1  0.3883940000000  0.7547070000000  0.4482330000000 1.0
C      1  0.4890290000000  0.2452930000000  0.3774630000000 1.0
C      1  0.5595700000000  0.4097810000000  0.3144490000000 1.0
C      1  0.6904770000000  0.5902190000000  0.4588140000000 1.0
C      1  0.6309060000000  0.4097810000000  0.6443640000000 1.0
C      1  0.4404300000000  0.5902190000000  0.6855510000000 1.0
C      1  0.3095230000000  0.4097810000000  0.5411860000000 1.0
C      1  0.3690940000000  0.5902190000000  0.3556360000000 1.0
C      1  0.5500600000000  0.3275870000000  0.3908860000000 1.0
C      1  0.6195250000000  0.6724130000000  0.4887960000000 1.0
C      1  0.5694640000000  0.3275870000000  0.5979090000000 1.0
C      1  0.4499400000000  0.6724130000000  0.6091140000000 1.0
C      1  0.3804750000000  0.3275870000000  0.5112040000000 1.0
C      1  0.4305360000000  0.6724130000000  0.4020910000000 1.0
C      1  0.6121650000000  0.3215430000000  0.4724360000000 1.0
C      1  0.5799530000000  0.6784570000000  0.5833550000000 1.0
C      1  0.4677880000000  0.3215420000000  0.6109190000000 1.0
C      1  0.3878350000000  0.6784570000000  0.5275640000000 1.0
C      1  0.4200470000000  0.3215430000000  0.4166450000000 1.0
C      1  0.5322120000000  0.6784580000000  0.3890810000000 1.0
C      1  0.5476860000000  0.5567020000000  0.7027680000000 1.0
C      1  0.3482400000000  0.4432980000000  0.6426820000000 1.0
C      1  0.3005550000000  0.5567020000000  0.4399130000000 1.0
C      1  0.4523140000000  0.4432980000000  0.2972320000000 1.0
C      1  0.6517600000000  0.5567020000000  0.3573180000000 1.0
C      1  0.6994450000000  0.4432980000000  0.5600870000000 1.0
C      1  0.3395710000000  0.5424480000000  0.6655090000000 1.0
C      1  0.2764510000000  0.4575520000000  0.4438190000000 1.0
C      1  0.4368800000000  0.5424480000000  0.2783110000000 1.0
C      1  0.6604290000000  0.4575520000000  0.3344910000000 1.0
C      1  0.7235490000000  0.5424480000000  0.5561810000000 1.0
C      1  0.5631200000000  0.4575520000000  0.7216890000000 1.0
C      1  0.5829470000000  0.5012510000000  0.5989370000000 1.0
C      1  0.4557920000000  0.4987480000000  0.6213040000000 1.0
C      1  0.3728440000000  0.5012510000000  0.5223660000000 1.0
C      1  0.4170530000000  0.4987490000000  0.4010630000000 1.0
C      1  0.5442080000000  0.5012520000000  0.3786960000000 1.0
C      1  0.6271560000000  0.4987490000000  0.4776340000000 1.0
C      1  0.2960260000000  0.4127320000000  0.3659340000000 1.0
C      1  0.5141180000000  0.5872680000000  0.2563210000000 1.0
C      1  0.7180920000000  0.4127330000000  0.3903860000000 1.0
C      1  0.7039740000000  0.5872680000000  0.6340660000000 1.0
C      1  0.4858820000000  0.4127320000000  0.7436790000000 1.0
C      1  0.2819080000000  0.5872670000000  0.6096140000000 1.0
C      1  0.4246810000000  0.5848550000000  0.4754810000000 1.0
C      1  0.4835760000000  0.4151450000000  0.4225120000000 1.0
C      1  0.5588950000000  0.5848560000000  0.4470310000000 1.0
C      1  0.5753190000000  0.4151450000000  0.5245190000000 1.0
C      1  0.5164240000000  0.5848550000000  0.5774880000000 1.0
C      1  0.4411050000000  0.4151440000000  0.5529690000000 1.0
END
