TITL C-3036479-9801-402 2.75139991228272e-06 3375 -361.030227373108 0 0 60 (C5) n - 1
REM
REM in /home/bkarasulu/work/CARBON/AIRSS/Generating-Clusters/REBO/Higher-Symm/Only-C60
REM
REM
REM
REM
REM
REM ./C.cell (a2850807a9bf4ad07a5b6933b78d9264)
REM AIRSS Version 0.9.1 bugfix July 2018 build 013d7b7c2542+ Fri, 06 Jul 2018 19:26:36 +0100
REM compiler GCC version 9.2.1 20190827 (Red Hat 9.2.1-1)
REM options -cpp -mtune=generic -march=x86-64 -g -O0 -fpre-include=/usr/include/finclude/math-vector-fortran.h
REM seed -1068810575 1299850272 1233092544 309876260 -638518135 766381110 -208958164 401794412 2082339572 1173611586 -1307897673 1842828294 -231516730 126123626 730221844 101185432 -854557590 295730148 -980818762 -916407024 -201575709 1045885940 284171387 -1170826642 -1947544322 -665040356 -1005998221 1464544430 -1733592370 -2015017776 -985574064 174736891 -1935055588
REM
CELL 1.54180   15.00000   15.00000   15.00000   90.00000   90.00000   90.00000
LATT -1
SFAC C  
C      1  0.3584070000000  0.5170780000000  0.7152350000000 1.0
C      1  0.3584010000000  0.7099750000000  0.5502670000000 1.0
C      1  0.3584010000000  0.6126890000000  0.3158340000000 1.0
C      1  0.3584070000000  0.3596670000000  0.3359140000000 1.0
C      1  0.3584100000000  0.3005760000000  0.5827580000000 1.0
C      1  0.4609690000000  0.5147200000000  0.4108590000000 1.0
C      1  0.4609710000000  0.4197700000000  0.4584540000000 1.0
C      1  0.4609720000000  0.4356940000000  0.5634640000000 1.0
C      1  0.4609700000000  0.5404850000000  0.5807700000000 1.0
C      1  0.4609680000000  0.5893260000000  0.4864550000000 1.0
C      1  0.3208380000000  0.6344010000000  0.4000320000000 1.0
C      1  0.3208410000000  0.4464520000000  0.3412830000000 1.0
C      1  0.3208450000000  0.3325000000000  0.5018790000000 1.0
C      1  0.3208450000000  0.4500220000000  0.6598810000000 1.0
C      1  0.3208400000000  0.6366070000000  0.5969360000000 1.0
C      1  0.5240730000000  0.2771570000000  0.5173130000000 1.0
C      1  0.5240710000000  0.4476040000000  0.7172860000000 1.0
C      1  0.5240650000000  0.6904610000000  0.6169770000000 1.0
C      1  0.5240630000000  0.6701080000000  0.3550090000000 1.0
C      1  0.5240680000000  0.4146720000000  0.2934130000000 1.0
C      1  0.6343020000000  0.5893100000000  0.5126410000000 1.0
C      1  0.6343020000000  0.5396240000000  0.4189690000000 1.0
C      1  0.6343040000000  0.4351830000000  0.4372770000000 1.0
C      1  0.6343060000000  0.4203210000000  0.5422640000000 1.0
C      1  0.6343040000000  0.5155760000000  0.5888420000000 1.0
C      1  0.2695650000000  0.5703560000000  0.5478720000000 1.0
C      1  0.2695640000000  0.5672650000000  0.4478780000000 1.0
C      1  0.2695660000000  0.4712100000000  0.4199180000000 1.0
C      1  0.2695680000000  0.4149350000000  0.5026320000000 1.0
C      1  0.2695670000000  0.4762110000000  0.5817120000000 1.0
C      1  0.7267600000000  0.5245010000000  0.6399100000000 1.0
C      1  0.7267560000000  0.6406400000000  0.5199350000000 1.0
C      1  0.7267560000000  0.5624250000000  0.3724070000000 1.0
C      1  0.7267600000000  0.3979480000000  0.4012050000000 1.0
C      1  0.7267630000000  0.3745100000000  0.5665310000000 1.0
C      1  0.8040800000000  0.5369420000000  0.4245000000000 1.0
C      1  0.8040820000000  0.4396180000000  0.4415390000000 1.0
C      1  0.8040830000000  0.4257490000000  0.5393650000000 1.0
C      1  0.8040820000000  0.5145010000000  0.5827850000000 1.0
C      1  0.8040800000000  0.5832220000000  0.5117950000000 1.0
C      1  0.5523440000000  0.6462610000000  0.5202560000000 1.0
C      1  0.5523440000000  0.5644630000000  0.3671580000000 1.0
C      1  0.5523480000000  0.3935810000000  0.3976420000000 1.0
C      1  0.5523500000000  0.3697680000000  0.5695800000000 1.0
C      1  0.5523480000000  0.5259320000000  0.6453600000000 1.0
C      1  0.3913700000000  0.3366820000000  0.4330210000000 1.0
C      1  0.3913710000000  0.3858280000000  0.6346260000000 1.0
C      1  0.3913660000000  0.5927530000000  0.6501840000000 1.0
C      1  0.3913630000000  0.6714930000000  0.4581940000000 1.0
C      1  0.3913650000000  0.5132320000000  0.3239800000000 1.0
C      1  0.4967820000000  0.2974990000000  0.4215630000000 1.0
C      1  0.4967830000000  0.3628250000000  0.6683520000000 1.0
C      1  0.4967780000000  0.6177230000000  0.6824840000000 1.0
C      1  0.4967730000000  0.7099310000000  0.4444300000000 1.0
C      1  0.4967760000000  0.5120220000000  0.2831720000000 1.0
C      1  0.4605080000000  0.6203130000000  0.2896170000000 1.0
C      1  0.4605140000000  0.3370920000000  0.3205640000000 1.0
C      1  0.4605190000000  0.2790030000000  0.5994860000000 1.0
C      1  0.4605150000000  0.5263240000000  0.7409230000000 1.0
C      1  0.4605080000000  0.7372640000000  0.5494130000000 1.0
END
