TITL C-3036481-494-530 -0.00320347990501934 3375 -361.156453464672 0 0 60 (C1) n - 1
REM
REM in /home/bkarasulu/work/CARBON/AIRSS/Generating-Clusters/REBO/Higher-Symm/Only-C60
REM
REM
REM
REM
REM
REM ./C.cell (a2850807a9bf4ad07a5b6933b78d9264)
REM AIRSS Version 0.9.1 bugfix July 2018 build 013d7b7c2542+ Fri, 06 Jul 2018 19:26:36 +0100
REM compiler GCC version 9.2.1 20190827 (Red Hat 9.2.1-1)
REM options -cpp -mtune=generic -march=x86-64 -g -O0 -fpre-include=/usr/include/finclude/math-vector-fortran.h
REM seed -948226259 1029537821 1454777248 -1862968689 1245656947 -1767727803 -410466798 816051228 1932859307 2035946460 -1116428849 1314599555 -197226336 249175154 2069682871 989528997 771285029 -458370435 -2014586972 1109019732 651621961 655746513 691603369 1962254012 1690472691 -1277125629 -204513866 -1320786350 -1588889466 -625018396 940679173 1093961791 -1919505665
REM
CELL 1.54180   15.00000   15.00000   15.00000   90.00000   90.00000   90.00000
LATT -1
SFAC C  
C      1  0.6536950000000  0.5627300000000  0.6271500000000 1.0
C      1  0.4881670000000  0.6666930000000  0.6280020000000 1.0
C      1  0.3383240000000  0.5411910000000  0.6284310000000 1.0
C      1  0.4113430000000  0.3602230000000  0.6278170000000 1.0
C      1  0.6058480000000  0.3734580000000  0.6270940000000 1.0
C      1  0.4221180000000  0.3409400000000  0.3175450000000 1.0
C      1  0.6267140000000  0.3777660000000  0.3182010000000 1.0
C      1  0.6548870000000  0.5828780000000  0.3190780000000 1.0
C      1  0.4690570000000  0.6736060000000  0.3191100000000 1.0
C      1  0.3245250000000  0.5248920000000  0.3181800000000 1.0
C      1  0.3305510000000  0.4130140000000  0.4411140000000 1.0
C      1  0.5308390000000  0.3080640000000  0.4400990000000 1.0
C      1  0.6921540000000  0.4707890000000  0.4417410000000 1.0
C      1  0.5849860000000  0.6702810000000  0.4438800000000 1.0
C      1  0.3662240000000  0.6319450000000  0.4435850000000 1.0
C      1  0.3546650000000  0.5370210000000  0.7248690000000 1.0
C      1  0.4201410000000  0.3738790000000  0.7243750000000 1.0
C      1  0.5954480000000  0.3858350000000  0.7236540000000 1.0
C      1  0.6383280000000  0.5561540000000  0.7236250000000 1.0
C      1  0.4896350000000  0.6496200000000  0.7243970000000 1.0
C      1  0.6732470000000  0.3759220000000  0.4101560000000 1.0
C      1  0.6710590000000  0.6263410000000  0.4112660000000 1.0
C      1  0.4323920000000  0.7023520000000  0.4115880000000 1.0
C      1  0.2855140000000  0.4984650000000  0.4105560000000 1.0
C      1  0.4350310000000  0.2955480000000  0.4095800000000 1.0
C      1  0.7260960000000  0.5206910000000  0.3515290000000 1.0
C      1  0.5508600000000  0.7196880000000  0.3530850000000 1.0
C      1  0.3073340000000  0.6167600000000  0.3532370000000 1.0
C      1  0.3288150000000  0.3513860000000  0.3516940000000 1.0
C      1  0.5897360000000  0.2907480000000  0.3507540000000 1.0
C      1  0.4992960000000  0.7268220000000  0.4754190000000 1.0
C      1  0.2847470000000  0.5690370000000  0.4752320000000 1.0
C      1  0.3683090000000  0.3174820000000  0.4740590000000 1.0
C      1  0.6326230000000  0.3181530000000  0.4736880000000 1.0
C      1  0.7152280000000  0.5704220000000  0.4744230000000 1.0
C      1  0.4442670000000  0.5560740000000  0.4557370000000 1.0
C      1  0.4287020000000  0.4606820000000  0.4548690000000 1.0
C      1  0.5145410000000  0.4164220000000  0.4551660000000 1.0
C      1  0.5832170000000  0.4843120000000  0.4562020000000 1.0
C      1  0.5398570000000  0.5707150000000  0.4565270000000 1.0
C      1  0.4927060000000  0.5827480000000  0.5806450000000 1.0
C      1  0.4199410000000  0.5199520000000  0.5816660000000 1.0
C      1  0.4571040000000  0.4314280000000  0.5817060000000 1.0
C      1  0.5527990000000  0.4393010000000  0.5807670000000 1.0
C      1  0.5749460000000  0.5328140000000  0.5800370000000 1.0
C      1  0.4891920000000  0.7401600000000  0.5684530000000 1.0
C      1  0.2689490000000  0.5639160000000  0.5682920000000 1.0
C      1  0.3685040000000  0.3016620000000  0.5672140000000 1.0
C      1  0.6476170000000  0.3138610000000  0.5668320000000 1.0
C      1  0.7239450000000  0.5838470000000  0.5675380000000 1.0
C      1  0.4802740000000  0.5820320000000  0.2888690000000 1.0
C      1  0.4152200000000  0.5070260000000  0.2882510000000 1.0
C      1  0.4665650000000  0.4220350000000  0.2880070000000 1.0
C      1  0.5631350000000  0.4446250000000  0.2884920000000 1.0
C      1  0.5716000000000  0.5433690000000  0.2890200000000 1.0
C      1  0.5092220000000  0.3608300000000  0.7573400000000 1.0
C      1  0.6354540000000  0.4663180000000  0.7569130000000 1.0
C      1  0.5742410000000  0.6189130000000  0.7573090000000 1.0
C      1  0.4101770000000  0.6078350000000  0.7579680000000 1.0
C      1  0.3698840000000  0.4483310000000  0.7579690000000 1.0
END
