TITL C-3036479-9801-1200 -6.27563703861001e-06 3375 -361.380686246469 0 0 60 (C4v) n - 1
REM
REM in /home/bkarasulu/work/CARBON/AIRSS/Generating-Clusters/REBO/Higher-Symm/Only-C60
REM
REM
REM
REM
REM
REM ./C.cell (a2850807a9bf4ad07a5b6933b78d9264)
REM AIRSS Version 0.9.1 bugfix July 2018 build 013d7b7c2542+ Fri, 06 Jul 2018 19:26:36 +0100
REM compiler GCC version 9.2.1 20190827 (Red Hat 9.2.1-1)
REM options -cpp -mtune=generic -march=x86-64 -g -O0 -fpre-include=/usr/include/finclude/math-vector-fortran.h
REM seed 941147089 1613903423 1730609730 1878628668 -1836222714 -17231757 41597664 -831030715 1136219792 -1232610471 1302302534 -1823083642 -410007372 392734013 2058665054 -1779329238 -433707235 1628430612 1552253143 -1172231961 343789652 -32718826 1650664320 1098326197 -1073506265 -1086620340 -1905278785 1928500369 671875607 730196250 -1452295221 -1097390240 1824879464
REM
CELL 1.54180   15.00000   15.00000   15.00000   90.00000   90.00000   90.00000
LATT -1
SFAC C  
C      1  0.4165500000000  0.5889840000000  0.2921750000000 1.0
C      1  0.2921750000000  0.5889840000000  0.5834500000000 1.0
C      1  0.5834500000000  0.5889840000000  0.7078250000000 1.0
C      1  0.7078250000000  0.5889840000000  0.4165500000000 1.0
C      1  0.5834500000000  0.5889840000000  0.2921750000000 1.0
C      1  0.7078250000000  0.5889840000000  0.5834500000000 1.0
C      1  0.4165500000000  0.5889840000000  0.7078250000000 1.0
C      1  0.2921750000000  0.5889840000000  0.4165500000000 1.0
C      1  0.3224850000000  0.3334750000000  0.5475930000000 1.0
C      1  0.5475930000000  0.3334750000000  0.6775150000000 1.0
C      1  0.6775150000000  0.3334750000000  0.4524070000000 1.0
C      1  0.4524070000000  0.3334750000000  0.3224850000000 1.0
C      1  0.6775150000000  0.3334750000000  0.5475930000000 1.0
C      1  0.4524070000000  0.3334750000000  0.6775150000000 1.0
C      1  0.3224850000000  0.3334750000000  0.4524070000000 1.0
C      1  0.5475930000000  0.3334750000000  0.3224850000000 1.0
C      1  0.4091850000000  0.6820720000000  0.3356280000000 1.0
C      1  0.3356280000000  0.6820720000000  0.5908150000000 1.0
C      1  0.5908150000000  0.6820720000000  0.6643720000000 1.0
C      1  0.6643720000000  0.6820720000000  0.4091850000000 1.0
C      1  0.5908150000000  0.6820720000000  0.3356280000000 1.0
C      1  0.6643720000000  0.6820720000000  0.5908150000000 1.0
C      1  0.4091850000000  0.6820720000000  0.6643720000000 1.0
C      1  0.3356280000000  0.6820720000000  0.4091850000000 1.0
C      1  0.2839760000000  0.4901720000000  0.5496920000000 1.0
C      1  0.5496920000000  0.4901720000000  0.7160240000000 1.0
C      1  0.7160240000000  0.4901720000000  0.4503080000000 1.0
C      1  0.4503080000000  0.4901720000000  0.2839760000000 1.0
C      1  0.7160240000000  0.4901720000000  0.5496920000000 1.0
C      1  0.4503080000000  0.4901720000000  0.7160240000000 1.0
C      1  0.2839760000000  0.4901720000000  0.4503080000000 1.0
C      1  0.5496920000000  0.4901720000000  0.2839760000000 1.0
C      1  0.4543640000000  0.5697100000000  0.3903190000000 1.0
C      1  0.3903190000000  0.5697100000000  0.5456360000000 1.0
C      1  0.5456360000000  0.5697100000000  0.6096810000000 1.0
C      1  0.6096810000000  0.5697100000000  0.4543640000000 1.0
C      1  0.5456360000000  0.5697100000000  0.3903190000000 1.0
C      1  0.6096810000000  0.5697100000000  0.5456360000000 1.0
C      1  0.4543640000000  0.5697100000000  0.6096810000000 1.0
C      1  0.3903190000000  0.5697100000000  0.4543640000000 1.0
C      1  0.3375440000000  0.2546250000000  0.4023620000000 1.0
C      1  0.4023620000000  0.2546250000000  0.6624560000000 1.0
C      1  0.6624560000000  0.2546250000000  0.5976380000000 1.0
C      1  0.5976380000000  0.2546250000000  0.3375440000000 1.0
C      1  0.6624560000000  0.2546250000000  0.4023620000000 1.0
C      1  0.5976380000000  0.2546250000000  0.6624560000000 1.0
C      1  0.3375440000000  0.2546250000000  0.5976380000000 1.0
C      1  0.4023620000000  0.2546250000000  0.3375440000000 1.0
C      1  0.6663560000000  0.4186020000000  0.5949650000000 1.0
C      1  0.5949650000000  0.4186020000000  0.3336440000000 1.0
C      1  0.3336440000000  0.4186020000000  0.4050350000000 1.0
C      1  0.4050350000000  0.4186020000000  0.6663560000000 1.0
C      1  0.3336440000000  0.4186020000000  0.5949650000000 1.0
C      1  0.4050350000000  0.4186020000000  0.3336440000000 1.0
C      1  0.6663560000000  0.4186020000000  0.4050350000000 1.0
C      1  0.5949650000000  0.4186020000000  0.6663560000000 1.0
C      1  0.4433200000000  0.7001940000000  0.5566800000000 1.0
C      1  0.5566800000000  0.7001940000000  0.5566800000000 1.0
C      1  0.4433200000000  0.7001940000000  0.4433200000000 1.0
C      1  0.5566800000000  0.7001940000000  0.4433200000000 1.0
END
