TITL C-3036486-2224-1110 -1.31441614862218e-05 3375 -327.519200747764 0 0 60 (D2) n - 1
REM
REM in /home/bkarasulu/work/CARBON/AIRSS/Generating-Clusters/REBO/Higher-Symm/Only-C60
REM
REM
REM
REM
REM
REM ./C.cell (a2850807a9bf4ad07a5b6933b78d9264)
REM AIRSS Version 0.9.1 bugfix July 2018 build 013d7b7c2542+ Fri, 06 Jul 2018 19:26:36 +0100
REM compiler GCC version 9.2.1 20190827 (Red Hat 9.2.1-1)
REM options -cpp -mtune=generic -march=x86-64 -g -O0 -fpre-include=/usr/include/finclude/math-vector-fortran.h
REM seed 1270268655 -1649174493 -306186383 2046720438 -1092833136 1023722903 -145720562 -1113473363 296345362 6052427 878775122 576549282 -1655972813 674518580 -1334709818 745978831 1713722271 -777692352 294809975 -396243026 -2099435068 -375734737 45208729 -1420248830 672313347 1573087470 477875269 -1900056176 -959031061 -1363401110 -721804020 915340474 -266200377
REM
CELL 1.54180   15.00000   15.00000   15.00000   90.00000   90.00000   90.00000
LATT -1
SFAC C  
C      1  0.3838050000000  0.6225570000000  0.6966080000000 1.0
C      1  0.6162220000000  0.6225710000000  0.3034160000000 1.0
C      1  0.3726820000000  0.3990130000000  0.7137210000000 1.0
C      1  0.6272950000000  0.3990270000000  0.2862590000000 1.0
C      1  0.3726290000000  0.6010160000000  0.2863230000000 1.0
C      1  0.6273940000000  0.6009460000000  0.7136970000000 1.0
C      1  0.3837070000000  0.3774680000000  0.3034320000000 1.0
C      1  0.6162660000000  0.3774030000000  0.6965440000000 1.0
C      1  0.4433020000000  0.4393330000000  0.3688650000000 1.0
C      1  0.5566840000000  0.4392950000000  0.6311230000000 1.0
C      1  0.4505280000000  0.5443330000000  0.3760240000000 1.0
C      1  0.5494820000000  0.5442980000000  0.6239850000000 1.0
C      1  0.4505650000000  0.4556780000000  0.6239940000000 1.0
C      1  0.5494260000000  0.4556920000000  0.3759980000000 1.0
C      1  0.4433650000000  0.5606790000000  0.6311540000000 1.0
C      1  0.5566480000000  0.5606930000000  0.3688580000000 1.0
C      1  0.3765130000000  0.3218980000000  0.5532640000000 1.0
C      1  0.6234470000000  0.3218820000000  0.4467000000000 1.0
C      1  0.3846340000000  0.6522320000000  0.5553150000000 1.0
C      1  0.6154000000000  0.6522170000000  0.4447150000000 1.0
C      1  0.3845800000000  0.3477940000000  0.4447270000000 1.0
C      1  0.6153860000000  0.3477570000000  0.5552430000000 1.0
C      1  0.3765330000000  0.6781290000000  0.4467800000000 1.0
C      1  0.6235060000000  0.6780910000000  0.5532550000000 1.0
C      1  0.5550930000000  0.4361400000000  0.7643320000000 1.0
C      1  0.4448930000000  0.4362040000000  0.2356560000000 1.0
C      1  0.5306240000000  0.5637590000000  0.7350000000000 1.0
C      1  0.4693900000000  0.5638120000000  0.2650130000000 1.0
C      1  0.5305260000000  0.4362330000000  0.2649900000000 1.0
C      1  0.4694600000000  0.4361940000000  0.7349980000000 1.0
C      1  0.5550130000000  0.5638470000000  0.2356490000000 1.0
C      1  0.4450010000000  0.5638070000000  0.7643640000000 1.0
C      1  0.4502990000000  0.7569010000000  0.4256450000000 1.0
C      1  0.5497570000000  0.7568750000000  0.5744060000000 1.0
C      1  0.4453550000000  0.2536650000000  0.4621750000000 1.0
C      1  0.5545900000000  0.2536460000000  0.5377760000000 1.0
C      1  0.4454230000000  0.7463470000000  0.5378440000000 1.0
C      1  0.5546310000000  0.7463430000000  0.4622040000000 1.0
C      1  0.4502700000000  0.2431110000000  0.5743730000000 1.0
C      1  0.5496740000000  0.2431140000000  0.4255760000000 1.0
C      1  0.3755530000000  0.4604410000000  0.4473220000000 1.0
C      1  0.6244380000000  0.4604030000000  0.5526700000000 1.0
C      1  0.3811480000000  0.5735260000000  0.4480810000000 1.0
C      1  0.6188680000000  0.5734900000000  0.5519330000000 1.0
C      1  0.3811510000000  0.4265000000000  0.5519620000000 1.0
C      1  0.6188320000000  0.4264840000000  0.4480240000000 1.0
C      1  0.3755820000000  0.5395870000000  0.5527230000000 1.0
C      1  0.6244270000000  0.5395700000000  0.4472850000000 1.0
C      1  0.4535470000000  0.6915960000000  0.6380220000000 1.0
C      1  0.5464950000000  0.6916130000000  0.3620160000000 1.0
C      1  0.4345910000000  0.3262630000000  0.6515310000000 1.0
C      1  0.5653710000000  0.3262780000000  0.3484350000000 1.0
C      1  0.4345740000000  0.6737520000000  0.3484920000000 1.0
C      1  0.5654640000000  0.6737080000000  0.6515420000000 1.0
C      1  0.4534550000000  0.3084140000000  0.3619950000000 1.0
C      1  0.5465030000000  0.3083770000000  0.6379670000000 1.0
C      1  0.6386570000000  0.4890750000000  0.7229730000000 1.0
C      1  0.3613410000000  0.4891500000000  0.2770250000000 1.0
C      1  0.6385790000000  0.5108930000000  0.2769800000000 1.0
C      1  0.3614240000000  0.5108800000000  0.7230220000000 1.0
END
