TITL C-3036480-97-894 1.46414551492856e-05 3375 -344.709428895772 0 0 60 (C1) n - 1
REM
REM in /home/bkarasulu/work/CARBON/AIRSS/Generating-Clusters/REBO/Higher-Symm/Only-C60
REM
REM
REM
REM
REM
REM ./C.cell (a2850807a9bf4ad07a5b6933b78d9264)
REM AIRSS Version 0.9.1 bugfix July 2018 build 013d7b7c2542+ Fri, 06 Jul 2018 19:26:36 +0100
REM compiler GCC version 9.2.1 20190827 (Red Hat 9.2.1-1)
REM options -cpp -mtune=generic -march=x86-64 -g -O0 -fpre-include=/usr/include/finclude/math-vector-fortran.h
REM seed 1247403916 522782855 -2016321395 -1384658954 -802191173 -1981106065 -896954500 1211909795 1611100485 -671756145 245503702 -303911362 476507669 -256196941 538916028 -1958183993 -1280156351 -1894922433 393436054 -1845104821 810682055 -2006872800 331158250 -1596530623 925139181 -768494247 -1950204686 1268353005 -1628441475 -1366609458 -84802263 -2011699615 -1621561560
REM
CELL 1.54180   15.00000   15.00000   15.00000   90.00000   90.00000   90.00000
LATT -1
SFAC C  
C      1  0.5468940000000  0.3630510000000  0.6690980000000 1.0
C      1  0.5554660000000  0.7165080000000  0.5333570000000 1.0
C      1  0.5498290000000  0.4224450000000  0.2930140000000 1.0
C      1  0.4669210000000  0.4574360000000  0.5939520000000 1.0
C      1  0.4769300000000  0.6079230000000  0.4965600000000 1.0
C      1  0.4665750000000  0.4435600000000  0.4167690000000 1.0
C      1  0.5547530000000  0.4445060000000  0.5301000000000 1.0
C      1  0.5664540000000  0.5561090000000  0.5314740000000 1.0
C      1  0.5571720000000  0.5029480000000  0.4341490000000 1.0
C      1  0.4199450000000  0.5120160000000  0.7382750000000 1.0
C      1  0.4214590000000  0.7012660000000  0.3756450000000 1.0
C      1  0.4225660000000  0.2873420000000  0.3844890000000 1.0
C      1  0.6255260000000  0.5855560000000  0.3553670000000 1.0
C      1  0.6237230000000  0.3356900000000  0.4969100000000 1.0
C      1  0.6263650000000  0.5811210000000  0.6475490000000 1.0
C      1  0.7835270000000  0.4367200000000  0.5101590000000 1.0
C      1  0.7846750000000  0.5400900000000  0.5509380000000 1.0
C      1  0.7836590000000  0.5235820000000  0.4407730000000 1.0
C      1  0.5475700000000  0.5188760000000  0.3263030000000 1.0
C      1  0.5456180000000  0.3412640000000  0.5689630000000 1.0
C      1  0.5508330000000  0.6410180000000  0.6023260000000 1.0
C      1  0.4106170000000  0.5398570000000  0.5576670000000 1.0
C      1  0.4104340000000  0.5360600000000  0.4466210000000 1.0
C      1  0.4169590000000  0.4177640000000  0.5062260000000 1.0
C      1  0.6248750000000  0.7245140000000  0.4644790000000 1.0
C      1  0.6193310000000  0.3591000000000  0.3199600000000 1.0
C      1  0.6179030000000  0.4157160000000  0.7114490000000 1.0
C      1  0.3207550000000  0.5684690000000  0.4025330000000 1.0
C      1  0.3215680000000  0.3706910000000  0.4915640000000 1.0
C      1  0.3197450000000  0.5540430000000  0.6090910000000 1.0
C      1  0.4594450000000  0.5658760000000  0.3024310000000 1.0
C      1  0.4622700000000  0.2880860000000  0.5389060000000 1.0
C      1  0.4612430000000  0.6390700000000  0.6531070000000 1.0
C      1  0.3491240000000  0.4653070000000  0.7793380000000 1.0
C      1  0.3507930000000  0.7603000000000  0.3956190000000 1.0
C      1  0.3522100000000  0.2781550000000  0.3223650000000 1.0
C      1  0.3952520000000  0.6161960000000  0.3412850000000 1.0
C      1  0.3957500000000  0.2903830000000  0.4765810000000 1.0
C      1  0.3944680000000  0.5848730000000  0.6818310000000 1.0
C      1  0.7011070000000  0.3780020000000  0.5131800000000 1.0
C      1  0.7040530000000  0.5716460000000  0.6034700000000 1.0
C      1  0.7019620000000  0.5505860000000  0.3872070000000 1.0
C      1  0.2749740000000  0.3955230000000  0.4029370000000 1.0
C      1  0.2735920000000  0.4659750000000  0.6360200000000 1.0
C      1  0.2704470000000  0.6356230000000  0.4617860000000 1.0
C      1  0.2668360000000  0.4006950000000  0.5734880000000 1.0
C      1  0.2610690000000  0.6132160000000  0.5493170000000 1.0
C      1  0.2669850000000  0.4834760000000  0.3826870000000 1.0
C      1  0.4946840000000  0.4619390000000  0.6938620000000 1.0
C      1  0.4996360000000  0.6901400000000  0.4369470000000 1.0
C      1  0.4953710000000  0.3549420000000  0.3674940000000 1.0
C      1  0.2741920000000  0.7255240000000  0.4330680000000 1.0
C      1  0.2766050000000  0.3289320000000  0.3359000000000 1.0
C      1  0.2745660000000  0.4468100000000  0.7285620000000 1.0
C      1  0.8713020000000  0.5396480000000  0.3926950000000 1.0
C      1  0.8706990000000  0.3861800000000  0.5193260000000 1.0
C      1  0.8730440000000  0.5730820000000  0.5877140000000 1.0
C      1  0.5956800000000  0.3218550000000  0.4099560000000 1.0
C      1  0.5957150000000  0.5133540000000  0.7026530000000 1.0
C      1  0.5982780000000  0.6693650000000  0.3845060000000 1.0
END
