TITL C-3036484-3770-908 1.04038036094471e-06 3375 -359.088253418535 0 0 60 (D2) n - 1
REM
REM in /home/bkarasulu/work/CARBON/AIRSS/Generating-Clusters/REBO/Higher-Symm/Only-C60
REM
REM
REM
REM
REM
REM ./C.cell (a2850807a9bf4ad07a5b6933b78d9264)
REM AIRSS Version 0.9.1 bugfix July 2018 build 013d7b7c2542+ Fri, 06 Jul 2018 19:26:36 +0100
REM compiler GCC version 9.2.1 20190827 (Red Hat 9.2.1-1)
REM options -cpp -mtune=generic -march=x86-64 -g -O0 -fpre-include=/usr/include/finclude/math-vector-fortran.h
REM seed -1135281662 110067298 -1920312459 354879479 1133642486 -1413408741 -878221941 226137328 -317165397 468151566 585755047 -1521747996 1852422555 1880291835 1371098811 1885594850 1496811807 1330500909 -942957498 -955682085 -1166119938 2125788410 2141481444 70254604 347106590 2038389667 1819882129 -1751695579 225763394 571109711 436826902 273227942 -2044421930
REM
CELL 1.54180   15.00000   15.00000   15.00000   90.00000   90.00000   90.00000
LATT -1
SFAC C  
C      1  0.5983340000000  0.6857150000000  0.6276540000000 1.0
C      1  0.5983310000000  0.3142870000000  0.3723420000000 1.0
C      1  0.4016720000000  0.3142490000000  0.6276060000000 1.0
C      1  0.4016630000000  0.6857490000000  0.3723980000000 1.0
C      1  0.4835380000000  0.2985730000000  0.6738820000000 1.0
C      1  0.4835260000000  0.7014270000000  0.3261190000000 1.0
C      1  0.5164700000000  0.7013790000000  0.6739370000000 1.0
C      1  0.5164660000000  0.2986220000000  0.3260620000000 1.0
C      1  0.5545440000000  0.6395880000000  0.3147840000000 1.0
C      1  0.5545560000000  0.3604130000000  0.6852130000000 1.0
C      1  0.4454470000000  0.3604640000000  0.3147480000000 1.0
C      1  0.4454530000000  0.6395350000000  0.6852550000000 1.0
C      1  0.3738990000000  0.6333280000000  0.6278620000000 1.0
C      1  0.3738950000000  0.3666700000000  0.3721440000000 1.0
C      1  0.6261070000000  0.3666360000000  0.6278190000000 1.0
C      1  0.6260980000000  0.6333660000000  0.3721750000000 1.0
C      1  0.3313760000000  0.5387990000000  0.5826540000000 1.0
C      1  0.3313730000000  0.4611980000000  0.4173540000000 1.0
C      1  0.6686280000000  0.4611780000000  0.5826350000000 1.0
C      1  0.6686230000000  0.5388260000000  0.4173570000000 1.0
C      1  0.6468800000000  0.6079360000000  0.6503190000000 1.0
C      1  0.6468750000000  0.3920670000000  0.3496740000000 1.0
C      1  0.3531270000000  0.3920220000000  0.6502960000000 1.0
C      1  0.3531180000000  0.6079760000000  0.3497110000000 1.0
C      1  0.4220530000000  0.4710710000000  0.5688810000000 1.0
C      1  0.4220490000000  0.5289270000000  0.4311220000000 1.0
C      1  0.5779500000000  0.5289090000000  0.5688860000000 1.0
C      1  0.5779480000000  0.4710920000000  0.4311100000000 1.0
C      1  0.2949970000000  0.5615940000000  0.4112610000000 1.0
C      1  0.2950020000000  0.4384020000000  0.5887490000000 1.0
C      1  0.7049990000000  0.4384310000000  0.4112340000000 1.0
C      1  0.7050020000000  0.5615730000000  0.5887560000000 1.0
C      1  0.7169760000000  0.4054590000000  0.4979480000000 1.0
C      1  0.7169740000000  0.5945450000000  0.5020420000000 1.0
C      1  0.2830240000000  0.5945410000000  0.4979850000000 1.0
C      1  0.2830260000000  0.4054550000000  0.5020260000000 1.0
C      1  0.4201650000000  0.4665620000000  0.6826420000000 1.0
C      1  0.4201550000000  0.5334370000000  0.3173620000000 1.0
C      1  0.5798440000000  0.5333870000000  0.6826470000000 1.0
C      1  0.5798360000000  0.4666150000000  0.3173490000000 1.0
C      1  0.4360270000000  0.7921240000000  0.4959220000000 1.0
C      1  0.4360330000000  0.2078750000000  0.5040810000000 1.0
C      1  0.5639720000000  0.2078770000000  0.4958380000000 1.0
C      1  0.5639670000000  0.7921240000000  0.5041590000000 1.0
C      1  0.3396160000000  0.3358780000000  0.4605410000000 1.0
C      1  0.3396150000000  0.6641190000000  0.5394670000000 1.0
C      1  0.6603820000000  0.6641330000000  0.4605790000000 1.0
C      1  0.6603870000000  0.3358700000000  0.5394130000000 1.0
C      1  0.5931350000000  0.2937090000000  0.4741020000000 1.0
C      1  0.5931330000000  0.7062930000000  0.5258930000000 1.0
C      1  0.4068640000000  0.7062980000000  0.4741640000000 1.0
C      1  0.4068690000000  0.2937000000000  0.5258400000000 1.0
C      1  0.4586940000000  0.6055500000000  0.4774580000000 1.0
C      1  0.4586970000000  0.3944490000000  0.5225440000000 1.0
C      1  0.5413050000000  0.3944560000000  0.4774260000000 1.0
C      1  0.5413040000000  0.6055450000000  0.5225720000000 1.0
C      1  0.4773080000000  0.5525870000000  0.7192470000000 1.0
C      1  0.4772990000000  0.4474120000000  0.2807540000000 1.0
C      1  0.5227020000000  0.4473510000000  0.7192320000000 1.0
C      1  0.5226910000000  0.5526490000000  0.2807670000000 1.0
END
