TITL C-3036486-2224-958 -1.2756411035571e-06 3375 -350.56374665615 0 0 60 (C5) n - 1
REM
REM in /home/bkarasulu/work/CARBON/AIRSS/Generating-Clusters/REBO/Higher-Symm/Only-C60
REM
REM
REM
REM
REM
REM ./C.cell (a2850807a9bf4ad07a5b6933b78d9264)
REM AIRSS Version 0.9.1 bugfix July 2018 build 013d7b7c2542+ Fri, 06 Jul 2018 19:26:36 +0100
REM compiler GCC version 9.2.1 20190827 (Red Hat 9.2.1-1)
REM options -cpp -mtune=generic -march=x86-64 -g -O0 -fpre-include=/usr/include/finclude/math-vector-fortran.h
REM seed -2036493350 1652594696 1099054944 -913604577 -259024239 -1717300730 -196488068 -1936616882 1261434512 -854153787 1269330664 -95153163 1045182895 1003870857 -1322761861 130979507 -1817553706 29296324 1455746943 1062048378 -1918710605 1450038679 -927702396 1020614867 -2145570444 -1091179279 -1467245509 -1205417235 206245014 -214536271 1639628464 1892849511 395900336
REM
CELL 1.54180   15.00000   15.00000   15.00000   90.00000   90.00000   90.00000
LATT -1
SFAC C  
C      1  0.6758910000000  0.4353120000000  0.3334430000000 1.0
C      1  0.3959480000000  0.4353630000000  0.2812340000000 1.0
C      1  0.2597880000000  0.4353580000000  0.5313420000000 1.0
C      1  0.4555780000000  0.4353040000000  0.7381250000000 1.0
C      1  0.7127440000000  0.4352750000000  0.6158180000000 1.0
C      1  0.5345020000000  0.2817390000000  0.5733900000000 1.0
C      1  0.5804600000000  0.2817430000000  0.4898140000000 1.0
C      1  0.5151770000000  0.2817620000000  0.4202790000000 1.0
C      1  0.4288720000000  0.2817710000000  0.4608800000000 1.0
C      1  0.4408150000000  0.2817560000000  0.5555070000000 1.0
C      1  0.6619090000000  0.6184220000000  0.5536360000000 1.0
C      1  0.6010440000000  0.6184510000000  0.3626160000000 1.0
C      1  0.4005650000000  0.6184830000000  0.3614750000000 1.0
C      1  0.3375280000000  0.6184740000000  0.5517880000000 1.0
C      1  0.4990480000000  0.6184370000000  0.6705500000000 1.0
C      1  0.5270740000000  0.3592750000000  0.3621220000000 1.0
C      1  0.3772360000000  0.3592890000000  0.4316120000000 1.0
C      1  0.3970230000000  0.3592640000000  0.5955910000000 1.0
C      1  0.5590900000000  0.3592340000000  0.6274440000000 1.0
C      1  0.6394660000000  0.3592400000000  0.4831530000000 1.0
C      1  0.5896870000000  0.4549620000000  0.5140810000000 1.0
C      1  0.5411040000000  0.4549800000000  0.4190460000000 1.0
C      1  0.4357080000000  0.4549950000000  0.4358840000000 1.0
C      1  0.4191510000000  0.4549860000000  0.5413240000000 1.0
C      1  0.5143160000000  0.4549650000000  0.5896540000000 1.0
C      1  0.3322410000000  0.5093420000000  0.5615280000000 1.0
C      1  0.5066750000000  0.5093030000000  0.6785650000000 1.0
C      1  0.6718870000000  0.5092890000000  0.5488350000000 1.0
C      1  0.5995600000000  0.5093200000000  0.3516200000000 1.0
C      1  0.3896470000000  0.5093530000000  0.3594640000000 1.0
C      1  0.7503680000000  0.5771110000000  0.5052120000000 1.0
C      1  0.5823240000000  0.5771610000000  0.2635150000000 1.0
C      1  0.3005290000000  0.5771970000000  0.3486460000000 1.0
C      1  0.2944130000000  0.5771700000000  0.6429550000000 1.0
C      1  0.5724280000000  0.5771160000000  0.7397190000000 1.0
C      1  0.4130480000000  0.6737730000000  0.4583390000000 1.0
C      1  0.4335090000000  0.6737590000000  0.5698610000000 1.0
C      1  0.5458970000000  0.6737390000000  0.5848640000000 1.0
C      1  0.5948950000000  0.6737410000000  0.4826130000000 1.0
C      1  0.5127890000000  0.6737620000000  0.4044160000000 1.0
C      1  0.6496420000000  0.3999440000000  0.6762910000000 1.0
C      1  0.7139050000000  0.3999620000000  0.4121360000000 1.0
C      1  0.4825360000000  0.4000160000000  0.2693900000000 1.0
C      1  0.2752810000000  0.4000310000000  0.4453240000000 1.0
C      1  0.3785580000000  0.3999860000000  0.6968020000000 1.0
C      1  0.3322540000000  0.6267390000000  0.7095020000000 1.0
C      1  0.6474120000000  0.6266880000000  0.7243050000000 1.0
C      1  0.7588810000000  0.6266990000000  0.4291450000000 1.0
C      1  0.5126110000000  0.6267570000000  0.2319230000000 1.0
C      1  0.2489420000000  0.6267820000000  0.4051950000000 1.0
C      1  0.2959950000000  0.3952420000000  0.6192280000000 1.0
C      1  0.5503510000000  0.3951900000000  0.7308390000000 1.0
C      1  0.7351010000000  0.3951830000000  0.5234220000000 1.0
C      1  0.5949260000000  0.3952310000000  0.2836180000000 1.0
C      1  0.3235420000000  0.3952670000000  0.3428310000000 1.0
C      1  0.4081770000000  0.6680580000000  0.6811710000000 1.0
C      1  0.6439300000000  0.6680240000000  0.6433520000000 1.0
C      1  0.6808140000000  0.6680410000000  0.4074510000000 1.0
C      1  0.4678560000000  0.6680860000000  0.2994740000000 1.0
C      1  0.2993570000000  0.6680970000000  0.4686430000000 1.0
END
