TITL C-3036484-3770-632 0.00410581944450296 3375 -333.33376305889 0 0 60 (C3) n - 1
REM
REM in /home/bkarasulu/work/CARBON/AIRSS/Generating-Clusters/REBO/Higher-Symm/Only-C60
REM
REM
REM
REM
REM
REM ./C.cell (a2850807a9bf4ad07a5b6933b78d9264)
REM AIRSS Version 0.9.1 bugfix July 2018 build 013d7b7c2542+ Fri, 06 Jul 2018 19:26:36 +0100
REM compiler GCC version 9.2.1 20190827 (Red Hat 9.2.1-1)
REM options -cpp -mtune=generic -march=x86-64 -g -O0 -fpre-include=/usr/include/finclude/math-vector-fortran.h
REM seed -2135954522 1248645238 -1612119504 -148710655 -1088150873 1256722678 -605652618 1312482496 1754511337 -230955021 -566962083 198710533 -1069756296 -514420880 1550177564 -961858758 -1367922175 337548355 -1987283570 -1866192366 -940457947 1285107089 1901807430 1317938273 662301003 1282168748 -1624472783 1892132738 1074154853 1831999676 -1559973380 -730825493 1682393644
REM
CELL 1.54180   15.00000   15.00000   15.00000   90.00000   90.00000   90.00000
LATT -1
SFAC C  
C      1  0.4379210000000  0.2929530000000  0.5190800000000 1.0
C      1  0.5475630000000  0.2929520000000  0.5442240000000 1.0
C      1  0.5145180000000  0.2929520000000  0.4366990000000 1.0
C      1  0.6536640000000  0.3097790000000  0.5729660000000 1.0
C      1  0.4863590000000  0.3097750000000  0.3304420000000 1.0
C      1  0.3599780000000  0.3097800000000  0.5965920000000 1.0
C      1  0.3094940000000  0.6830010000000  0.6170080000000 1.0
C      1  0.6965900000000  0.6830030000000  0.6064860000000 1.0
C      1  0.4939300000000  0.6829950000000  0.2764930000000 1.0
C      1  0.5864360000000  0.3448550000000  0.3411630000000 1.0
C      1  0.3192250000000  0.3448570000000  0.5045660000000 1.0
C      1  0.5943430000000  0.3448570000000  0.6542740000000 1.0
C      1  0.5050680000000  0.4348800000000  0.2893010000000 1.0
C      1  0.3149910000000  0.4348790000000  0.6009660000000 1.0
C      1  0.6799390000000  0.4348850000000  0.6097410000000 1.0
C      1  0.7017220000000  0.5514330000000  0.4861970000000 1.0
C      1  0.3871900000000  0.5514340000000  0.3321960000000 1.0
C      1  0.4110780000000  0.5514330000000  0.6815970000000 1.0
C      1  0.4953310000000  0.6934020000000  0.6131180000000 1.0
C      1  0.6002830000000  0.6933980000000  0.4474870000000 1.0
C      1  0.4043770000000  0.6934050000000  0.4393940000000 1.0
C      1  0.5753000000000  0.4335680000000  0.6926280000000 1.0
C      1  0.6291640000000  0.4335710000000  0.3384760000000 1.0
C      1  0.2955350000000  0.4335730000000  0.4689050000000 1.0
C      1  0.7184730000000  0.4360700000000  0.3691450000000 1.0
C      1  0.2774420000000  0.4360740000000  0.3762270000000 1.0
C      1  0.5040820000000  0.4360640000000  0.7546330000000 1.0
C      1  0.5955870000000  0.6708500000000  0.6575200000000 1.0
C      1  0.5886200000000  0.6708560000000  0.3384600000000 1.0
C      1  0.3157920000000  0.6708470000000  0.5040240000000 1.0
C      1  0.4100000000000  0.6923630000000  0.5664010000000 1.0
C      1  0.6025010000000  0.6923660000000  0.5447460000000 1.0
C      1  0.4874860000000  0.6923780000000  0.3888390000000 1.0
C      1  0.2984730000000  0.5239120000000  0.6164980000000 1.0
C      1  0.7016500000000  0.5239050000000  0.6162850000000 1.0
C      1  0.4998800000000  0.5239010000000  0.2672250000000 1.0
C      1  0.3709400000000  0.3837580000000  0.6716610000000 1.0
C      1  0.7131960000000  0.3837590000000  0.5259370000000 1.0
C      1  0.4158630000000  0.3837560000000  0.3024010000000 1.0
C      1  0.4962500000000  0.4213180000000  0.4016520000000 1.0
C      1  0.4167020000000  0.4213190000000  0.5524250000000 1.0
C      1  0.5870480000000  0.4213250000000  0.5459280000000 1.0
C      1  0.3629350000000  0.5085750000000  0.5009570000000 1.0
C      1  0.5693730000000  0.5085680000000  0.6182300000000 1.0
C      1  0.5676960000000  0.5085690000000  0.3808130000000 1.0
C      1  0.4163050000000  0.3815250000000  0.4493270000000 1.0
C      1  0.4979650000000  0.3815270000000  0.5978200000000 1.0
C      1  0.5857330000000  0.3815260000000  0.4528540000000 1.0
C      1  0.5133640000000  0.5915330000000  0.6593250000000 1.0
C      1  0.6312860000000  0.5915320000000  0.4087680000000 1.0
C      1  0.3553500000000  0.5915380000000  0.4319130000000 1.0
C      1  0.7497360000000  0.6074450000000  0.5741360000000 1.0
C      1  0.4393420000000  0.6074360000000  0.2466480000000 1.0
C      1  0.3109380000000  0.6074510000000  0.6792000000000 1.0
C      1  0.7310700000000  0.4544580000000  0.4609060000000 1.0
C      1  0.3506100000000  0.4544590000000  0.3194350000000 1.0
C      1  0.4183190000000  0.4544560000000  0.7196600000000 1.0
C      1  0.6205840000000  0.5843170000000  0.5596600000000 1.0
C      1  0.4913690000000  0.5843230000000  0.3657330000000 1.0
C      1  0.3880370000000  0.5843210000000  0.5746110000000 1.0
END
