TITL C-3036482-790-721 3.6577126642947e-06 3375 -337.125898296365 0 0 60 (C2) n - 1
REM
REM in /home/bkarasulu/work/CARBON/AIRSS/Generating-Clusters/REBO/Higher-Symm/Only-C60
REM
REM
REM
REM
REM
REM ./C.cell (a2850807a9bf4ad07a5b6933b78d9264)
REM AIRSS Version 0.9.1 bugfix July 2018 build 013d7b7c2542+ Fri, 06 Jul 2018 19:26:36 +0100
REM compiler GCC version 9.2.1 20190827 (Red Hat 9.2.1-1)
REM options -cpp -mtune=generic -march=x86-64 -g -O0 -fpre-include=/usr/include/finclude/math-vector-fortran.h
REM seed 1410871264 96485113 1679702981 -1407008612 -1310945621 -1492810332 852744671 -787202779 1045985462 -703359013 23973020 -1903428869 -1652459103 2011384140 1285362882 -1954811308 803658941 -2060351932 1426994635 -1349471817 1744849087 -1005356606 -1774255651 -1468476728 -1454014360 974067330 543066398 671906157 -195702952 -1669460594 -1625862110 -464477094 -1950363958
REM
CELL 1.54180   15.00000   15.00000   15.00000   90.00000   90.00000   90.00000
LATT -1
SFAC C  
C      1  0.2320560000000  0.4036360000000  0.5349870000000 1.0
C      1  0.2342580000000  0.5950320000000  0.4640350000000 1.0
C      1  0.7679440000000  0.4036360000000  0.4650130000000 1.0
C      1  0.7657420000000  0.5950320000000  0.5359650000000 1.0
C      1  0.4717350000000  0.3086430000000  0.4512490000000 1.0
C      1  0.4712380000000  0.7018500000000  0.5484470000000 1.0
C      1  0.5282650000000  0.3086430000000  0.5487510000000 1.0
C      1  0.5287620000000  0.7018500000000  0.4515530000000 1.0
C      1  0.5784530000000  0.6947770000000  0.5745640000000 1.0
C      1  0.5805620000000  0.3010420000000  0.4267570000000 1.0
C      1  0.4215470000000  0.6947770000000  0.4254360000000 1.0
C      1  0.4194380000000  0.3010420000000  0.5732430000000 1.0
C      1  0.4234760000000  0.6461610000000  0.3267290000000 1.0
C      1  0.4260800000000  0.3504140000000  0.6747230000000 1.0
C      1  0.5765240000000  0.6461610000000  0.6732710000000 1.0
C      1  0.5739200000000  0.3504140000000  0.3252770000000 1.0
C      1  0.5301990000000  0.5567210000000  0.6724570000000 1.0
C      1  0.5289480000000  0.4380760000000  0.3353150000000 1.0
C      1  0.4698010000000  0.5567210000000  0.3275430000000 1.0
C      1  0.4710520000000  0.4380760000000  0.6646850000000 1.0
C      1  0.2625920000000  0.3169770000000  0.4767030000000 1.0
C      1  0.2626080000000  0.6826930000000  0.5214160000000 1.0
C      1  0.7374080000000  0.3169770000000  0.5232970000000 1.0
C      1  0.7373920000000  0.6826930000000  0.4785840000000 1.0
C      1  0.3875600000000  0.5941340000000  0.4435400000000 1.0
C      1  0.3837730000000  0.4035640000000  0.5610380000000 1.0
C      1  0.6124400000000  0.5941340000000  0.5564600000000 1.0
C      1  0.6162270000000  0.4035640000000  0.4389620000000 1.0
C      1  0.2357980000000  0.5919680000000  0.5730510000000 1.0
C      1  0.2355270000000  0.4078940000000  0.4258970000000 1.0
C      1  0.7642020000000  0.5919680000000  0.4269490000000 1.0
C      1  0.7644730000000  0.4078940000000  0.5741030000000 1.0
C      1  0.4652550000000  0.4095800000000  0.4223580000000 1.0
C      1  0.4756890000000  0.6019180000000  0.5845230000000 1.0
C      1  0.5347450000000  0.4095800000000  0.5776420000000 1.0
C      1  0.5243110000000  0.6019180000000  0.4154770000000 1.0
C      1  0.6941850000000  0.5582250000000  0.5858160000000 1.0
C      1  0.6981440000000  0.4397690000000  0.4121650000000 1.0
C      1  0.3058150000000  0.5582250000000  0.4141840000000 1.0
C      1  0.3018560000000  0.4397690000000  0.5878350000000 1.0
C      1  0.6863220000000  0.5348360000000  0.3774250000000 1.0
C      1  0.6866350000000  0.4641230000000  0.6242790000000 1.0
C      1  0.3136780000000  0.5348360000000  0.6225750000000 1.0
C      1  0.3133650000000  0.4641230000000  0.3757210000000 1.0
C      1  0.6482410000000  0.6411540000000  0.3894850000000 1.0
C      1  0.6504770000000  0.3567500000000  0.6151990000000 1.0
C      1  0.3517590000000  0.6411540000000  0.6105150000000 1.0
C      1  0.3495230000000  0.3567500000000  0.3848010000000 1.0
C      1  0.5660990000000  0.5472290000000  0.4923530000000 1.0
C      1  0.5664290000000  0.4557470000000  0.4956750000000 1.0
C      1  0.4339010000000  0.5472290000000  0.5076470000000 1.0
C      1  0.4335710000000  0.4557470000000  0.5043250000000 1.0
C      1  0.4189780000000  0.5349760000000  0.6548830000000 1.0
C      1  0.4170710000000  0.4620220000000  0.3386940000000 1.0
C      1  0.5810220000000  0.5349760000000  0.3451170000000 1.0
C      1  0.5829290000000  0.4620220000000  0.6613060000000 1.0
C      1  0.6348210000000  0.2889960000000  0.5255410000000 1.0
C      1  0.6352260000000  0.7110900000000  0.4777690000000 1.0
C      1  0.3651790000000  0.2889960000000  0.4744590000000 1.0
C      1  0.3647740000000  0.7110900000000  0.5222310000000 1.0
END
