TITL C-3036480-97-107 1.5960706759078e-05 3375 -373.285462264827 0 0 60 (D6d) n - 1
REM
REM in /home/bkarasulu/work/CARBON/AIRSS/Generating-Clusters/REBO/Higher-Symm/Only-C60
REM
REM
REM
REM
REM
REM ./C.cell (a2850807a9bf4ad07a5b6933b78d9264)
REM AIRSS Version 0.9.1 bugfix July 2018 build 013d7b7c2542+ Fri, 06 Jul 2018 19:26:36 +0100
REM compiler GCC version 9.2.1 20190827 (Red Hat 9.2.1-1)
REM options -cpp -mtune=generic -march=x86-64 -g -O0 -fpre-include=/usr/include/finclude/math-vector-fortran.h
REM seed -487987810 1699819630 -357917138 -886657015 -456522098 273317038 -488338675 237824903 -1679051630 950481388 285501347 1906144761 -1381885598 -521938532 220784022 2038286021 709574076 -1265182133 -191583522 -449204492 -1115822010 251159121 384403800 -1792814504 1547730586 53938067 -1156148406 1211488667 665698193 704377279 -1714679350 574021264 412264232
REM
CELL 1.54180   15.00000   15.00000   15.00000   90.00000   90.00000   90.00000
LATT -1
SFAC C  
C      1  0.5975880000000  0.5032470000000  0.2540660000000 1.0
C      1  0.5861370000000  0.4540180000000  0.7459340000000 1.0
C      1  0.5516060000000  0.4171100000000  0.2540660000000 1.0
C      1  0.5032470000000  0.4024120000000  0.7459340000000 1.0
C      1  0.4540180000000  0.4138630000000  0.2540660000000 1.0
C      1  0.4171100000000  0.4483940000000  0.7459340000000 1.0
C      1  0.4024120000000  0.4967530000000  0.2540660000000 1.0
C      1  0.4138630000000  0.5459820000000  0.7459340000000 1.0
C      1  0.4483940000000  0.5828900000000  0.2540660000000 1.0
C      1  0.4967530000000  0.5975880000000  0.7459340000000 1.0
C      1  0.5459820000000  0.5861370000000  0.2540660000000 1.0
C      1  0.5828900000000  0.5516060000000  0.7459340000000 1.0
C      1  0.5064900000000  0.3049400000000  0.3717370000000 1.0
C      1  0.4080910000000  0.3278280000000  0.6282630000000 1.0
C      1  0.3343180000000  0.3968500000000  0.3717380000000 1.0
C      1  0.3049400000000  0.4935100000000  0.6282630000000 1.0
C      1  0.3278280000000  0.5919090000000  0.3717370000000 1.0
C      1  0.3968500000000  0.6656820000000  0.6282620000000 1.0
C      1  0.4935100000000  0.6950600000000  0.3717370000000 1.0
C      1  0.5919090000000  0.6721720000000  0.6282630000000 1.0
C      1  0.6656820000000  0.6031500000000  0.3717380000000 1.0
C      1  0.6950600000000  0.5064900000000  0.6282630000000 1.0
C      1  0.6721720000000  0.4080910000000  0.3717370000000 1.0
C      1  0.6031500000000  0.3343180000000  0.6282620000000 1.0
C      1  0.6565030000000  0.4164550000000  0.6857090000000 1.0
C      1  0.5937630000000  0.3493960000000  0.3142910000000 1.0
C      1  0.5058990000000  0.3226920000000  0.6857090000000 1.0
C      1  0.4164550000000  0.3434970000000  0.3142910000000 1.0
C      1  0.3493960000000  0.4062370000000  0.6857090000000 1.0
C      1  0.3226920000000  0.4941010000000  0.3142910000000 1.0
C      1  0.3434970000000  0.5835450000000  0.6857090000000 1.0
C      1  0.4062370000000  0.6506040000000  0.3142910000000 1.0
C      1  0.4941010000000  0.6773080000000  0.6857090000000 1.0
C      1  0.5835450000000  0.6565030000000  0.3142910000000 1.0
C      1  0.6506040000000  0.5937630000000  0.6857090000000 1.0
C      1  0.6773080000000  0.5058990000000  0.3142910000000 1.0
C      1  0.6821870000000  0.5060620000000  0.5183020000000 1.0
C      1  0.6608100000000  0.4141560000000  0.4816980000000 1.0
C      1  0.5963430000000  0.3452520000000  0.5183020000000 1.0
C      1  0.5060620000000  0.3178130000000  0.4816980000000 1.0
C      1  0.4141560000000  0.3391900000000  0.5183020000000 1.0
C      1  0.3452520000000  0.4036570000000  0.4816980000000 1.0
C      1  0.3178130000000  0.4939380000000  0.5183020000000 1.0
C      1  0.3391900000000  0.5858440000000  0.4816980000000 1.0
C      1  0.4036570000000  0.6547480000000  0.5183020000000 1.0
C      1  0.4939380000000  0.6821870000000  0.4816980000000 1.0
C      1  0.5858440000000  0.6608100000000  0.5183020000000 1.0
C      1  0.6547480000000  0.5963430000000  0.4816980000000 1.0
C      1  0.5466440000000  0.4250790000000  0.6114080000000 1.0
C      1  0.5029350000000  0.4117950000000  0.3885920000000 1.0
C      1  0.4584390000000  0.4221450000000  0.6114080000000 1.0
C      1  0.4250790000000  0.4533560000000  0.3885920000000 1.0
C      1  0.4117950000000  0.4970650000000  0.6114080000000 1.0
C      1  0.4221450000000  0.5415610000000  0.3885920000000 1.0
C      1  0.4533560000000  0.5749210000000  0.6114080000000 1.0
C      1  0.4970650000000  0.5882050000000  0.3885920000000 1.0
C      1  0.5415610000000  0.5778550000000  0.6114080000000 1.0
C      1  0.5749210000000  0.5466440000000  0.3885920000000 1.0
C      1  0.5882050000000  0.5029350000000  0.6114080000000 1.0
C      1  0.5778550000000  0.4584390000000  0.3885920000000 1.0
END
