TITL C-3036481-494-629 0.0227611681301065 3375 -338.700972475776 0 0 60 (C1) n - 1
REM
REM in /home/bkarasulu/work/CARBON/AIRSS/Generating-Clusters/REBO/Higher-Symm/Only-C60
REM
REM
REM
REM
REM
REM ./C.cell (a2850807a9bf4ad07a5b6933b78d9264)
REM AIRSS Version 0.9.1 bugfix July 2018 build 013d7b7c2542+ Fri, 06 Jul 2018 19:26:36 +0100
REM compiler GCC version 9.2.1 20190827 (Red Hat 9.2.1-1)
REM options -cpp -mtune=generic -march=x86-64 -g -O0 -fpre-include=/usr/include/finclude/math-vector-fortran.h
REM seed -911622024 -85366563 64597375 769363068 168670409 1264099872 -1498725339 1563664183 1014100450 793788636 1735498912 -401023568 1551055127 -1695259585 1033944116 -68978054 -746728273 1647495518 -859837486 633376742 -320992674 487276242 -422333864 -2073593026 -592866026 -608129503 -896377729 1641288773 -1238939383 1055793905 -1514618511 615402708 1603625790
REM
CELL 1.54180   15.00000   15.00000   15.00000   90.00000   90.00000   90.00000
LATT -1
SFAC C  
C      1  0.4887020000000  0.6731660000000  0.6230790000000 1.0
C      1  0.5010050000000  0.5673090000000  0.7002170000000 1.0
C      1  0.3767680000000  0.6786720000000  0.4183460000000 1.0
C      1  0.5804960000000  0.3244100000000  0.6241450000000 1.0
C      1  0.4149360000000  0.4213320000000  0.3361130000000 1.0
C      1  0.5616060000000  0.7388680000000  0.4924010000000 1.0
C      1  0.2574500000000  0.4844120000000  0.5580450000000 1.0
C      1  0.5527880000000  0.6289810000000  0.5079920000000 1.0
C      1  0.3527050000000  0.3387850000000  0.5707570000000 1.0
C      1  0.2586070000000  0.4402760000000  0.4573170000000 1.0
C      1  0.6592740000000  0.3494680000000  0.3508690000000 1.0
C      1  0.5006660000000  0.3540440000000  0.6998380000000 1.0
C      1  0.7692650000000  0.4066310000000  0.5816610000000 1.0
C      1  0.4115120000000  0.3218230000000  0.6667020000000 1.0
C      1  0.4684770000000  0.4978130000000  0.2952610000000 1.0
C      1  0.6193940000000  0.5662170000000  0.3385380000000 1.0
C      1  0.4172200000000  0.5137530000000  0.4822300000000 1.0
C      1  0.6690330000000  0.5974740000000  0.6800960000000 1.0
C      1  0.6158850000000  0.3740030000000  0.5405960000000 1.0
C      1  0.6006380000000  0.4317020000000  0.6597140000000 1.0
C      1  0.3834330000000  0.7018790000000  0.5123220000000 1.0
C      1  0.5521590000000  0.3820400000000  0.2681430000000 1.0
C      1  0.5323810000000  0.7470560000000  0.3930290000000 1.0
C      1  0.5717290000000  0.4823090000000  0.3021040000000 1.0
C      1  0.5944350000000  0.6188980000000  0.7312370000000 1.0
C      1  0.4617610000000  0.3242180000000  0.3053090000000 1.0
C      1  0.5073410000000  0.3268700000000  0.4296720000000 1.0
C      1  0.3376760000000  0.6441130000000  0.5747070000000 1.0
C      1  0.4258090000000  0.5711560000000  0.2202860000000 1.0
C      1  0.6516210000000  0.7094110000000  0.5468690000000 1.0
C      1  0.3317350000000  0.5993120000000  0.3858520000000 1.0
C      1  0.5600680000000  0.5917460000000  0.6048190000000 1.0
C      1  0.6068160000000  0.5663860000000  0.4362380000000 1.0
C      1  0.3306290000000  0.3542860000000  0.4742250000000 1.0
C      1  0.2777130000000  0.5515300000000  0.4457930000000 1.0
C      1  0.6630140000000  0.6258500000000  0.2918360000000 1.0
C      1  0.5657480000000  0.2985250000000  0.3438710000000 1.0
C      1  0.6985500000000  0.4705690000000  0.4498240000000 1.0
C      1  0.6550510000000  0.4412260000000  0.3679180000000 1.0
C      1  0.3640490000000  0.4523970000000  0.4239290000000 1.0
C      1  0.3741670000000  0.5618900000000  0.3114230000000 1.0
C      1  0.7007240000000  0.4063740000000  0.5224160000000 1.0
C      1  0.5475630000000  0.3975280000000  0.4801330000000 1.0
C      1  0.5220860000000  0.2455080000000  0.5800250000000 1.0
C      1  0.3282720000000  0.4307220000000  0.6157290000000 1.0
C      1  0.2738400000000  0.5836280000000  0.5432660000000 1.0
C      1  0.5256810000000  0.4936990000000  0.4665900000000 1.0
C      1  0.4771490000000  0.5932000000000  0.4361370000000 1.0
C      1  0.6031520000000  0.3637930000000  0.7488610000000 1.0
C      1  0.4077370000000  0.6050960000000  0.6484290000000 1.0
C      1  0.6958570000000  0.5618080000000  0.4904490000000 1.0
C      1  0.4707380000000  0.7265710000000  0.5468000000000 1.0
C      1  0.6394890000000  0.5132480000000  0.6167590000000 1.0
C      1  0.3865430000000  0.5202680000000  0.5761330000000 1.0
C      1  0.4679350000000  0.6840500000000  0.3740600000000 1.0
C      1  0.5043430000000  0.4628010000000  0.7111740000000 1.0
C      1  0.4019980000000  0.3274550000000  0.4018350000000 1.0
C      1  0.4315690000000  0.2585630000000  0.5852950000000 1.0
C      1  0.4057290000000  0.4764270000000  0.6791010000000 1.0
C      1  0.6872810000000  0.6184540000000  0.5734850000000 1.0
END
