TITL C-3036484-3770-705 -0.00903567692454875 3375 -331.394305661158 0 0 60 (C1) n - 1
REM
REM in /home/bkarasulu/work/CARBON/AIRSS/Generating-Clusters/REBO/Higher-Symm/Only-C60
REM
REM
REM
REM
REM
REM ./C.cell (a2850807a9bf4ad07a5b6933b78d9264)
REM AIRSS Version 0.9.1 bugfix July 2018 build 013d7b7c2542+ Fri, 06 Jul 2018 19:26:36 +0100
REM compiler GCC version 9.2.1 20190827 (Red Hat 9.2.1-1)
REM options -cpp -mtune=generic -march=x86-64 -g -O0 -fpre-include=/usr/include/finclude/math-vector-fortran.h
REM seed 1591921150 -356607334 -1457360401 1298333215 1904161829 717103537 -694600736 1434508280 1542044523 -1396478508 1967149431 1121883788 1042418453 -1749083772 513691754 -751444065 1332100884 1726468254 -1060146292 -1094594665 -1750656498 -1187496728 -1890137613 -733894622 -1527169494 14500433 132507119 1324618043 276297714 -1916683687 -1472213977 -1217416675 -283185218
REM
CELL 1.54180   15.00000   15.00000   15.00000   90.00000   90.00000   90.00000
LATT -1
SFAC C  
C      1  0.6925140000000  0.6546780000000  0.5714910000000 1.0
C      1  0.6916690000000  0.3497400000000  0.4288480000000 1.0
C      1  0.2790240000000  0.6516700000000  0.4237310000000 1.0
C      1  0.2776560000000  0.3462730000000  0.5750890000000 1.0
C      1  0.3611970000000  0.3239910000000  0.3847790000000 1.0
C      1  0.3620050000000  0.6759940000000  0.6136590000000 1.0
C      1  0.6077350000000  0.3273310000000  0.6176660000000 1.0
C      1  0.6091960000000  0.6714780000000  0.3815830000000 1.0
C      1  0.3542230000000  0.6195560000000  0.3448820000000 1.0
C      1  0.3532620000000  0.3786610000000  0.6533600000000 1.0
C      1  0.6167510000000  0.6238690000000  0.6500010000000 1.0
C      1  0.6165730000000  0.3774560000000  0.3483270000000 1.0
C      1  0.4370190000000  0.4072150000000  0.5856710000000 1.0
C      1  0.4376440000000  0.5923400000000  0.4133350000000 1.0
C      1  0.5317430000000  0.4063760000000  0.4148800000000 1.0
C      1  0.5318220000000  0.5924550000000  0.5844620000000 1.0
C      1  0.2634670000000  0.4522820000000  0.5896260000000 1.0
C      1  0.2717420000000  0.5435700000000  0.4155240000000 1.0
C      1  0.6973550000000  0.4584740000000  0.4151810000000 1.0
C      1  0.7076340000000  0.5489650000000  0.5893290000000 1.0
C      1  0.5118350000000  0.6629160000000  0.6690280000000 1.0
C      1  0.5120590000000  0.3366630000000  0.3300250000000 1.0
C      1  0.4589410000000  0.6595280000000  0.3265430000000 1.0
C      1  0.4580490000000  0.3393530000000  0.6722930000000 1.0
C      1  0.6165360000000  0.4906680000000  0.3478950000000 1.0
C      1  0.6182480000000  0.5106400000000  0.6482020000000 1.0
C      1  0.3538580000000  0.4923900000000  0.6453770000000 1.0
C      1  0.3555660000000  0.5057590000000  0.3541890000000 1.0
C      1  0.5500530000000  0.3590280000000  0.5023360000000 1.0
C      1  0.5517450000000  0.6393590000000  0.4967080000000 1.0
C      1  0.4182660000000  0.3583990000000  0.4994890000000 1.0
C      1  0.4199200000000  0.6416580000000  0.4992040000000 1.0
C      1  0.4400330000000  0.7234140000000  0.6490510000000 1.0
C      1  0.4396800000000  0.2764490000000  0.3495150000000 1.0
C      1  0.5316590000000  0.7194440000000  0.3452090000000 1.0
C      1  0.5304740000000  0.2792980000000  0.6536350000000 1.0
C      1  0.3172540000000  0.6661320000000  0.5130700000000 1.0
C      1  0.3158500000000  0.3330140000000  0.4863640000000 1.0
C      1  0.6542060000000  0.6653100000000  0.4827580000000 1.0
C      1  0.6530090000000  0.3363430000000  0.5175880000000 1.0
C      1  0.3998860000000  0.4255180000000  0.4118820000000 1.0
C      1  0.3996710000000  0.5737620000000  0.5868470000000 1.0
C      1  0.5683370000000  0.4287080000000  0.5896470000000 1.0
C      1  0.5688280000000  0.5705450000000  0.4094680000000 1.0
C      1  0.5280170000000  0.4807060000000  0.7054100000000 1.0
C      1  0.5269510000000  0.5222000000000  0.2926740000000 1.0
C      1  0.4445640000000  0.5271970000000  0.2924130000000 1.0
C      1  0.4455260000000  0.4760150000000  0.7067790000000 1.0
C      1  0.4693520000000  0.2139880000000  0.4163080000000 1.0
C      1  0.4704540000000  0.7855870000000  0.5823750000000 1.0
C      1  0.5011530000000  0.2155770000000  0.5879740000000 1.0
C      1  0.5025200000000  0.7833390000000  0.4108130000000 1.0
C      1  0.2110610000000  0.4961600000000  0.4989590000000 1.0
C      1  0.7591570000000  0.5081330000000  0.4965860000000 1.0
C      1  0.4862960000000  0.7301020000000  0.4972910000000 1.0
C      1  0.4848060000000  0.2691080000000  0.5017130000000 1.0
C      1  0.4833920000000  0.5005050000000  0.5814970000000 1.0
C      1  0.4837540000000  0.4987240000000  0.4165180000000 1.0
C      1  0.3198960000000  0.5097360000000  0.5110450000000 1.0
C      1  0.6529250000000  0.4862550000000  0.5138980000000 1.0
END
