TITL C-3036485-3770-529 -0.000163309385252368 3375 -372.149117705814 0 0 60 (C1) n - 1
REM
REM in /home/bkarasulu/work/CARBON/AIRSS/Generating-Clusters/REBO/Higher-Symm/Only-C60
REM
REM
REM
REM
REM
REM ./C.cell (a2850807a9bf4ad07a5b6933b78d9264)
REM AIRSS Version 0.9.1 bugfix July 2018 build 013d7b7c2542+ Fri, 06 Jul 2018 19:26:36 +0100
REM compiler GCC version 9.2.1 20190827 (Red Hat 9.2.1-1)
REM options -cpp -mtune=generic -march=x86-64 -g -O0 -fpre-include=/usr/include/finclude/math-vector-fortran.h
REM seed -1872438685 917628586 381147442 868450373 -1056748633 1333450582 1970847591 1707401753 858780827 102452033 127800794 -33609691 -727464263 491333054 -1386578065 973050138 -79965301 -1359726177 947688647 384014204 1097202864 1391671891 238034787 932005474 523822261 108643177 1070002820 -2085907703 1505927259 -1168783355 982594522 492468303 -815464443
REM
CELL 1.54180   15.00000   15.00000   15.00000   90.00000   90.00000   90.00000
LATT -1
SFAC C  
C      1  0.5267640000000  0.6063740000000  0.2949860000000 1.0
C      1  0.5287310000000  0.2612570000000  0.5106110000000 1.0
C      1  0.5295520000000  0.6284070000000  0.6936950000000 1.0
C      1  0.5263640000000  0.3925530000000  0.2938150000000 1.0
C      1  0.5294520000000  0.7386970000000  0.5111220000000 1.0
C      1  0.5292600000000  0.3719000000000  0.6930210000000 1.0
C      1  0.5606250000000  0.6093400000000  0.5026180000000 1.0
C      1  0.5593590000000  0.4449460000000  0.4127280000000 1.0
C      1  0.5713440000000  0.4508440000000  0.5944820000000 1.0
C      1  0.5589530000000  0.3921350000000  0.5022370000000 1.0
C      1  0.5618490000000  0.5570370000000  0.4137560000000 1.0
C      1  0.5714460000000  0.5500270000000  0.5946810000000 1.0
C      1  0.5797490000000  0.7272510000000  0.4236270000000 1.0
C      1  0.5767660000000  0.3205540000000  0.3454930000000 1.0
C      1  0.5763330000000  0.4544960000000  0.7305260000000 1.0
C      1  0.5793550000000  0.2728140000000  0.4231630000000 1.0
C      1  0.5765550000000  0.6791040000000  0.3462800000000 1.0
C      1  0.5765690000000  0.5456650000000  0.7308550000000 1.0
C      1  0.3819990000000  0.6034930000000  0.3873740000000 1.0
C      1  0.3796870000000  0.3443030000000  0.4651300000000 1.0
C      1  0.3908810000000  0.5466350000000  0.6358590000000 1.0
C      1  0.3802990000000  0.3939600000000  0.3860420000000 1.0
C      1  0.3807930000000  0.6545010000000  0.4655510000000 1.0
C      1  0.3909250000000  0.4538040000000  0.6355550000000 1.0
C      1  0.2314130000000  0.5474110000000  0.4166380000000 1.0
C      1  0.2309640000000  0.4029630000000  0.5000670000000 1.0
C      1  0.2364770000000  0.5483540000000  0.5820860000000 1.0
C      1  0.2306340000000  0.4517490000000  0.4166980000000 1.0
C      1  0.2315070000000  0.5967680000000  0.4996750000000 1.0
C      1  0.2364390000000  0.4517980000000  0.5821730000000 1.0
C      1  0.6018860000000  0.6949080000000  0.6666100000000 1.0
C      1  0.5981880000000  0.5463850000000  0.2537860000000 1.0
C      1  0.5990610000000  0.2604890000000  0.5852640000000 1.0
C      1  0.6016550000000  0.3053670000000  0.6661720000000 1.0
C      1  0.5975260000000  0.4540520000000  0.2540320000000 1.0
C      1  0.5995450000000  0.7400650000000  0.5858640000000 1.0
C      1  0.6459050000000  0.4107570000000  0.3467260000000 1.0
C      1  0.6525780000000  0.4066510000000  0.6608610000000 1.0
C      1  0.6484810000000  0.6821850000000  0.5022310000000 1.0
C      1  0.6474070000000  0.5902420000000  0.3460320000000 1.0
C      1  0.6528070000000  0.5936360000000  0.6612840000000 1.0
C      1  0.6469520000000  0.3194120000000  0.5017980000000 1.0
C      1  0.4706810000000  0.6002030000000  0.6101990000000 1.0
C      1  0.4623750000000  0.5527200000000  0.3588490000000 1.0
C      1  0.4600900000000  0.3397120000000  0.5221470000000 1.0
C      1  0.4706390000000  0.4002630000000  0.6093510000000 1.0
C      1  0.4602120000000  0.4444860000000  0.3570340000000 1.0
C      1  0.4609470000000  0.6602910000000  0.5227400000000 1.0
C      1  0.3039080000000  0.5843990000000  0.6406220000000 1.0
C      1  0.2954770000000  0.5828530000000  0.3541730000000 1.0
C      1  0.2920360000000  0.3282970000000  0.4983570000000 1.0
C      1  0.3040500000000  0.4158810000000  0.6405450000000 1.0
C      1  0.2935460000000  0.4150860000000  0.3537480000000 1.0
C      1  0.2928970000000  0.6711830000000  0.4978100000000 1.0
C      1  0.7027380000000  0.4536590000000  0.4215720000000 1.0
C      1  0.7040640000000  0.4534850000000  0.5827560000000 1.0
C      1  0.7032000000000  0.5937260000000  0.5022200000000 1.0
C      1  0.7029240000000  0.5468340000000  0.4217490000000 1.0
C      1  0.7041860000000  0.5468960000000  0.5829010000000 1.0
C      1  0.7029960000000  0.4067380000000  0.5020250000000 1.0
END
