TITL C-3036486-2224-89 -0.000166392486519348 3375 -362.59702208131 0 0 60 (Ci) n - 1
REM
REM in /home/bkarasulu/work/CARBON/AIRSS/Generating-Clusters/REBO/Higher-Symm/Only-C60
REM
REM
REM
REM
REM
REM ./C.cell (a2850807a9bf4ad07a5b6933b78d9264)
REM AIRSS Version 0.9.1 bugfix July 2018 build 013d7b7c2542+ Fri, 06 Jul 2018 19:26:36 +0100
REM compiler GCC version 9.2.1 20190827 (Red Hat 9.2.1-1)
REM options -cpp -mtune=generic -march=x86-64 -g -O0 -fpre-include=/usr/include/finclude/math-vector-fortran.h
REM seed -730606686 1378678996 1245662614 -282153058 1218856744 -411785652 1134525479 -1392909479 1357722281 1132849346 523735678 -1031154072 -2097013305 1294619288 95995738 1836518066 1103826148 155447236 -229165441 333556651 -1236296414 1941052224 471043486 1464340704 674574486 615165328 -393377993 1639115371 280616128 15453786 994740446 1884070046 916312439
REM
CELL 1.54180   15.00000   15.00000   15.00000   90.00000   90.00000   90.00000
LATT -1
SFAC C  
C      1  0.4460330000000  0.7200330000000  0.5870990000000 1.0
C      1  0.5533190000000  0.6290910000000  0.7036920000000 1.0
C      1  0.4471570000000  0.4850770000000  0.7415070000000 1.0
C      1  0.5526450000000  0.3469600000000  0.6870400000000 1.0
C      1  0.4462490000000  0.2661850000000  0.5610740000000 1.0
C      1  0.5541430000000  0.2793550000000  0.4129590000000 1.0
C      1  0.4463700000000  0.3715110000000  0.2979270000000 1.0
C      1  0.5527720000000  0.5146850000000  0.2581630000000 1.0
C      1  0.4468610000000  0.6537770000000  0.3121970000000 1.0
C      1  0.5545640000000  0.7318990000000  0.4396850000000 1.0
C      1  0.5289010000000  0.6107870000000  0.2795410000000 1.0
C      1  0.4730400000000  0.7193760000000  0.3861370000000 1.0
C      1  0.5287190000000  0.7404490000000  0.5377080000000 1.0
C      1  0.4703740000000  0.6725330000000  0.6736550000000 1.0
C      1  0.5297600000000  0.5382910000000  0.7421550000000 1.0
C      1  0.4699760000000  0.3896300000000  0.7184750000000 1.0
C      1  0.5278990000000  0.2804960000000  0.6138130000000 1.0
C      1  0.4720050000000  0.2585230000000  0.4629110000000 1.0
C      1  0.5293670000000  0.3276630000000  0.3271290000000 1.0
C      1  0.4699730000000  0.4616370000000  0.2580610000000 1.0
C      1  0.3725820000000  0.6776120000000  0.5340520000000 1.0
C      1  0.6288950000000  0.6277810000000  0.6381930000000 1.0
C      1  0.3709860000000  0.5217940000000  0.6878580000000 1.0
C      1  0.6289780000000  0.4087520000000  0.6647700000000 1.0
C      1  0.3707590000000  0.3291490000000  0.5796160000000 1.0
C      1  0.6278080000000  0.3218140000000  0.4656200000000 1.0
C      1  0.3717400000000  0.3738620000000  0.3643400000000 1.0
C      1  0.6293270000000  0.4778000000000  0.3117430000000 1.0
C      1  0.3704870000000  0.5919430000000  0.3348570000000 1.0
C      1  0.6286310000000  0.6672770000000  0.4217580000000 1.0
C      1  0.3164490000000  0.4184630000000  0.5358180000000 1.0
C      1  0.6837910000000  0.4138850000000  0.4801200000000 1.0
C      1  0.3162610000000  0.4414070000000  0.4334500000000 1.0
C      1  0.6832400000000  0.4918470000000  0.4105460000000 1.0
C      1  0.3163850000000  0.5455690000000  0.4231530000000 1.0
C      1  0.6836450000000  0.5815970000000  0.4642570000000 1.0
C      1  0.3161520000000  0.5863250000000  0.5197230000000 1.0
C      1  0.6836850000000  0.5592110000000  0.5665100000000 1.0
C      1  0.3167010000000  0.5085310000000  0.5892070000000 1.0
C      1  0.6835750000000  0.4548090000000  0.5766510000000 1.0
C      1  0.4067640000000  0.6667300000000  0.4386000000000 1.0
C      1  0.5942050000000  0.6658130000000  0.5502870000000 1.0
C      1  0.4062730000000  0.6036290000000  0.6392380000000 1.0
C      1  0.5940980000000  0.5041170000000  0.6732110000000 1.0
C      1  0.4058730000000  0.4015010000000  0.6423370000000 1.0
C      1  0.5933620000000  0.3338560000000  0.5608380000000 1.0
C      1  0.4059850000000  0.3326320000000  0.4513300000000 1.0
C      1  0.5937880000000  0.3964930000000  0.3609910000000 1.0
C      1  0.4059370000000  0.4968720000000  0.3266890000000 1.0
C      1  0.5936010000000  0.5985990000000  0.3547220000000 1.0
C      1  0.4383240000000  0.4204970000000  0.4825320000000 1.0
C      1  0.5614950000000  0.4456460000000  0.4387160000000 1.0
C      1  0.4383120000000  0.4921720000000  0.4187120000000 1.0
C      1  0.5613740000000  0.5417610000000  0.4293420000000 1.0
C      1  0.4382170000000  0.5757890000000  0.4672480000000 1.0
C      1  0.5616550000000  0.5798850000000  0.5171580000000 1.0
C      1  0.4384900000000  0.5548290000000  0.5611570000000 1.0
C      1  0.5616900000000  0.5082510000000  0.5809540000000 1.0
C      1  0.4386180000000  0.4589310000000  0.5702180000000 1.0
C      1  0.5617330000000  0.4246120000000  0.5325460000000 1.0
END
