TITL C-3036480-97-1179 -0.00916924196345081 3375 -347.997386086034 0 0 60 (Cs) n - 1
REM
REM in /home/bkarasulu/work/CARBON/AIRSS/Generating-Clusters/REBO/Higher-Symm/Only-C60
REM
REM
REM
REM
REM
REM ./C.cell (a2850807a9bf4ad07a5b6933b78d9264)
REM AIRSS Version 0.9.1 bugfix July 2018 build 013d7b7c2542+ Fri, 06 Jul 2018 19:26:36 +0100
REM compiler GCC version 9.2.1 20190827 (Red Hat 9.2.1-1)
REM options -cpp -mtune=generic -march=x86-64 -g -O0 -fpre-include=/usr/include/finclude/math-vector-fortran.h
REM seed 1260456865 877920153 496618046 -485044378 -573886539 1251875089 569284704 656964184 30494704 -1340116567 -776903777 -172616423 134103957 1057664048 1629153748 -2000933787 303944810 971712158 -363936941 -1136166437 931902293 815116570 1400373818 1294338102 -343983409 -2033303981 1494437867 231613384 1843964961 25466371 1036158387 1430376277 -183758181
REM
CELL 1.54180   15.00000   15.00000   15.00000   90.00000   90.00000   90.00000
LATT -1
SFAC C  
C      1  0.5416160000000  0.4775060000000  0.2629400000000 1.0
C      1  0.4583840000000  0.4775060000000  0.2629400000000 1.0
C      1  0.5481050000000  0.6376270000000  0.7012370000000 1.0
C      1  0.4518950000000  0.6376830000000  0.7013280000000 1.0
C      1  0.3535370000000  0.3419810000000  0.3452250000000 1.0
C      1  0.6464620000000  0.3419810000000  0.3452260000000 1.0
C      1  0.5971750000000  0.5545760000000  0.7138560000000 1.0
C      1  0.4028230000000  0.5545810000000  0.7138590000000 1.0
C      1  0.2619740000000  0.6133420000000  0.5906330000000 1.0
C      1  0.7380230000000  0.6133410000000  0.5906320000000 1.0
C      1  0.6040080000000  0.4270870000000  0.6185680000000 1.0
C      1  0.3959920000000  0.4270890000000  0.6185680000000 1.0
C      1  0.4538460000000  0.2937910000000  0.5320290000000 1.0
C      1  0.5461540000000  0.2937910000000  0.5320290000000 1.0
C      1  0.5484540000000  0.6053900000000  0.3228000000000 1.0
C      1  0.4515440000000  0.6053920000000  0.3228000000000 1.0
C      1  0.5567860000000  0.5357340000000  0.4121790000000 1.0
C      1  0.4432180000000  0.5357200000000  0.4121790000000 1.0
C      1  0.6124140000000  0.4467970000000  0.3310430000000 1.0
C      1  0.3875870000000  0.4467970000000  0.3310460000000 1.0
C      1  0.4023050000000  0.6603130000000  0.3885300000000 1.0
C      1  0.5976900000000  0.6603010000000  0.3885320000000 1.0
C      1  0.4170900000000  0.4990560000000  0.5086950000000 1.0
C      1  0.5829120000000  0.4990600000000  0.5087020000000 1.0
C      1  0.5494210000000  0.7146480000000  0.4565810000000 1.0
C      1  0.4505770000000  0.7146500000000  0.4565800000000 1.0
C      1  0.3464680000000  0.5435670000000  0.5773170000000 1.0
C      1  0.6535310000000  0.5435660000000  0.5773210000000 1.0
C      1  0.3267630000000  0.6143740000000  0.4274080000000 1.0
C      1  0.6732370000000  0.6143730000000  0.4274080000000 1.0
C      1  0.4189310000000  0.6767770000000  0.6141680000000 1.0
C      1  0.5810660000000  0.6767820000000  0.6141680000000 1.0
C      1  0.2889880000000  0.4419330000000  0.4677010000000 1.0
C      1  0.7110120000000  0.4419320000000  0.4677020000000 1.0
C      1  0.6036030000000  0.2225270000000  0.5365540000000 1.0
C      1  0.3963960000000  0.2225270000000  0.5365540000000 1.0
C      1  0.6683330000000  0.5088880000000  0.4075380000000 1.0
C      1  0.3316690000000  0.5088880000000  0.4075350000000 1.0
C      1  0.4466200000000  0.4028170000000  0.4172500000000 1.0
C      1  0.5533800000000  0.4028150000000  0.4172510000000 1.0
C      1  0.4503100000000  0.4766470000000  0.6773450000000 1.0
C      1  0.5496930000000  0.4766310000000  0.6773630000000 1.0
C      1  0.4500940000000  0.3045050000000  0.3548270000000 1.0
C      1  0.5499060000000  0.3045060000000  0.3548270000000 1.0
C      1  0.7099950000000  0.3411820000000  0.4148160000000 1.0
C      1  0.2900050000000  0.3411810000000  0.4148160000000 1.0
C      1  0.6949690000000  0.4175050000000  0.5778590000000 1.0
C      1  0.3050310000000  0.4175050000000  0.5778590000000 1.0
C      1  0.4200020000000  0.3884720000000  0.5177470000000 1.0
C      1  0.5799980000000  0.3884750000000  0.5177480000000 1.0
C      1  0.3042240000000  0.6600110000000  0.5098220000000 1.0
C      1  0.6957750000000  0.6600120000000  0.5098220000000 1.0
C      1  0.3855770000000  0.7136830000000  0.5339010000000 1.0
C      1  0.6144230000000  0.7136860000000  0.5338980000000 1.0
C      1  0.4519140000000  0.5728570000000  0.5849080000000 1.0
C      1  0.5480910000000  0.5729120000000  0.5849770000000 1.0
C      1  0.2566630000000  0.3430090000000  0.5168720000000 1.0
C      1  0.7433380000000  0.3430090000000  0.5168720000000 1.0
C      1  0.6940840000000  0.5633490000000  0.6795540000000 1.0
C      1  0.3059170000000  0.5633510000000  0.6795530000000 1.0
END
