TITL C-3036485-3770-974 -0.0424779735407716 3375 -338.059723561311 0 0 60 (C1) n - 1
REM
REM in /home/bkarasulu/work/CARBON/AIRSS/Generating-Clusters/REBO/Higher-Symm/Only-C60
REM
REM
REM
REM
REM
REM ./C.cell (a2850807a9bf4ad07a5b6933b78d9264)
REM AIRSS Version 0.9.1 bugfix July 2018 build 013d7b7c2542+ Fri, 06 Jul 2018 19:26:36 +0100
REM compiler GCC version 9.2.1 20190827 (Red Hat 9.2.1-1)
REM options -cpp -mtune=generic -march=x86-64 -g -O0 -fpre-include=/usr/include/finclude/math-vector-fortran.h
REM seed 1361860965 1842302204 502851955 -641681334 1006610903 1285639538 -650990114 -1519317060 1254823427 1918582685 -1924573056 -2050359753 -1873138585 -600979877 -466655499 -1514555318 -1283762334 769861488 1289008997 1707643699 -194792521 -132070559 1306956351 -448270239 -1804209773 158509238 1671922930 -1309977014 -554276293 -512270320 -919282192 -231483212 2025740857
REM
CELL 1.54180   15.00000   15.00000   15.00000   90.00000   90.00000   90.00000
LATT -1
SFAC C  
C      1  0.6675180000000  0.4736720000000  0.4407240000000 1.0
C      1  0.3293270000000  0.5475590000000  0.4582790000000 1.0
C      1  0.6658590000000  0.5636180000000  0.5076470000000 1.0
C      1  0.3297370000000  0.5127740000000  0.5628100000000 1.0
C      1  0.6644550000000  0.4613580000000  0.5500620000000 1.0
C      1  0.3294130000000  0.4395390000000  0.4804130000000 1.0
C      1  0.4797470000000  0.6577460000000  0.4610340000000 1.0
C      1  0.5188140000000  0.6092010000000  0.6135990000000 1.0
C      1  0.4810000000000  0.4551360000000  0.6553860000000 1.0
C      1  0.5183800000000  0.3469760000000  0.5369820000000 1.0
C      1  0.4793610000000  0.3859690000000  0.3818190000000 1.0
C      1  0.5193110000000  0.5423170000000  0.3500310000000 1.0
C      1  0.6195500000000  0.6074860000000  0.5945950000000 1.0
C      1  0.3801300000000  0.4718310000000  0.6458890000000 1.0
C      1  0.6219910000000  0.3636710000000  0.5383540000000 1.0
C      1  0.3788930000000  0.3878330000000  0.4029920000000 1.0
C      1  0.6236320000000  0.5338460000000  0.3628890000000 1.0
C      1  0.3792310000000  0.6400750000000  0.4514900000000 1.0
C      1  0.7108760000000  0.6681070000000  0.5755890000000 1.0
C      1  0.2866240000000  0.5171560000000  0.6882210000000 1.0
C      1  0.7103950000000  0.3506450000000  0.6063530000000 1.0
C      1  0.2851370000000  0.3292260000000  0.4216040000000 1.0
C      1  0.7129810000000  0.4831350000000  0.3167820000000 1.0
C      1  0.2853800000000  0.6535390000000  0.3917800000000 1.0
C      1  0.4562790000000  0.4759750000000  0.3416330000000 1.0
C      1  0.5409980000000  0.6306340000000  0.3980410000000 1.0
C      1  0.4559330000000  0.6494440000000  0.5590870000000 1.0
C      1  0.5430240000000  0.5235800000000  0.6623670000000 1.0
C      1  0.4565650000000  0.3744210000000  0.5992700000000 1.0
C      1  0.5403350000000  0.3442150000000  0.4364750000000 1.0
C      1  0.2388360000000  0.5070550000000  0.4028490000000 1.0
C      1  0.7620400000000  0.5900430000000  0.4560720000000 1.0
C      1  0.2394470000000  0.5812400000000  0.5555450000000 1.0
C      1  0.7590140000000  0.4932990000000  0.6001800000000 1.0
C      1  0.2391910000000  0.4121070000000  0.5437980000000 1.0
C      1  0.7628090000000  0.4159430000000  0.4442960000000 1.0
C      1  0.6851830000000  0.3888510000000  0.3394710000000 1.0
C      1  0.3199650000000  0.5812000000000  0.3276230000000 1.0
C      1  0.6852180000000  0.6957190000000  0.4823060000000 1.0
C      1  0.3214180000000  0.6090020000000  0.6567830000000 1.0
C      1  0.6786600000000  0.4184130000000  0.6753960000000 1.0
C      1  0.3203390000000  0.3100800000000  0.5164200000000 1.0
C      1  0.3524100000000  0.6503040000000  0.5708010000000 1.0
C      1  0.6473050000000  0.5153320000000  0.6704790000000 1.0
C      1  0.3524200000000  0.3641310000000  0.5952940000000 1.0
C      1  0.6523280000000  0.3417840000000  0.4296650000000 1.0
C      1  0.3515210000000  0.4854910000000  0.3350640000000 1.0
C      1  0.6523850000000  0.6391710000000  0.3984770000000 1.0
C      1  0.7941720000000  0.5037290000000  0.3929360000000 1.0
C      1  0.2060610000000  0.5971170000000  0.4498300000000 1.0
C      1  0.7915110000000  0.5912380000000  0.5585200000000 1.0
C      1  0.2066980000000  0.4959410000000  0.6106810000000 1.0
C      1  0.7932550000000  0.4049170000000  0.5514010000000 1.0
C      1  0.2059310000000  0.4075600000000  0.4424490000000 1.0
C      1  0.2666050000000  0.4094220000000  0.6536670000000 1.0
C      1  0.7396610000000  0.3194130000000  0.4991880000000 1.0
C      1  0.2650630000000  0.4129430000000  0.3454860000000 1.0
C      1  0.7406220000000  0.5915310000000  0.3446320000000 1.0
C      1  0.2662610000000  0.6778270000000  0.5025520000000 1.0
C      1  0.7327960000000  0.5885130000000  0.6559430000000 1.0
END
