TITL C-3036481-494-461 0.0184829020637315 3375 -340.062815147098 0 0 60 (Ci) n - 1
REM
REM in /home/bkarasulu/work/CARBON/AIRSS/Generating-Clusters/REBO/Higher-Symm/Only-C60
REM
REM
REM
REM
REM
REM ./C.cell (a2850807a9bf4ad07a5b6933b78d9264)
REM AIRSS Version 0.9.1 bugfix July 2018 build 013d7b7c2542+ Fri, 06 Jul 2018 19:26:36 +0100
REM compiler GCC version 9.2.1 20190827 (Red Hat 9.2.1-1)
REM options -cpp -mtune=generic -march=x86-64 -g -O0 -fpre-include=/usr/include/finclude/math-vector-fortran.h
REM seed -709667624 454943314 1757336444 -918591702 1670540319 1809814287 833994118 1580644030 34525423 -1395308698 1261153421 1578487837 -963559525 127888462 -1544912073 705775146 -2050165156 -298971472 1719774251 1666681043 796153252 914898716 -803549315 -125371109 1904083769 -781831878 -711479595 109652180 -32138819 893883370 -945512574 -217679976 196770129
REM
CELL 1.54180   15.00000   15.00000   15.00000   90.00000   90.00000   90.00000
LATT -1
SFAC C  
C      1  0.3217820000000  0.3923400000000  0.5947140000000 1.0
C      1  0.6781950000000  0.6076510000000  0.4052850000000 1.0
C      1  0.7407030000000  0.4902690000000  0.5585230000000 1.0
C      1  0.2592960000000  0.5097230000000  0.4414940000000 1.0
C      1  0.3596510000000  0.5551740000000  0.6667580000000 1.0
C      1  0.6403350000000  0.4448340000000  0.3332650000000 1.0
C      1  0.3779920000000  0.6324550000000  0.4296400000000 1.0
C      1  0.6220100000000  0.3675320000000  0.5703240000000 1.0
C      1  0.5279070000000  0.3106290000000  0.3144320000000 1.0
C      1  0.4720720000000  0.6893430000000  0.6855330000000 1.0
C      1  0.6713270000000  0.5113020000000  0.4118480000000 1.0
C      1  0.3286900000000  0.4886920000000  0.5881190000000 1.0
C      1  0.6861110000000  0.4305320000000  0.6073150000000 1.0
C      1  0.3138510000000  0.5694620000000  0.3926810000000 1.0
C      1  0.4796300000000  0.7204520000000  0.5429030000000 1.0
C      1  0.5203930000000  0.2795370000000  0.4571000000000 1.0
C      1  0.5358340000000  0.6234020000000  0.7165690000000 1.0
C      1  0.4641520000000  0.3766140000000  0.2834260000000 1.0
C      1  0.3656090000000  0.3427460000000  0.5093220000000 1.0
C      1  0.6343990000000  0.6572530000000  0.4906760000000 1.0
C      1  0.6247190000000  0.4748190000000  0.6676880000000 1.0
C      1  0.3753080000000  0.5251980000000  0.3323260000000 1.0
C      1  0.3287730000000  0.3496060000000  0.3802160000000 1.0
C      1  0.6712260000000  0.6504250000000  0.6197760000000 1.0
C      1  0.5912670000000  0.7129730000000  0.5687620000000 1.0
C      1  0.4087420000000  0.2870150000000  0.4312650000000 1.0
C      1  0.7264550000000  0.5839970000000  0.5787380000000 1.0
C      1  0.2735480000000  0.4159910000000  0.4212680000000 1.0
C      1  0.5668210000000  0.5871440000000  0.5328020000000 1.0
C      1  0.4331610000000  0.4128660000000  0.4672140000000 1.0
C      1  0.4716870000000  0.6045300000000  0.3820980000000 1.0
C      1  0.5283150000000  0.3954710000000  0.6179080000000 1.0
C      1  0.5295180000000  0.6869700000000  0.3575420000000 1.0
C      1  0.4704870000000  0.3130390000000  0.6424720000000 1.0
C      1  0.5706490000000  0.5633700000000  0.6259620000000 1.0
C      1  0.4293640000000  0.4366390000000  0.3740520000000 1.0
C      1  0.4049710000000  0.4639570000000  0.2467240000000 1.0
C      1  0.5950320000000  0.5360590000000  0.7532940000000 1.0
C      1  0.5825200000000  0.4511350000000  0.4500390000000 1.0
C      1  0.4174780000000  0.5488890000000  0.5499390000000 1.0
C      1  0.4841080000000  0.5299190000000  0.2975000000000 1.0
C      1  0.5159180000000  0.4700860000000  0.7025070000000 1.0
C      1  0.3788100000000  0.6727450000000  0.5229490000000 1.0
C      1  0.6211530000000  0.3272760000000  0.4770220000000 1.0
C      1  0.2524820000000  0.5352350000000  0.5320450000000 1.0
C      1  0.7475010000000  0.4647550000000  0.4679670000000 1.0
C      1  0.5172320000000  0.7617420000000  0.6355170000000 1.0
C      1  0.4827910000000  0.2382470000000  0.3645080000000 1.0
C      1  0.4154310000000  0.6372270000000  0.6247180000000 1.0
C      1  0.5845880000000  0.3627530000000  0.3752480000000 1.0
C      1  0.3856890000000  0.3088180000000  0.6124880000000 1.0
C      1  0.6143160000000  0.6911820000000  0.3875110000000 1.0
C      1  0.6461870000000  0.6295660000000  0.7118360000000 1.0
C      1  0.3538320000000  0.3704380000000  0.2881880000000 1.0
C      1  0.5127930000000  0.4323900000000  0.5135440000000 1.0
C      1  0.4872210000000  0.5676140000000  0.4864590000000 1.0
C      1  0.7017080000000  0.3840030000000  0.4194170000000 1.0
C      1  0.2982430000000  0.6159530000000  0.5805770000000 1.0
C      1  0.5731950000000  0.4978970000000  0.2832500000000 1.0
C      1  0.4268230000000  0.5021230000000  0.7167400000000 1.0
END
