TITL C-3036481-494-1011 -0.0792597978910533 3375 -326.747780922869 0 0 60 (C1) n - 1
REM
REM in /home/bkarasulu/work/CARBON/AIRSS/Generating-Clusters/REBO/Higher-Symm/Only-C60
REM
REM
REM
REM
REM
REM ./C.cell (a2850807a9bf4ad07a5b6933b78d9264)
REM AIRSS Version 0.9.1 bugfix July 2018 build 013d7b7c2542+ Fri, 06 Jul 2018 19:26:36 +0100
REM compiler GCC version 9.2.1 20190827 (Red Hat 9.2.1-1)
REM options -cpp -mtune=generic -march=x86-64 -g -O0 -fpre-include=/usr/include/finclude/math-vector-fortran.h
REM seed -1948599153 1134729173 863851766 -403199113 1144002957 -1129216944 1355157713 -1033080564 886540804 -1962178081 -1627347103 -1208364831 895886189 1203362337 1149156074 1512067659 1825068766 1503524169 1761519853 -198833728 1180636760 392662360 -896783685 -571524178 -908686938 -1406323918 2055445987 -1003856122 -489279262 1764351634 -363967405 1013075410 1146328830
REM
CELL 1.54180   15.00000   15.00000   15.00000   90.00000   90.00000   90.00000
LATT -1
SFAC C  
C      1  0.6737710000000  0.5427520000000  0.3467360000000 1.0
C      1  0.6790650000000  0.3487490000000  0.5394840000000 1.0
C      1  0.6755180000000  0.6103520000000  0.6133290000000 1.0
C      1  0.3211540000000  0.5410940000000  0.3512600000000 1.0
C      1  0.3258740000000  0.3470930000000  0.5391690000000 1.0
C      1  0.3185470000000  0.6136450000000  0.6128380000000 1.0
C      1  0.6795060000000  0.4588500000000  0.3467750000000 1.0
C      1  0.6809120000000  0.6518480000000  0.5403610000000 1.0
C      1  0.6742650000000  0.3905450000000  0.6122660000000 1.0
C      1  0.3252190000000  0.4571710000000  0.3493080000000 1.0
C      1  0.3253040000000  0.6548700000000  0.5397760000000 1.0
C      1  0.3208430000000  0.3891480000000  0.6117860000000 1.0
C      1  0.5511290000000  0.5501700000000  0.4060800000000 1.0
C      1  0.5605550000000  0.3913910000000  0.4958310000000 1.0
C      1  0.5461470000000  0.5546080000000  0.5861550000000 1.0
C      1  0.4396010000000  0.5559450000000  0.4106220000000 1.0
C      1  0.4495940000000  0.3956150000000  0.5042110000000 1.0
C      1  0.4355990000000  0.5520100000000  0.5963490000000 1.0
C      1  0.5612050000000  0.4437150000000  0.4061950000000 1.0
C      1  0.5639160000000  0.6068600000000  0.4948710000000 1.0
C      1  0.5499490000000  0.4449560000000  0.5873630000000 1.0
C      1  0.4501800000000  0.4495660000000  0.4094130000000 1.0
C      1  0.4529470000000  0.6042880000000  0.5050470000000 1.0
C      1  0.4391180000000  0.4485510000000  0.5963020000000 1.0
C      1  0.4027860000000  0.6017570000000  0.3176910000000 1.0
C      1  0.4127780000000  0.2922430000000  0.5093370000000 1.0
C      1  0.4011230000000  0.6104470000000  0.6817730000000 1.0
C      1  0.5869480000000  0.5959760000000  0.3134320000000 1.0
C      1  0.5972930000000  0.2888160000000  0.5041440000000 1.0
C      1  0.5865350000000  0.6097950000000  0.6719220000000 1.0
C      1  0.4120560000000  0.4042270000000  0.3166740000000 1.0
C      1  0.4142180000000  0.7062630000000  0.5102000000000 1.0
C      1  0.4028340000000  0.3900650000000  0.6811450000000 1.0
C      1  0.5969540000000  0.3981270000000  0.3138480000000 1.0
C      1  0.5992000000000  0.7105940000000  0.5036130000000 1.0
C      1  0.5872840000000  0.3892680000000  0.6745230000000 1.0
C      1  0.5469990000000  0.7067820000000  0.6740520000000 1.0
C      1  0.5451800000000  0.5472020000000  0.2313210000000 1.0
C      1  0.5575080000000  0.2380960000000  0.5864710000000 1.0
C      1  0.4435840000000  0.7062880000000  0.6842340000000 1.0
C      1  0.4416620000000  0.5563710000000  0.2311730000000 1.0
C      1  0.4540670000000  0.2444000000000  0.5930350000000 1.0
C      1  0.5466440000000  0.2923870000000  0.6745560000000 1.0
C      1  0.5558810000000  0.4436780000000  0.2290000000000 1.0
C      1  0.5581580000000  0.7615020000000  0.5860360000000 1.0
C      1  0.4432740000000  0.2937750000000  0.6839470000000 1.0
C      1  0.4524720000000  0.4528560000000  0.2331580000000 1.0
C      1  0.4546080000000  0.7553230000000  0.5928980000000 1.0
C      1  0.5024790000000  0.2724770000000  0.4452440000000 1.0
C      1  0.5035320000000  0.7267540000000  0.4457740000000 1.0
C      1  0.4978030000000  0.6612670000000  0.3305370000000 1.0
C      1  0.4969580000000  0.5664470000000  0.7233090000000 1.0
C      1  0.4972550000000  0.4337150000000  0.7244640000000 1.0
C      1  0.5019820000000  0.3390430000000  0.3304840000000 1.0
C      1  0.5919020000000  0.2879210000000  0.3770950000000 1.0
C      1  0.4074120000000  0.5000630000000  0.7446980000000 1.0
C      1  0.5883370000000  0.5003120000000  0.7364400000000 1.0
C      1  0.4102270000000  0.7105420000000  0.3832320000000 1.0
C      1  0.5912180000000  0.7061390000000  0.3767780000000 1.0
C      1  0.4109290000000  0.2952920000000  0.3822350000000 1.0
END
