TITL C-3036479-9801-1044 0.00695416804119589 3375 -340.584953979541 0 0 60 (C1) n - 1
REM
REM in /home/bkarasulu/work/CARBON/AIRSS/Generating-Clusters/REBO/Higher-Symm/Only-C60
REM
REM
REM
REM
REM
REM ./C.cell (a2850807a9bf4ad07a5b6933b78d9264)
REM AIRSS Version 0.9.1 bugfix July 2018 build 013d7b7c2542+ Fri, 06 Jul 2018 19:26:36 +0100
REM compiler GCC version 9.2.1 20190827 (Red Hat 9.2.1-1)
REM options -cpp -mtune=generic -march=x86-64 -g -O0 -fpre-include=/usr/include/finclude/math-vector-fortran.h
REM seed 1655417477 1051426992 537026448 1890087197 -1532829796 799158499 -184567045 533060097 423782290 487650168 2025076066 2135070255 -1612190220 -616617233 486381182 1474481837 2136990362 708059213 1193958351 812890946 2038694718 2007422491 -1056357488 -1391049948 -870375699 1989467171 -163607904 73399967 -1114443208 -1818377737 800104792 421235273 -926164197
REM
CELL 1.54180   15.00000   15.00000   15.00000   90.00000   90.00000   90.00000
LATT -1
SFAC C  
C      1  0.4113310000000  0.5706350000000  0.7642260000000 1.0
C      1  0.5495730000000  0.4639410000000  0.7817640000000 1.0
C      1  0.3993850000000  0.4842860000000  0.7262050000000 1.0
C      1  0.5656210000000  0.5552810000000  0.7836760000000 1.0
C      1  0.4529440000000  0.2863340000000  0.6015690000000 1.0
C      1  0.5635170000000  0.7153290000000  0.5948080000000 1.0
C      1  0.4501470000000  0.7131030000000  0.5932120000000 1.0
C      1  0.5645690000000  0.2949980000000  0.6103900000000 1.0
C      1  0.4405850000000  0.3770320000000  0.3948360000000 1.0
C      1  0.5352250000000  0.6136800000000  0.4057090000000 1.0
C      1  0.4392090000000  0.6162200000000  0.4041730000000 1.0
C      1  0.5374040000000  0.3817740000000  0.3986770000000 1.0
C      1  0.5480800000000  0.8119160000000  0.4982800000000 1.0
C      1  0.4587560000000  0.1737430000000  0.4861420000000 1.0
C      1  0.5512280000000  0.1778300000000  0.4835690000000 1.0
C      1  0.4559050000000  0.8129010000000  0.5053460000000 1.0
C      1  0.5670400000000  0.4093040000000  0.4935460000000 1.0
C      1  0.4022540000000  0.5784520000000  0.4904780000000 1.0
C      1  0.5681250000000  0.5825400000000  0.4988560000000 1.0
C      1  0.4012810000000  0.4092590000000  0.4834480000000 1.0
C      1  0.6988350000000  0.5888290000000  0.5504960000000 1.0
C      1  0.3197760000000  0.3887180000000  0.5868750000000 1.0
C      1  0.6949320000000  0.3972670000000  0.5478040000000 1.0
C      1  0.3233050000000  0.5818640000000  0.5978250000000 1.0
C      1  0.3783700000000  0.3134250000000  0.5379240000000 1.0
C      1  0.6308710000000  0.6659310000000  0.5302820000000 1.0
C      1  0.3679310000000  0.6659810000000  0.5486700000000 1.0
C      1  0.6214080000000  0.3230690000000  0.5301170000000 1.0
C      1  0.6062970000000  0.2514630000000  0.4564360000000 1.0
C      1  0.3919860000000  0.7471540000000  0.4782230000000 1.0
C      1  0.6046940000000  0.7436920000000  0.4625570000000 1.0
C      1  0.3948670000000  0.2411730000000  0.4621360000000 1.0
C      1  0.5736610000000  0.2929940000000  0.3748260000000 1.0
C      1  0.4118790000000  0.7098220000000  0.3902230000000 1.0
C      1  0.5686000000000  0.7037320000000  0.3819630000000 1.0
C      1  0.4162990000000  0.2831750000000  0.3767810000000 1.0
C      1  0.4760150000000  0.4294080000000  0.7319320000000 1.0
C      1  0.4964790000000  0.6096840000000  0.7478000000000 1.0
C      1  0.6846570000000  0.4973420000000  0.4208090000000 1.0
C      1  0.3026150000000  0.4986880000000  0.3849910000000 1.0
C      1  0.4954140000000  0.3701320000000  0.6584240000000 1.0
C      1  0.5065890000000  0.6442930000000  0.6574090000000 1.0
C      1  0.4898070000000  0.7502860000000  0.3451550000000 1.0
C      1  0.4971120000000  0.2463730000000  0.3332890000000 1.0
C      1  0.2803730000000  0.4880300000000  0.5526440000000 1.0
C      1  0.6642200000000  0.4930490000000  0.6012110000000 1.0
C      1  0.3382530000000  0.5015130000000  0.2841180000000 1.0
C      1  0.6677740000000  0.4999540000000  0.3150440000000 1.0
C      1  0.3465900000000  0.4947340000000  0.4728160000000 1.0
C      1  0.6207090000000  0.4953160000000  0.4966100000000 1.0
C      1  0.5946710000000  0.5009960000000  0.2613470000000 1.0
C      1  0.4199680000000  0.5018260000000  0.2447330000000 1.0
C      1  0.7689610000000  0.4997920000000  0.3537490000000 1.0
C      1  0.2317530000000  0.5024510000000  0.3040470000000 1.0
C      1  0.4821460000000  0.4126210000000  0.5531760000000 1.0
C      1  0.4853600000000  0.5784640000000  0.5675860000000 1.0
C      1  0.3382670000000  0.4816270000000  0.6498660000000 1.0
C      1  0.7547550000000  0.4921220000000  0.5312100000000 1.0
C      1  0.4770860000000  0.4927580000000  0.6104560000000 1.0
C      1  0.5088100000000  0.5016070000000  0.2373890000000 1.0
END
