TITL C-3036484-3770-1062 -9.07846733189326e-06 3375 -360.382419319843 0 0 60 (C5) n - 1
REM
REM in /home/bkarasulu/work/CARBON/AIRSS/Generating-Clusters/REBO/Higher-Symm/Only-C60
REM
REM
REM
REM
REM
REM ./C.cell (a2850807a9bf4ad07a5b6933b78d9264)
REM AIRSS Version 0.9.1 bugfix July 2018 build 013d7b7c2542+ Fri, 06 Jul 2018 19:26:36 +0100
REM compiler GCC version 9.2.1 20190827 (Red Hat 9.2.1-1)
REM options -cpp -mtune=generic -march=x86-64 -g -O0 -fpre-include=/usr/include/finclude/math-vector-fortran.h
REM seed 1831793808 -1012211712 -1672485584 -845423115 2006730517 -1064950852 -1328480690 -175526190 272448742 -1420723981 -1586899445 805702281 1133059138 -1783876389 1619255658 1049448141 766088331 772833202 -845796939 -1971698317 -744644737 499228823 -1321140374 -416448791 1448216782 1120746326 182924947 1441551463 -389270208 -600760659 2079549227 672939733 -1039817573
REM
CELL 1.54180   15.00000   15.00000   15.00000   90.00000   90.00000   90.00000
LATT -1
SFAC C  
C      1  0.6155100000000  0.6746510000000  0.3454120000000 1.0
C      1  0.3886710000000  0.6746510000000  0.3423740000000 1.0
C      1  0.3156850000000  0.6746490000000  0.5571720000000 1.0
C      1  0.4974160000000  0.6746480000000  0.6929620000000 1.0
C      1  0.6827180000000  0.6746490000000  0.5620870000000 1.0
C      1  0.3153490000000  0.4302370000000  0.3359220000000 1.0
C      1  0.2868930000000  0.4302340000000  0.6249100000000 1.0
C      1  0.5529430000000  0.4302330000000  0.7412760000000 1.0
C      1  0.7458280000000  0.4302350000000  0.5242060000000 1.0
C      1  0.5989870000000  0.4302380000000  0.2736830000000 1.0
C      1  0.3531720000000  0.5499220000000  0.5309120000000 1.0
C      1  0.4840270000000  0.5499210000000  0.6491940000000 1.0
C      1  0.6369560000000  0.5499210000000  0.5612960000000 1.0
C      1  0.6006170000000  0.5499230000000  0.3886890000000 1.0
C      1  0.4252290000000  0.5499230000000  0.3699110000000 1.0
C      1  0.4561600000000  0.6437920000000  0.4261250000000 1.0
C      1  0.4161920000000  0.6437920000000  0.5188660000000 1.0
C      1  0.4920430000000  0.6437910000000  0.5855370000000 1.0
C      1  0.5788900000000  0.6437910000000  0.5340000000000 1.0
C      1  0.5567130000000  0.6437920000000  0.4354780000000 1.0
C      1  0.5994750000000  0.5252270000000  0.2842690000000 1.0
C      1  0.3255670000000  0.5252260000000  0.3387290000000 1.0
C      1  0.2927190000000  0.5252240000000  0.6160610000000 1.0
C      1  0.5463270000000  0.5252230000000  0.7330010000000 1.0
C      1  0.7359120000000  0.5252250000000  0.5279420000000 1.0
C      1  0.6400550000000  0.3960510000000  0.7038470000000 1.0
C      1  0.7371500000000  0.3960540000000  0.4297920000000 1.0
C      1  0.5065120000000  0.3960550000000  0.2527610000000 1.0
C      1  0.2668750000000  0.3960540000000  0.4174050000000 1.0
C      1  0.3494090000000  0.3960510000000  0.6961910000000 1.0
C      1  0.6955010000000  0.3888100000000  0.6196080000000 1.0
C      1  0.6741680000000  0.3888120000000  0.3510280000000 1.0
C      1  0.4121410000000  0.3888120000000  0.2883210000000 1.0
C      1  0.2715320000000  0.3888100000000  0.5181460000000 1.0
C      1  0.4466590000000  0.3888090000000  0.7228920000000 1.0
C      1  0.6444900000000  0.6232150000000  0.6478020000000 1.0
C      1  0.6852160000000  0.6232170000000  0.4082560000000 1.0
C      1  0.4699800000000  0.6232180000000  0.2954990000000 1.0
C      1  0.2962300000000  0.6232170000000  0.4653570000000 1.0
C      1  0.4040830000000  0.6232150000000  0.6830920000000 1.0
C      1  0.3202530000000  0.6193310000000  0.6396680000000 1.0
C      1  0.5772870000000  0.6193300000000  0.7141100000000 1.0
C      1  0.7275130000000  0.6193330000000  0.4926610000000 1.0
C      1  0.5633240000000  0.6193340000000  0.2813550000000 1.0
C      1  0.3116240000000  0.6193330000000  0.3722110000000 1.0
C      1  0.4919570000000  0.4693920000000  0.5862590000000 1.0
C      1  0.5795520000000  0.4693920000000  0.5343050000000 1.0
C      1  0.5572090000000  0.4693930000000  0.4349420000000 1.0
C      1  0.4558050000000  0.4693930000000  0.4254870000000 1.0
C      1  0.4154770000000  0.4693930000000  0.5190060000000 1.0
C      1  0.6263170000000  0.3790400000000  0.5494090000000 1.0
C      1  0.5860260000000  0.3790420000000  0.3951330000000 1.0
C      1  0.4268500000000  0.3790420000000  0.3857780000000 1.0
C      1  0.3687650000000  0.3790400000000  0.5342730000000 1.0
C      1  0.4920420000000  0.3790400000000  0.6354020000000 1.0
C      1  0.4958960000000  0.3003300000000  0.5824220000000 1.0
C      1  0.5771220000000  0.3003300000000  0.5293720000000 1.0
C      1  0.5517680000000  0.3003310000000  0.4357280000000 1.0
C      1  0.4548730000000  0.3003310000000  0.4309030000000 1.0
C      1  0.4203420000000  0.3003300000000  0.5215660000000 1.0
END
