TITL C-3036485-3770-333 -9.02438671402887e-07 3375 -345.263118058046 0 0 60 (C1) n - 1
REM
REM in /home/bkarasulu/work/CARBON/AIRSS/Generating-Clusters/REBO/Higher-Symm/Only-C60
REM
REM
REM
REM
REM
REM ./C.cell (a2850807a9bf4ad07a5b6933b78d9264)
REM AIRSS Version 0.9.1 bugfix July 2018 build 013d7b7c2542+ Fri, 06 Jul 2018 19:26:36 +0100
REM compiler GCC version 9.2.1 20190827 (Red Hat 9.2.1-1)
REM options -cpp -mtune=generic -march=x86-64 -g -O0 -fpre-include=/usr/include/finclude/math-vector-fortran.h
REM seed -782701742 855634366 1365523524 -1136165701 1906551009 590272273 575334885 422055140 -1373293775 1369886729 -128167730 87965406 -1609509152 213597554 685602720 -2437808 -1071165080 1709536394 826705257 1986608352 1978261054 744608404 554486457 1638414620 -1013119225 60118053 -657607465 -1894229463 1988951121 305025219 -2004904708 -872543295 1146501088
REM
CELL 1.54180   15.00000   15.00000   15.00000   90.00000   90.00000   90.00000
LATT -1
SFAC C  
C      1  0.5766190000000  0.3952450000000  0.3086810000000 1.0
C      1  0.5776000000000  0.6055130000000  0.3048050000000 1.0
C      1  0.4314730000000  0.6411370000000  0.4511420000000 1.0
C      1  0.4304630000000  0.3601170000000  0.4506890000000 1.0
C      1  0.3219300000000  0.4039270000000  0.5646340000000 1.0
C      1  0.3234880000000  0.5944750000000  0.5654850000000 1.0
C      1  0.6706550000000  0.3016370000000  0.4546530000000 1.0
C      1  0.6708400000000  0.7007520000000  0.4461550000000 1.0
C      1  0.4079210000000  0.4048470000000  0.7037980000000 1.0
C      1  0.4139080000000  0.5894730000000  0.7009120000000 1.0
C      1  0.6618170000000  0.4503180000000  0.3278620000000 1.0
C      1  0.6628780000000  0.5470870000000  0.3254020000000 1.0
C      1  0.6743360000000  0.5603280000000  0.6586240000000 1.0
C      1  0.6635290000000  0.4542410000000  0.6611600000000 1.0
C      1  0.4177310000000  0.1897690000000  0.6182280000000 1.0
C      1  0.4220280000000  0.8069940000000  0.6227240000000 1.0
C      1  0.5198290000000  0.3195710000000  0.6034610000000 1.0
C      1  0.5230120000000  0.6770090000000  0.6014640000000 1.0
C      1  0.3290010000000  0.4522870000000  0.3519070000000 1.0
C      1  0.3293160000000  0.5491090000000  0.3523760000000 1.0
C      1  0.4449300000000  0.4607230000000  0.4761080000000 1.0
C      1  0.4466290000000  0.5404710000000  0.4761520000000 1.0
C      1  0.5383240000000  0.5330610000000  0.5945610000000 1.0
C      1  0.5385180000000  0.4505870000000  0.5982680000000 1.0
C      1  0.5974170000000  0.4534830000000  0.4788490000000 1.0
C      1  0.5991550000000  0.5499290000000  0.4773410000000 1.0
C      1  0.2652880000000  0.5849190000000  0.4143930000000 1.0
C      1  0.2645240000000  0.4162520000000  0.4133500000000 1.0
C      1  0.5471750000000  0.6999290000000  0.3542960000000 1.0
C      1  0.5500470000000  0.3026750000000  0.3580170000000 1.0
C      1  0.4917570000000  0.5477360000000  0.3146130000000 1.0
C      1  0.4920640000000  0.4528680000000  0.3151450000000 1.0
C      1  0.7286850000000  0.5523470000000  0.5077200000000 1.0
C      1  0.7263260000000  0.4525510000000  0.5116210000000 1.0
C      1  0.4378760000000  0.2726060000000  0.5830300000000 1.0
C      1  0.4407510000000  0.7249090000000  0.5851410000000 1.0
C      1  0.5169790000000  0.6903570000000  0.4448130000000 1.0
C      1  0.5169420000000  0.3127930000000  0.4463270000000 1.0
C      1  0.3532600000000  0.5466800000000  0.6415380000000 1.0
C      1  0.3514740000000  0.4499850000000  0.6418830000000 1.0
C      1  0.2685040000000  0.4517050000000  0.5025590000000 1.0
C      1  0.2691060000000  0.5482780000000  0.5031100000000 1.0
C      1  0.5111030000000  0.6035690000000  0.6727070000000 1.0
C      1  0.5064130000000  0.3870850000000  0.6821070000000 1.0
C      1  0.5896180000000  0.5493360000000  0.7163560000000 1.0
C      1  0.5817430000000  0.4456820000000  0.7241330000000 1.0
C      1  0.3061870000000  0.7409290000000  0.4921400000000 1.0
C      1  0.3049820000000  0.2595050000000  0.4875740000000 1.0
C      1  0.6503130000000  0.3144930000000  0.3621920000000 1.0
C      1  0.6481710000000  0.6846160000000  0.3552550000000 1.0
C      1  0.5926200000000  0.3477710000000  0.5243470000000 1.0
C      1  0.5957340000000  0.6564090000000  0.5201610000000 1.0
C      1  0.6750170000000  0.4062280000000  0.5805460000000 1.0
C      1  0.6824510000000  0.6042310000000  0.5757440000000 1.0
C      1  0.6868950000000  0.5727050000000  0.4154930000000 1.0
C      1  0.6859180000000  0.4284820000000  0.4191340000000 1.0
C      1  0.3698050000000  0.6791820000000  0.5245910000000 1.0
C      1  0.3684470000000  0.3201630000000  0.5223800000000 1.0
C      1  0.4155230000000  0.5890980000000  0.3561920000000 1.0
C      1  0.4149550000000  0.4118340000000  0.3559520000000 1.0
END
