TITL C-3036486-2224-922 4.73312616742959e-07 3375 -360.003561418487 0 0 60 (C1) n - 1
REM
REM in /home/bkarasulu/work/CARBON/AIRSS/Generating-Clusters/REBO/Higher-Symm/Only-C60
REM
REM
REM
REM
REM
REM ./C.cell (a2850807a9bf4ad07a5b6933b78d9264)
REM AIRSS Version 0.9.1 bugfix July 2018 build 013d7b7c2542+ Fri, 06 Jul 2018 19:26:36 +0100
REM compiler GCC version 9.2.1 20190827 (Red Hat 9.2.1-1)
REM options -cpp -mtune=generic -march=x86-64 -g -O0 -fpre-include=/usr/include/finclude/math-vector-fortran.h
REM seed 287344227 -1551511970 -1305999567 -1252989522 -1360168322 603709344 -2019901938 -2037861407 371039334 -1038192293 1392944174 -537266309 1994355593 -1736493352 541523453 -1188953623 -1058182243 1455080797 -492645400 -1013285721 952642912 -1226356665 826024736 783767435 1850584114 1069084577 -1277921710 -2078135318 -1874496971 1075648633 -938041202 1548863687 1548690622
REM
CELL 1.54180   15.00000   15.00000   15.00000   90.00000   90.00000   90.00000
LATT -1
SFAC C  
C      1  0.5870700000000  0.3375470000000  0.6235990000000 1.0
C      1  0.5900010000000  0.6449560000000  0.6167760000000 1.0
C      1  0.3094070000000  0.4025810000000  0.4842000000000 1.0
C      1  0.2942540000000  0.5971400000000  0.4712170000000 1.0
C      1  0.3292860000000  0.4376950000000  0.6535860000000 1.0
C      1  0.3360420000000  0.5437610000000  0.6415720000000 1.0
C      1  0.2847200000000  0.4510000000000  0.5616680000000 1.0
C      1  0.2813510000000  0.5533740000000  0.5518720000000 1.0
C      1  0.4111690000000  0.5944990000000  0.6728650000000 1.0
C      1  0.3990550000000  0.3891670000000  0.6944660000000 1.0
C      1  0.3199780000000  0.4466710000000  0.4022660000000 1.0
C      1  0.2942440000000  0.5432660000000  0.3846010000000 1.0
C      1  0.3875580000000  0.4062980000000  0.3527820000000 1.0
C      1  0.3724190000000  0.5916180000000  0.3369630000000 1.0
C      1  0.5499540000000  0.4316860000000  0.5822550000000 1.0
C      1  0.5557550000000  0.5432110000000  0.6031350000000 1.0
C      1  0.6470730000000  0.3849710000000  0.4561300000000 1.0
C      1  0.6348810000000  0.5975810000000  0.4651100000000 1.0
C      1  0.6831610000000  0.5521450000000  0.6407230000000 1.0
C      1  0.6611860000000  0.4437060000000  0.6547010000000 1.0
C      1  0.4015440000000  0.7069900000000  0.5481900000000 1.0
C      1  0.4096160000000  0.2833850000000  0.5668270000000 1.0
C      1  0.4356700000000  0.6785010000000  0.6321020000000 1.0
C      1  0.4338450000000  0.3075390000000  0.6555400000000 1.0
C      1  0.6938190000000  0.3472210000000  0.6034280000000 1.0
C      1  0.6914930000000  0.6476040000000  0.5799040000000 1.0
C      1  0.6673700000000  0.5662300000000  0.3397040000000 1.0
C      1  0.6764760000000  0.4668540000000  0.3556970000000 1.0
C      1  0.4268130000000  0.5441140000000  0.2748470000000 1.0
C      1  0.4347020000000  0.4498060000000  0.2830690000000 1.0
C      1  0.4794030000000  0.5468830000000  0.7208290000000 1.0
C      1  0.4633630000000  0.4452030000000  0.7353920000000 1.0
C      1  0.7310120000000  0.5608740000000  0.4313000000000 1.0
C      1  0.7337160000000  0.4500120000000  0.4523470000000 1.0
C      1  0.3510680000000  0.6690290000000  0.4684270000000 1.0
C      1  0.3673150000000  0.3292860000000  0.4880110000000 1.0
C      1  0.5772800000000  0.5325600000000  0.4998340000000 1.0
C      1  0.5713880000000  0.4363510000000  0.4775300000000 1.0
C      1  0.4663050000000  0.7326680000000  0.4719220000000 1.0
C      1  0.4832770000000  0.2668750000000  0.4955530000000 1.0
C      1  0.5267790000000  0.7021670000000  0.6459600000000 1.0
C      1  0.5264530000000  0.2908920000000  0.6716900000000 1.0
C      1  0.4241220000000  0.6799840000000  0.3821290000000 1.0
C      1  0.4454850000000  0.3241640000000  0.4053200000000 1.0
C      1  0.5096070000000  0.6777980000000  0.3203660000000 1.0
C      1  0.5323370000000  0.3347800000000  0.3466960000000 1.0
C      1  0.6106220000000  0.4091530000000  0.3277220000000 1.0
C      1  0.5975330000000  0.6133220000000  0.3060720000000 1.0
C      1  0.5750020000000  0.2540850000000  0.5105270000000 1.0
C      1  0.5575990000000  0.7436850000000  0.4846330000000 1.0
C      1  0.5050300000000  0.5952190000000  0.2531320000000 1.0
C      1  0.5195680000000  0.4075500000000  0.2695750000000 1.0
C      1  0.5605400000000  0.4456920000000  0.6948940000000 1.0
C      1  0.5929830000000  0.5520400000000  0.7102110000000 1.0
C      1  0.7366420000000  0.5545570000000  0.5396990000000 1.0
C      1  0.7317230000000  0.4470700000000  0.5656350000000 1.0
C      1  0.6525310000000  0.3077020000000  0.5116750000000 1.0
C      1  0.6317540000000  0.6912450000000  0.4990670000000 1.0
C      1  0.1331900000000  0.5571850000000  0.2906560000000 1.0
C      1  0.2064630000000  0.5508520000000  0.3334000000000 1.0
END
