TITL C-3036481-494-1079 -7.13343311203522e-05 3375 -343.093431248771 0 0 60 (Cs) n - 1
REM
REM in /home/bkarasulu/work/CARBON/AIRSS/Generating-Clusters/REBO/Higher-Symm/Only-C60
REM
REM
REM
REM
REM
REM ./C.cell (a2850807a9bf4ad07a5b6933b78d9264)
REM AIRSS Version 0.9.1 bugfix July 2018 build 013d7b7c2542+ Fri, 06 Jul 2018 19:26:36 +0100
REM compiler GCC version 9.2.1 20190827 (Red Hat 9.2.1-1)
REM options -cpp -mtune=generic -march=x86-64 -g -O0 -fpre-include=/usr/include/finclude/math-vector-fortran.h
REM seed -1632650253 1550434019 419696650 -713803312 -1746199650 -1428111724 -1584996216 -1977768704 842652262 183867245 -332682709 -945521790 1676491138 1652258097 -178666848 769027802 -1709471428 -1368052878 1386088544 795101582 680077219 514412662 -1914937929 1696477635 74128644 530116251 -1770372764 121230179 889373809 1165053473 -1022630435 271803248 -264873335
REM
CELL 1.54180   15.00000   15.00000   15.00000   90.00000   90.00000   90.00000
LATT -1
SFAC C  
C      1  0.3595400000000  0.5271970000000  0.3576230000000 1.0
C      1  0.3595610000000  0.5275550000000  0.6427430000000 1.0
C      1  0.5837830000000  0.2995460000000  0.4138130000000 1.0
C      1  0.5837100000000  0.2995740000000  0.5862280000000 1.0
C      1  0.4392040000000  0.6791100000000  0.3556600000000 1.0
C      1  0.4393590000000  0.6792950000000  0.6445770000000 1.0
C      1  0.5367670000000  0.5097510000000  0.4166590000000 1.0
C      1  0.5367890000000  0.5097120000000  0.5836420000000 1.0
C      1  0.6674170000000  0.4317130000000  0.3608710000000 1.0
C      1  0.6673680000000  0.4317130000000  0.6392970000000 1.0
C      1  0.4475830000000  0.4977970000000  0.7017390000000 1.0
C      1  0.4475450000000  0.4975260000000  0.2984720000000 1.0
C      1  0.5236210000000  0.7323820000000  0.4095340000000 1.0
C      1  0.5237790000000  0.7324860000000  0.5906280000000 1.0
C      1  0.6223030000000  0.6755220000000  0.5921510000000 1.0
C      1  0.6221680000000  0.6754680000000  0.4080110000000 1.0
C      1  0.3187830000000  0.4562990000000  0.5880180000000 1.0
C      1  0.3187960000000  0.4559670000000  0.4124910000000 1.0
C      1  0.3763190000000  0.6176860000000  0.5902360000000 1.0
C      1  0.3762390000000  0.6174140000000  0.4100090000000 1.0
C      1  0.4286140000000  0.3954600000000  0.3449900000000 1.0
C      1  0.4283950000000  0.3956320000000  0.6555510000000 1.0
C      1  0.4893120000000  0.2478500000000  0.5949820000000 1.0
C      1  0.4895270000000  0.2476940000000  0.4049980000000 1.0
C      1  0.4075810000000  0.3131860000000  0.3971230000000 1.0
C      1  0.4074690000000  0.3135910000000  0.6023890000000 1.0
C      1  0.4299170000000  0.6076980000000  0.2785750000000 1.0
C      1  0.4300830000000  0.6079720000000  0.7217460000000 1.0
C      1  0.4800760000000  0.4401450000000  0.5860850000000 1.0
C      1  0.4800040000000  0.4402470000000  0.4143210000000 1.0
C      1  0.6469390000000  0.5213180000000  0.6577200000000 1.0
C      1  0.6468560000000  0.5212830000000  0.3424730000000 1.0
C      1  0.6655360000000  0.3523920000000  0.4135810000000 1.0
C      1  0.6654790000000  0.3523890000000  0.5865770000000 1.0
C      1  0.6886440000000  0.5984930000000  0.6256990000000 1.0
C      1  0.6885320000000  0.5984810000000  0.3744520000000 1.0
C      1  0.5465430000000  0.5497790000000  0.3188990000000 1.0
C      1  0.5466470000000  0.5499140000000  0.6813160000000 1.0
C      1  0.5442600000000  0.6506690000000  0.6688590000000 1.0
C      1  0.5441030000000  0.6505510000000  0.3313210000000 1.0
C      1  0.3583480000000  0.3110380000000  0.4997310000000 1.0
C      1  0.4412580000000  0.2362060000000  0.4999320000000 1.0
C      1  0.5404850000000  0.3242720000000  0.4999930000000 1.0
C      1  0.3175530000000  0.6538120000000  0.5000920000000 1.0
C      1  0.5617450000000  0.5435180000000  0.5001470000000 1.0
C      1  0.1924280000000  0.5430100000000  0.5001660000000 1.0
C      1  0.4734980000000  0.6425480000000  0.5001970000000 1.0
C      1  0.2219870000000  0.6209010000000  0.5001400000000 1.0
C      1  0.4086910000000  0.5564960000000  0.5001940000000 1.0
C      1  0.4935810000000  0.7736790000000  0.5000930000000 1.0
C      1  0.3798680000000  0.4569060000000  0.5002520000000 1.0
C      1  0.4057210000000  0.7171370000000  0.5000900000000 1.0
C      1  0.8917760000000  0.3944860000000  0.5001420000000 1.0
C      1  0.9769770000000  0.4137750000000  0.5001580000000 1.0
C      1  0.8051790000000  0.3749690000000  0.5001240000000 1.0
C      1  0.4692850000000  0.3899560000000  0.5001920000000 1.0
C      1  0.2470340000000  0.4574150000000  0.5002620000000 1.0
C      1  0.2650230000000  0.3504600000000  0.4994860000000 1.0
C      1  0.5803930000000  0.6470660000000  0.5001220000000 1.0
C      1  0.7140390000000  0.3547170000000  0.5000950000000 1.0
END
