TITL C-3036486-2224-5 0.00894606202893119 3375 -336.746716009838 0 0 60 (C1) n - 1
REM
REM in /home/bkarasulu/work/CARBON/AIRSS/Generating-Clusters/REBO/Higher-Symm/Only-C60
REM
REM
REM
REM
REM
REM ./C.cell (a2850807a9bf4ad07a5b6933b78d9264)
REM AIRSS Version 0.9.1 bugfix July 2018 build 013d7b7c2542+ Fri, 06 Jul 2018 19:26:36 +0100
REM compiler GCC version 9.2.1 20190827 (Red Hat 9.2.1-1)
REM options -cpp -mtune=generic -march=x86-64 -g -O0 -fpre-include=/usr/include/finclude/math-vector-fortran.h
REM seed 1562067418 983450310 -109969673 1868037657 2010154910 1346824 -1431422601 -265644843 -908994643 -909392290 1277590401 -476480651 472233962 -548506299 566068353 218883483 -949106723 -1784360099 2100400 -621427668 1075196002 -2018480781 -1431427824 -1450530180 1039482457 -2001524256 1508884701 1327909750 -1200447857 1365662992 -555457959 150791415 -2073841510
REM
CELL 1.54180   15.00000   15.00000   15.00000   90.00000   90.00000   90.00000
LATT -1
SFAC C  
C      1  0.5081070000000  0.3108330000000  0.5131460000000 1.0
C      1  0.5083190000000  0.6050980000000  0.6650430000000 1.0
C      1  0.5180230000000  0.5947420000000  0.3260530000000 1.0
C      1  0.5881410000000  0.5410440000000  0.6817040000000 1.0
C      1  0.6004520000000  0.6566360000000  0.3471660000000 1.0
C      1  0.5883340000000  0.3103410000000  0.4506370000000 1.0
C      1  0.6699210000000  0.6047350000000  0.4509700000000 1.0
C      1  0.6671290000000  0.4232840000000  0.4357110000000 1.0
C      1  0.6736300000000  0.4839320000000  0.5968600000000 1.0
C      1  0.2926550000000  0.6217440000000  0.4180040000000 1.0
C      1  0.2900560000000  0.3645840000000  0.4366820000000 1.0
C      1  0.2883870000000  0.5083370000000  0.6526740000000 1.0
C      1  0.4552340000000  0.6973100000000  0.4187140000000 1.0
C      1  0.4532940000000  0.3378590000000  0.3688420000000 1.0
C      1  0.4469110000000  0.4585920000000  0.7162280000000 1.0
C      1  0.4602730000000  0.5587640000000  0.3964250000000 1.0
C      1  0.4549240000000  0.3901960000000  0.5060030000000 1.0
C      1  0.4926160000000  0.5267910000000  0.5900680000000 1.0
C      1  0.3439890000000  0.3615440000000  0.3451430000000 1.0
C      1  0.3337370000000  0.4345150000000  0.7175420000000 1.0
C      1  0.3488400000000  0.7016160000000  0.4599390000000 1.0
C      1  0.4209910000000  0.6975810000000  0.6269280000000 1.0
C      1  0.4351630000000  0.5097750000000  0.2659830000000 1.0
C      1  0.4270870000000  0.2855720000000  0.6158960000000 1.0
C      1  0.3842680000000  0.6454580000000  0.6916560000000 1.0
C      1  0.3916120000000  0.5897490000000  0.2768720000000 1.0
C      1  0.3864550000000  0.2621150000000  0.5364650000000 1.0
C      1  0.5591480000000  0.3692350000000  0.3706910000000 1.0
C      1  0.5500140000000  0.4512370000000  0.6888560000000 1.0
C      1  0.5593140000000  0.6913200000000  0.4358810000000 1.0
C      1  0.2862240000000  0.4372000000000  0.4930800000000 1.0
C      1  0.2860980000000  0.5200800000000  0.5614690000000 1.0
C      1  0.2878150000000  0.5373840000000  0.4541830000000 1.0
C      1  0.7067460000000  0.4965100000000  0.3826610000000 1.0
C      1  0.7084200000000  0.4004110000000  0.5635790000000 1.0
C      1  0.6982190000000  0.6024300000000  0.5409980000000 1.0
C      1  0.5766810000000  0.4382150000000  0.4814710000000 1.0
C      1  0.5857140000000  0.4887780000000  0.5596660000000 1.0
C      1  0.5846240000000  0.5606840000000  0.4364340000000 1.0
C      1  0.4300590000000  0.6729280000000  0.5266070000000 1.0
C      1  0.4183440000000  0.4402660000000  0.3332640000000 1.0
C      1  0.3991700000000  0.3715460000000  0.6603330000000 1.0
C      1  0.5253900000000  0.6930610000000  0.6172270000000 1.0
C      1  0.5352880000000  0.5184080000000  0.2565440000000 1.0
C      1  0.5271100000000  0.2867410000000  0.6099390000000 1.0
C      1  0.4919610000000  0.5852860000000  0.4983580000000 1.0
C      1  0.4754060000000  0.4537710000000  0.4299990000000 1.0
C      1  0.4362230000000  0.4387800000000  0.5855730000000 1.0
C      1  0.5806500000000  0.6793780000000  0.5307680000000 1.0
C      1  0.5789440000000  0.4799110000000  0.3540260000000 1.0
C      1  0.5775160000000  0.3714340000000  0.6415710000000 1.0
C      1  0.3762700000000  0.6512470000000  0.3508180000000 1.0
C      1  0.3784880000000  0.2991660000000  0.4457840000000 1.0
C      1  0.3772010000000  0.5487370000000  0.7057630000000 1.0
C      1  0.6513140000000  0.5635820000000  0.3230660000000 1.0
C      1  0.6338200000000  0.3374420000000  0.5483200000000 1.0
C      1  0.6284560000000  0.6093390000000  0.6090260000000 1.0
C      1  0.7196210000000  0.5275650000000  0.6612460000000 1.0
C      1  0.7251490000000  0.6486500000000  0.3933970000000 1.0
C      1  0.7160570000000  0.3465300000000  0.4420450000000 1.0
END
