TITL C-3036483-1610-595 0.0515048009821127 3375 -336.6051126508 0 0 60 (C1) n - 1
REM
REM in /home/bkarasulu/work/CARBON/AIRSS/Generating-Clusters/REBO/Higher-Symm/Only-C60
REM
REM
REM
REM
REM
REM ./C.cell (a2850807a9bf4ad07a5b6933b78d9264)
REM AIRSS Version 0.9.1 bugfix July 2018 build 013d7b7c2542+ Fri, 06 Jul 2018 19:26:36 +0100
REM compiler GCC version 9.2.1 20190827 (Red Hat 9.2.1-1)
REM options -cpp -mtune=generic -march=x86-64 -g -O0 -fpre-include=/usr/include/finclude/math-vector-fortran.h
REM seed -1374869922 1338512972 -1085338136 911410741 -2133095763 -1543427765 1823926970 2095719474 833000695 715540919 321242484 1689310823 -749515461 1799209770 -1469058932 -23441969 -1211461639 184554240 656887481 -364955772 -1084474191 238430903 986638020 1910993254 1856564204 -590386211 -1912699646 106207049 1153693132 -930802440 -1780432904 -1689945020 -1178657499
REM
CELL 1.54180   15.00000   15.00000   15.00000   90.00000   90.00000   90.00000
LATT -1
SFAC C  
C      1  0.3735830000000  0.6468130000000  0.5523250000000 1.0
C      1  0.6263570000000  0.6460110000000  0.4421360000000 1.0
C      1  0.3833840000000  0.6573080000000  0.4490770000000 1.0
C      1  0.6165190000000  0.6579080000000  0.5453220000000 1.0
C      1  0.4208970000000  0.6158210000000  0.2848660000000 1.0
C      1  0.5793170000000  0.6178140000000  0.7098170000000 1.0
C      1  0.4710430000000  0.6044430000000  0.6909440000000 1.0
C      1  0.5292060000000  0.6024960000000  0.3040790000000 1.0
C      1  0.4513440000000  0.4927700000000  0.6835510000000 1.0
C      1  0.5486970000000  0.4908100000000  0.3120280000000 1.0
C      1  0.4369730000000  0.5065340000000  0.3056050000000 1.0
C      1  0.5630690000000  0.5083360000000  0.6900110000000 1.0
C      1  0.3972180000000  0.2612960000000  0.4461260000000 1.0
C      1  0.6030440000000  0.2621460000000  0.5506890000000 1.0
C      1  0.3960530000000  0.2582700000000  0.5295820000000 1.0
C      1  0.6029990000000  0.2572820000000  0.4672670000000 1.0
C      1  0.6170410000000  0.4941730000000  0.5490650000000 1.0
C      1  0.3823010000000  0.4931440000000  0.4458990000000 1.0
C      1  0.6126470000000  0.4862060000000  0.4487230000000 1.0
C      1  0.3878740000000  0.4874040000000  0.5463780000000 1.0
C      1  0.3248140000000  0.4127160000000  0.4052660000000 1.0
C      1  0.6752480000000  0.4153400000000  0.5908520000000 1.0
C      1  0.3258250000000  0.4093030000000  0.5842850000000 1.0
C      1  0.6739350000000  0.4063800000000  0.4121570000000 1.0
C      1  0.4097890000000  0.7540540000000  0.5361470000000 1.0
C      1  0.5903170000000  0.7537450000000  0.4572420000000 1.0
C      1  0.4069040000000  0.7675940000000  0.4343890000000 1.0
C      1  0.5931070000000  0.7683480000000  0.5587890000000 1.0
C      1  0.1623760000000  0.4753900000000  0.4606570000000 1.0
C      1  0.8396600000000  0.4807070000000  0.5676950000000 1.0
C      1  0.1615840000000  0.4788940000000  0.5650350000000 1.0
C      1  0.8370300000000  0.4741410000000  0.4634680000000 1.0
C      1  0.8780000000000  0.5259590000000  0.4025260000000 1.0
C      1  0.1261630000000  0.5276480000000  0.6301970000000 1.0
C      1  0.8758430000000  0.5313180000000  0.6310010000000 1.0
C      1  0.1205960000000  0.5289240000000  0.4017760000000 1.0
C      1  0.5516080000000  0.6924880000000  0.6320500000000 1.0
C      1  0.4484280000000  0.6908980000000  0.3621400000000 1.0
C      1  0.5539960000000  0.6893770000000  0.3710550000000 1.0
C      1  0.4458780000000  0.6903580000000  0.6230230000000 1.0
C      1  0.5602760000000  0.3819760000000  0.3006940000000 1.0
C      1  0.4395970000000  0.3838980000000  0.6952680000000 1.0
C      1  0.5442110000000  0.3985380000000  0.6989560000000 1.0
C      1  0.4558570000000  0.3966950000000  0.2966970000000 1.0
C      1  0.5987300000000  0.5637680000000  0.3851300000000 1.0
C      1  0.4020410000000  0.5651740000000  0.6096980000000 1.0
C      1  0.6093530000000  0.5747220000000  0.6088080000000 1.0
C      1  0.3900580000000  0.5735900000000  0.3859100000000 1.0
C      1  0.2390720000000  0.4110760000000  0.5474100000000 1.0
C      1  0.7596270000000  0.4051010000000  0.4488280000000 1.0
C      1  0.2395860000000  0.4068740000000  0.4426800000000 1.0
C      1  0.7617180000000  0.4125480000000  0.5533410000000 1.0
C      1  0.5443490000000  0.4209840000000  0.5683720000000 1.0
C      1  0.4555850000000  0.4200440000000  0.4271900000000 1.0
C      1  0.5420610000000  0.4132470000000  0.4283750000000 1.0
C      1  0.4577640000000  0.4141700000000  0.5673820000000 1.0
C      1  0.3980740000000  0.3291520000000  0.6056460000000 1.0
C      1  0.6011720000000  0.3274000000000  0.3904210000000 1.0
C      1  0.3993410000000  0.3393790000000  0.3769880000000 1.0
C      1  0.6008610000000  0.3411000000000  0.6189640000000 1.0
END
