TITL C-3036482-790-138 1.3633443076687e-05 3375 -366.530701298005 0 0 60 (Cs) n - 1
REM
REM in /home/bkarasulu/work/CARBON/AIRSS/Generating-Clusters/REBO/Higher-Symm/Only-C60
REM
REM
REM
REM
REM
REM ./C.cell (a2850807a9bf4ad07a5b6933b78d9264)
REM AIRSS Version 0.9.1 bugfix July 2018 build 013d7b7c2542+ Fri, 06 Jul 2018 19:26:36 +0100
REM compiler GCC version 9.2.1 20190827 (Red Hat 9.2.1-1)
REM options -cpp -mtune=generic -march=x86-64 -g -O0 -fpre-include=/usr/include/finclude/math-vector-fortran.h
REM seed 486568757 -282587759 2010573507 1908955626 -837222656 1334967252 -470075673 853689880 -896543440 1167622955 1327273413 1875055247 877805137 -1437271361 -502663390 -856372155 138202935 93865398 -161101127 -2146909940 -258891680 -748577463 1598767262 1119309950 -1451461254 -1079443839 -1731930987 130403412 -1167724703 195037456 1459782332 -2082050642 380854755
REM
CELL 1.54180   15.00000   15.00000   15.00000   90.00000   90.00000   90.00000
LATT -1
SFAC C  
C      1  0.5499310000000  0.2528710000000  0.5721580000000 1.0
C      1  0.6964980000000  0.4070600000000  0.5853920000000 1.0
C      1  0.6498980000000  0.6902050000000  0.5856430000000 1.0
C      1  0.4374240000000  0.7598470000000  0.5655090000000 1.0
C      1  0.3063100000000  0.5937820000000  0.5846220000000 1.0
C      1  0.3453420000000  0.3053740000000  0.5851670000000 1.0
C      1  0.5499320000000  0.7471290000000  0.5721580000000 1.0
C      1  0.6964980000000  0.5929390000000  0.5853920000000 1.0
C      1  0.6498980000000  0.3097940000000  0.5856440000000 1.0
C      1  0.4374230000000  0.2401530000000  0.5655100000000 1.0
C      1  0.3063090000000  0.4062180000000  0.5846220000000 1.0
C      1  0.3453420000000  0.6946270000000  0.5851660000000 1.0
C      1  0.3726140000000  0.6530690000000  0.3445980000000 1.0
C      1  0.3445650000000  0.4532620000000  0.3495470000000 1.0
C      1  0.4471730000000  0.2886240000000  0.3336390000000 1.0
C      1  0.6323680000000  0.3500740000000  0.3429870000000 1.0
C      1  0.6664380000000  0.5466110000000  0.3469020000000 1.0
C      1  0.5534500000000  0.7002630000000  0.3321060000000 1.0
C      1  0.3726130000000  0.3469310000000  0.3445990000000 1.0
C      1  0.3445650000000  0.5467380000000  0.3495470000000 1.0
C      1  0.4471740000000  0.7113760000000  0.3336380000000 1.0
C      1  0.6323690000000  0.6499260000000  0.3429870000000 1.0
C      1  0.6664380000000  0.4533880000000  0.3469020000000 1.0
C      1  0.5534490000000  0.2997370000000  0.3321070000000 1.0
C      1  0.5521850000000  0.3027050000000  0.6745960000000 1.0
C      1  0.6715390000000  0.4533400000000  0.6734200000000 1.0
C      1  0.6310710000000  0.6411540000000  0.6889710000000 1.0
C      1  0.4568000000000  0.7035860000000  0.6570490000000 1.0
C      1  0.3435020000000  0.5465680000000  0.6680720000000 1.0
C      1  0.3824790000000  0.3577780000000  0.6804650000000 1.0
C      1  0.5521850000000  0.6972950000000  0.6745960000000 1.0
C      1  0.6715390000000  0.5466600000000  0.6734200000000 1.0
C      1  0.6310710000000  0.3588460000000  0.6889710000000 1.0
C      1  0.4567990000000  0.2964140000000  0.6570490000000 1.0
C      1  0.3435010000000  0.4534330000000  0.6680720000000 1.0
C      1  0.3824800000000  0.6422230000000  0.6804650000000 1.0
C      1  0.7240310000000  0.5472060000000  0.5091390000000 1.0
C      1  0.5826840000000  0.7915650000000  0.4755830000000 1.0
C      1  0.3276010000000  0.7427140000000  0.4926930000000 1.0
C      1  0.2796630000000  0.4528420000000  0.5085780000000 1.0
C      1  0.3995730000000  0.1920210000000  0.4749620000000 1.0
C      1  0.6608870000000  0.2626670000000  0.4942060000000 1.0
C      1  0.7240300000000  0.4527930000000  0.5091390000000 1.0
C      1  0.5826830000000  0.2084340000000  0.4755830000000 1.0
C      1  0.3276000000000  0.2572870000000  0.4926930000000 1.0
C      1  0.2796630000000  0.5471590000000  0.5085780000000 1.0
C      1  0.3995740000000  0.8079790000000  0.4749620000000 1.0
C      1  0.6608880000000  0.7373320000000  0.4942060000000 1.0
C      1  0.6947490000000  0.6884420000000  0.4218250000000 1.0
C      1  0.4411440000000  0.8033090000000  0.3908570000000 1.0
C      1  0.2876980000000  0.5899430000000  0.4244420000000 1.0
C      1  0.3038760000000  0.3112480000000  0.4198150000000 1.0
C      1  0.5407070000000  0.2147440000000  0.3918370000000 1.0
C      1  0.7178040000000  0.4093590000000  0.4252190000000 1.0
C      1  0.6947490000000  0.3115570000000  0.4218250000000 1.0
C      1  0.4411430000000  0.1966910000000  0.3908580000000 1.0
C      1  0.2876970000000  0.4100580000000  0.4244420000000 1.0
C      1  0.3038760000000  0.6887520000000  0.4198150000000 1.0
C      1  0.5407080000000  0.7852550000000  0.3918360000000 1.0
C      1  0.7178050000000  0.5906400000000  0.4252190000000 1.0
END
