TITL C-3036483-1610-693 -4.71937438483232e-06 3375 -359.543266715176 0 0 60 (C1) n - 1
REM
REM in /home/bkarasulu/work/CARBON/AIRSS/Generating-Clusters/REBO/Higher-Symm/Only-C60
REM
REM
REM
REM
REM
REM ./C.cell (a2850807a9bf4ad07a5b6933b78d9264)
REM AIRSS Version 0.9.1 bugfix July 2018 build 013d7b7c2542+ Fri, 06 Jul 2018 19:26:36 +0100
REM compiler GCC version 9.2.1 20190827 (Red Hat 9.2.1-1)
REM options -cpp -mtune=generic -march=x86-64 -g -O0 -fpre-include=/usr/include/finclude/math-vector-fortran.h
REM seed -573483984 -1400395509 -1668872089 -2128520161 1444676740 2001964082 -1674924981 1461331695 1960806923 -1389682957 1088565629 -1654840598 -1644405564 -666246419 -1707793939 -115014714 1750857425 -360480046 -1903328208 31204245 324362774 1066921318 -557260567 -1852921833 1629770834 -1949305497 492094380 -2109903122 -336043702 -833443111 -1337472178 -1442516007 1308571494
REM
CELL 1.54180   15.00000   15.00000   15.00000   90.00000   90.00000   90.00000
LATT -1
SFAC C  
C      1  0.2507710000000  0.4884460000000  0.4517790000000 1.0
C      1  0.4663530000000  0.4876350000000  0.2512900000000 1.0
C      1  0.7252350000000  0.4884340000000  0.3919260000000 1.0
C      1  0.6749480000000  0.4878660000000  0.6807860000000 1.0
C      1  0.3647960000000  0.4906170000000  0.7171430000000 1.0
C      1  0.6371390000000  0.3880880000000  0.5558460000000 1.0
C      1  0.4878570000000  0.3915090000000  0.6490730000000 1.0
C      1  0.3541710000000  0.3863510000000  0.5347880000000 1.0
C      1  0.4196400000000  0.3852930000000  0.3740570000000 1.0
C      1  0.5943400000000  0.3859280000000  0.3857290000000 1.0
C      1  0.4203010000000  0.3115630000000  0.5214840000000 1.0
C      1  0.4551400000000  0.3108940000000  0.4324620000000 1.0
C      1  0.5504290000000  0.3120000000000  0.4382720000000 1.0
C      1  0.5744670000000  0.3135910000000  0.5307520000000 1.0
C      1  0.4941530000000  0.3144500000000  0.5825230000000 1.0
C      1  0.5819960000000  0.7094790000000  0.4898920000000 1.0
C      1  0.5359450000000  0.7061850000000  0.5766670000000 1.0
C      1  0.4394620000000  0.7028230000000  0.5620350000000 1.0
C      1  0.4249910000000  0.7029780000000  0.4635520000000 1.0
C      1  0.5133720000000  0.7072590000000  0.4197070000000 1.0
C      1  0.5783930000000  0.4822850000000  0.5458920000000 1.0
C      1  0.4806730000000  0.4818760000000  0.5871340000000 1.0
C      1  0.4117420000000  0.4761610000000  0.5067830000000 1.0
C      1  0.4671710000000  0.4803220000000  0.4135120000000 1.0
C      1  0.5711800000000  0.4823120000000  0.4399600000000 1.0
C      1  0.5676270000000  0.6372960000000  0.6319850000000 1.0
C      1  0.3947070000000  0.6354920000000  0.6147470000000 1.0
C      1  0.3671510000000  0.6338900000000  0.4285520000000 1.0
C      1  0.5261830000000  0.6387660000000  0.3526770000000 1.0
C      1  0.6501220000000  0.6414800000000  0.4778880000000 1.0
C      1  0.2976370000000  0.4952370000000  0.3470870000000 1.0
C      1  0.5804700000000  0.4953760000000  0.2618170000000 1.0
C      1  0.7523190000000  0.4955610000000  0.5033620000000 1.0
C      1  0.5807770000000  0.5067200000000  0.7435260000000 1.0
C      1  0.2796310000000  0.4900990000000  0.6418780000000 1.0
C      1  0.6943650000000  0.3884440000000  0.3984850000000 1.0
C      1  0.6561640000000  0.3908530000000  0.6546350000000 1.0
C      1  0.3983420000000  0.3923590000000  0.6956720000000 1.0
C      1  0.2808380000000  0.3886390000000  0.4662940000000 1.0
C      1  0.4628240000000  0.3877020000000  0.2827540000000 1.0
C      1  0.4663870000000  0.5234150000000  0.7553250000000 1.0
C      1  0.2412240000000  0.5271950000000  0.5485210000000 1.0
C      1  0.3716630000000  0.5238500000000  0.2704780000000 1.0
C      1  0.6766750000000  0.5242870000000  0.3073080000000 1.0
C      1  0.7379410000000  0.5249950000000  0.6100380000000 1.0
C      1  0.6216680000000  0.5725710000000  0.4179510000000 1.0
C      1  0.6159760000000  0.5711240000000  0.5856310000000 1.0
C      1  0.4569000000000  0.5639840000000  0.6497730000000 1.0
C      1  0.3546030000000  0.5625310000000  0.4897460000000 1.0
C      1  0.4602740000000  0.5698660000000  0.3579750000000 1.0
C      1  0.5592730000000  0.4017620000000  0.2924410000000 1.0
C      1  0.7152890000000  0.4025900000000  0.4931570000000 1.0
C      1  0.5718370000000  0.4072950000000  0.7053220000000 1.0
C      1  0.3243230000000  0.3998220000000  0.6295910000000 1.0
C      1  0.3202360000000  0.4022310000000  0.3778770000000 1.0
C      1  0.7073400000000  0.6095040000000  0.5537140000000 1.0
C      1  0.5355740000000  0.6047170000000  0.7221340000000 1.0
C      1  0.3164480000000  0.5987650000000  0.5752970000000 1.0
C      1  0.3665980000000  0.6080160000000  0.3325840000000 1.0
C      1  0.6159500000000  0.6092200000000  0.3207360000000 1.0
END
