TITL C-3036484-3770-1091 0.00251195778852964 3375 -353.312483349612 0 0 60 (C1) n - 1
REM
REM in /home/bkarasulu/work/CARBON/AIRSS/Generating-Clusters/REBO/Higher-Symm/Only-C60
REM
REM
REM
REM
REM
REM ./C.cell (a2850807a9bf4ad07a5b6933b78d9264)
REM AIRSS Version 0.9.1 bugfix July 2018 build 013d7b7c2542+ Fri, 06 Jul 2018 19:26:36 +0100
REM compiler GCC version 9.2.1 20190827 (Red Hat 9.2.1-1)
REM options -cpp -mtune=generic -march=x86-64 -g -O0 -fpre-include=/usr/include/finclude/math-vector-fortran.h
REM seed -843886993 -2056366921 -1076451886 -1214559991 894928454 1188453201 1464888530 896310160 -1907585778 -1108651047 1528560200 718698612 938115178 1821001168 1598307913 1441712586 -1307262195 -1496211337 -249134879 1090197835 -1988730810 -1307908605 -604482008 1031496013 -189385884 -1225509598 1466626598 -299331107 -1755660740 1861803255 -933231741 8217847 -1880968540
REM
CELL 1.54180   15.00000   15.00000   15.00000   90.00000   90.00000   90.00000
LATT -1
SFAC C  
C      1  0.5342930000000  0.4806680000000  0.2461930000000 1.0
C      1  0.5319920000000  0.6819010000000  0.3289620000000 1.0
C      1  0.5411510000000  0.7509040000000  0.5369440000000 1.0
C      1  0.5561890000000  0.6372660000000  0.7221140000000 1.0
C      1  0.5174300000000  0.4019140000000  0.7260660000000 1.0
C      1  0.5285530000000  0.2601170000000  0.5680440000000 1.0
C      1  0.5447450000000  0.2845430000000  0.3432480000000 1.0
C      1  0.3194370000000  0.4210100000000  0.5657170000000 1.0
C      1  0.3268650000000  0.3657440000000  0.4713560000000 1.0
C      1  0.3312150000000  0.4188600000000  0.3924740000000 1.0
C      1  0.3328040000000  0.5255790000000  0.4044160000000 1.0
C      1  0.3351280000000  0.6098150000000  0.4708910000000 1.0
C      1  0.3374280000000  0.5988810000000  0.5663040000000 1.0
C      1  0.3270840000000  0.5184900000000  0.6176360000000 1.0
C      1  0.5257230000000  0.3947180000000  0.5904150000000 1.0
C      1  0.5218930000000  0.3700090000000  0.4937060000000 1.0
C      1  0.5149570000000  0.4271960000000  0.4127010000000 1.0
C      1  0.5118140000000  0.5241530000000  0.4021970000000 1.0
C      1  0.5134820000000  0.5966540000000  0.4662760000000 1.0
C      1  0.5181490000000  0.5974420000000  0.5615330000000 1.0
C      1  0.5041400000000  0.5025910000000  0.6197660000000 1.0
C      1  0.6269850000000  0.6221780000000  0.3316010000000 1.0
C      1  0.6340420000000  0.7067620000000  0.4892410000000 1.0
C      1  0.6436600000000  0.6361030000000  0.6553480000000 1.0
C      1  0.6085180000000  0.4608960000000  0.6897330000000 1.0
C      1  0.6300830000000  0.3098320000000  0.5845400000000 1.0
C      1  0.6404510000000  0.3062610000000  0.4007330000000 1.0
C      1  0.6302170000000  0.4487010000000  0.2928950000000 1.0
C      1  0.5518910000000  0.6749840000000  0.4281970000000 1.0
C      1  0.5621510000000  0.6715020000000  0.5956650000000 1.0
C      1  0.5272690000000  0.5327880000000  0.7204810000000 1.0
C      1  0.5662940000000  0.3365230000000  0.6676860000000 1.0
C      1  0.5659700000000  0.2799620000000  0.4729180000000 1.0
C      1  0.5542900000000  0.3855060000000  0.3371030000000 1.0
C      1  0.5482560000000  0.5504700000000  0.3185790000000 1.0
C      1  0.4413590000000  0.6423990000000  0.3542210000000 1.0
C      1  0.4477740000000  0.7087120000000  0.5258850000000 1.0
C      1  0.4510180000000  0.6105290000000  0.6869560000000 1.0
C      1  0.4287870000000  0.4232030000000  0.6956460000000 1.0
C      1  0.4378080000000  0.2972470000000  0.5671090000000 1.0
C      1  0.4519520000000  0.3133450000000  0.3828570000000 1.0
C      1  0.4433690000000  0.4727710000000  0.2915280000000 1.0
C      1  0.4040760000000  0.5547070000000  0.3302700000000 1.0
C      1  0.4058960000000  0.6715990000000  0.4424150000000 1.0
C      1  0.4074410000000  0.6581870000000  0.6031460000000 1.0
C      1  0.3918290000000  0.5137020000000  0.6895060000000 1.0
C      1  0.3942550000000  0.3656630000000  0.6236600000000 1.0
C      1  0.4040120000000  0.3052130000000  0.4733480000000 1.0
C      1  0.4085580000000  0.3930840000000  0.3378020000000 1.0
C      1  0.6736120000000  0.5241680000000  0.3656080000000 1.0
C      1  0.6742070000000  0.6165740000000  0.4330190000000 1.0
C      1  0.6743390000000  0.6184220000000  0.5471610000000 1.0
C      1  0.6646480000000  0.5305200000000  0.6192730000000 1.0
C      1  0.6565760000000  0.4195420000000  0.5957210000000 1.0
C      1  0.6645230000000  0.3668600000000  0.4947770000000 1.0
C      1  0.6730750000000  0.4128200000000  0.3910690000000 1.0
C      1  0.4633210000000  0.4858550000000  0.5196210000000 1.0
C      1  0.5768130000000  0.4891790000000  0.5126460000000 1.0
C      1  0.6606340000000  0.4996660000000  0.4898480000000 1.0
C      1  0.3751930000000  0.4862900000000  0.4981530000000 1.0
END
