TITL C-3036486-2224-234 -0.256307192739521 3375 -321.176977873928 0 0 60 (D2) n - 1
REM
REM in /home/bkarasulu/work/CARBON/AIRSS/Generating-Clusters/REBO/Higher-Symm/Only-C60
REM
REM
REM
REM
REM
REM ./C.cell (a2850807a9bf4ad07a5b6933b78d9264)
REM AIRSS Version 0.9.1 bugfix July 2018 build 013d7b7c2542+ Fri, 06 Jul 2018 19:26:36 +0100
REM compiler GCC version 9.2.1 20190827 (Red Hat 9.2.1-1)
REM options -cpp -mtune=generic -march=x86-64 -g -O0 -fpre-include=/usr/include/finclude/math-vector-fortran.h
REM seed 1313222882 -1230017806 47325367 -1657243340 -720901337 949538063 2091307897 -971623747 -1887528542 -690674834 1529369532 -514991036 1338389326 1967524360 487504176 -1437327330 1565616579 1830398602 1482953690 -1394422013 1527026620 -972008449 1955900244 -1385709037 1683454247 162408952 1453093231 686913190 -1319320933 1474833215 1407625211 -1689743869 1681623663
REM
CELL 1.54180   15.00000   15.00000   15.00000   90.00000   90.00000   90.00000
LATT -1
SFAC C  
C      1  0.6591510000000  0.6816070000000  0.5468440000000 1.0
C      1  0.3408660000000  0.3183990000000  0.5468420000000 1.0
C      1  0.3408490000000  0.6816070000000  0.4531560000000 1.0
C      1  0.6591340000000  0.3183990000000  0.4531580000000 1.0
C      1  0.5651300000000  0.5107860000000  0.3400480000000 1.0
C      1  0.4348700000000  0.4892140000000  0.3400470000000 1.0
C      1  0.4348700000000  0.5107860000000  0.6599520000000 1.0
C      1  0.5651300000000  0.4892140000000  0.6599530000000 1.0
C      1  0.4446090000000  0.4860830000000  0.5510870000000 1.0
C      1  0.5553920000000  0.5139030000000  0.5510910000000 1.0
C      1  0.5553910000000  0.4860830000000  0.4489130000000 1.0
C      1  0.4446080000000  0.5139030000000  0.4489090000000 1.0
C      1  0.2754410000000  0.4646450000000  0.6225030000000 1.0
C      1  0.7245590000000  0.5353570000000  0.6225020000000 1.0
C      1  0.7245590000000  0.4646450000000  0.3774970000000 1.0
C      1  0.2754410000000  0.5353570000000  0.3774980000000 1.0
C      1  0.4903610000000  0.4166040000000  0.6910250000000 1.0
C      1  0.5096410000000  0.5833970000000  0.6910260000000 1.0
C      1  0.5096390000000  0.4166040000000  0.3089750000000 1.0
C      1  0.4903590000000  0.5833970000000  0.3089740000000 1.0
C      1  0.4992310000000  0.7079080000000  0.6457290000000 1.0
C      1  0.5007660000000  0.2920940000000  0.6457220000000 1.0
C      1  0.5007690000000  0.7079080000000  0.3542710000000 1.0
C      1  0.4992340000000  0.2920940000000  0.3542780000000 1.0
C      1  0.5012730000000  0.7523550000000  0.5529120000000 1.0
C      1  0.4987290000000  0.2476470000000  0.5529120000000 1.0
C      1  0.4987270000000  0.7523550000000  0.4470880000000 1.0
C      1  0.5012710000000  0.2476470000000  0.4470880000000 1.0
C      1  0.5349240000000  0.6175960000000  0.4507870000000 1.0
C      1  0.4650730000000  0.3824070000000  0.4507960000000 1.0
C      1  0.4650760000000  0.6175960000000  0.5492130000000 1.0
C      1  0.5349270000000  0.3824070000000  0.5492040000000 1.0
C      1  0.5797430000000  0.6467150000000  0.3298790000000 1.0
C      1  0.4202510000000  0.3532890000000  0.3298860000000 1.0
C      1  0.4202570000000  0.6467150000000  0.6701210000000 1.0
C      1  0.5797490000000  0.3532890000000  0.6701140000000 1.0
C      1  0.6385040000000  0.6045640000000  0.4048610000000 1.0
C      1  0.3615010000000  0.3954260000000  0.4048540000000 1.0
C      1  0.3614960000000  0.6045640000000  0.5951390000000 1.0
C      1  0.6384990000000  0.3954260000000  0.5951460000000 1.0
C      1  0.4307910000000  0.6657830000000  0.4592900000000 1.0
C      1  0.5692100000000  0.3342230000000  0.4592930000000 1.0
C      1  0.5692090000000  0.6657830000000  0.5407100000000 1.0
C      1  0.4307900000000  0.3342230000000  0.5407070000000 1.0
C      1  0.3722960000000  0.5724630000000  0.3829900000000 1.0
C      1  0.6277090000000  0.4275320000000  0.3829850000000 1.0
C      1  0.6277040000000  0.5724630000000  0.6170100000000 1.0
C      1  0.3722910000000  0.4275320000000  0.6170150000000 1.0
C      1  0.3269470000000  0.5373920000000  0.5157550000000 1.0
C      1  0.6730570000000  0.4626060000000  0.5157600000000 1.0
C      1  0.6730530000000  0.5373920000000  0.4842450000000 1.0
C      1  0.3269430000000  0.4626060000000  0.4842400000000 1.0
C      1  0.4119950000000  0.3407950000000  0.6718560000000 1.0
C      1  0.5880060000000  0.6592050000000  0.6718570000000 1.0
C      1  0.5880050000000  0.3407950000000  0.3281440000000 1.0
C      1  0.4119940000000  0.6592050000000  0.3281430000000 1.0
C      1  0.7277540000000  0.4508370000000  0.6360400000000 1.0
C      1  0.2722560000000  0.5491700000000  0.6360370000000 1.0
C      1  0.2722460000000  0.4508370000000  0.3639600000000 1.0
C      1  0.7277440000000  0.5491700000000  0.3639630000000 1.0
END
