TITL C-3036486-2224-442 -6.44452230259582e-06 3375 -319.626280222376 0 0 60 (C1) n - 1
REM
REM in /home/bkarasulu/work/CARBON/AIRSS/Generating-Clusters/REBO/Higher-Symm/Only-C60
REM
REM
REM
REM
REM
REM ./C.cell (a2850807a9bf4ad07a5b6933b78d9264)
REM AIRSS Version 0.9.1 bugfix July 2018 build 013d7b7c2542+ Fri, 06 Jul 2018 19:26:36 +0100
REM compiler GCC version 9.2.1 20190827 (Red Hat 9.2.1-1)
REM options -cpp -mtune=generic -march=x86-64 -g -O0 -fpre-include=/usr/include/finclude/math-vector-fortran.h
REM seed 708560281 -1579761322 1516267004 364803184 848648189 -1732457333 532584154 1883062238 -1196681683 -866124222 -444196084 -424719519 -1215810799 1738215879 158498487 1057586836 -1210885718 897771652 490332312 -1195873351 -1835724631 160330957 -1561510238 439454074 1924635153 -649914555 -167523750 -2104036607 -416370670 309181946 734751981 -19233941 -441204894
REM
CELL 1.54180   15.00000   15.00000   15.00000   90.00000   90.00000   90.00000
LATT -1
SFAC C  
C      1  0.5735440000000  0.5617430000000  0.2470310000000 1.0
C      1  0.5495310000000  0.2545240000000  0.5442740000000 1.0
C      1  0.2454290000000  0.5631950000000  0.5571570000000 1.0
C      1  0.4568190000000  0.5488640000000  0.7435040000000 1.0
C      1  0.4351230000000  0.4422320000000  0.2436620000000 1.0
C      1  0.5434200000000  0.4479110000000  0.7467310000000 1.0
C      1  0.4473580000000  0.2561830000000  0.4591410000000 1.0
C      1  0.4459710000000  0.7444260000000  0.5451080000000 1.0
C      1  0.5388730000000  0.7517130000000  0.4495350000000 1.0
C      1  0.7412690000000  0.5497890000000  0.4560940000000 1.0
C      1  0.7456900000000  0.4541180000000  0.5541110000000 1.0
C      1  0.2416490000000  0.4350650000000  0.4314590000000 1.0
C      1  0.5476000000000  0.4513820000000  0.2538110000000 1.0
C      1  0.5578550000000  0.7526990000000  0.5617150000000 1.0
C      1  0.2525560000000  0.4503210000000  0.5430840000000 1.0
C      1  0.4306900000000  0.4385660000000  0.7503240000000 1.0
C      1  0.4609350000000  0.5521800000000  0.2565290000000 1.0
C      1  0.5688130000000  0.5580600000000  0.7579620000000 1.0
C      1  0.4270050000000  0.7581970000000  0.4359900000000 1.0
C      1  0.4400070000000  0.2408400000000  0.5712610000000 1.0
C      1  0.5571610000000  0.2477820000000  0.4314420000000 1.0
C      1  0.7521010000000  0.4370740000000  0.4421670000000 1.0
C      1  0.7570260000000  0.5639820000000  0.5674680000000 1.0
C      1  0.2503900000000  0.5450750000000  0.4452120000000 1.0
C      1  0.7185320000000  0.3352780000000  0.4338500000000 1.0
C      1  0.3299240000000  0.4367860000000  0.7132120000000 1.0
C      1  0.4600410000000  0.7156120000000  0.3487710000000 1.0
C      1  0.2922920000000  0.3503850000000  0.5699870000000 1.0
C      1  0.2863250000000  0.6418450000000  0.4591780000000 1.0
C      1  0.7102800000000  0.6499220000000  0.5380000000000 1.0
C      1  0.6437230000000  0.4604620000000  0.2945530000000 1.0
C      1  0.6723430000000  0.5602410000000  0.7297610000000 1.0
C      1  0.3634170000000  0.5409160000000  0.2943950000000 1.0
C      1  0.5676710000000  0.7172290000000  0.6628260000000 1.0
C      1  0.5578080000000  0.2822920000000  0.3298570000000 1.0
C      1  0.4384080000000  0.2707040000000  0.6745270000000 1.0
C      1  0.6939380000000  0.6474340000000  0.4333110000000 1.0
C      1  0.3613080000000  0.5394550000000  0.7008680000000 1.0
C      1  0.4561010000000  0.2984370000000  0.3631590000000 1.0
C      1  0.2766030000000  0.6662150000000  0.5639710000000 1.0
C      1  0.2845650000000  0.3482170000000  0.4640430000000 1.0
C      1  0.7041690000000  0.3595310000000  0.5379700000000 1.0
C      1  0.6756070000000  0.5629610000000  0.2816870000000 1.0
C      1  0.6409330000000  0.4586100000000  0.7093260000000 1.0
C      1  0.3320910000000  0.4395820000000  0.2723660000000 1.0
C      1  0.5387830000000  0.2941060000000  0.6409590000000 1.0
C      1  0.5666980000000  0.7142410000000  0.3484810000000 1.0
C      1  0.4634080000000  0.7027810000000  0.6395460000000 1.0
C      1  0.7246310000000  0.5023550000000  0.6507170000000 1.0
C      1  0.6362450000000  0.7201810000000  0.4945060000000 1.0
C      1  0.7260330000000  0.4994800000000  0.3580460000000 1.0
C      1  0.5124080000000  0.6459430000000  0.2798060000000 1.0
C      1  0.4937780000000  0.3534110000000  0.7236450000000 1.0
C      1  0.3474240000000  0.7240740000000  0.5007490000000 1.0
C      1  0.3551950000000  0.2782850000000  0.5134970000000 1.0
C      1  0.6423110000000  0.2793400000000  0.4920950000000 1.0
C      1  0.2776130000000  0.4968460000000  0.3500400000000 1.0
C      1  0.2773170000000  0.5008940000000  0.6392590000000 1.0
C      1  0.5093620000000  0.6417460000000  0.7201890000000 1.0
C      1  0.4958980000000  0.3582810000000  0.2780760000000 1.0
END
