TITL C-3036481-494-375 1.45707687028055e-06 3375 -346.001966534462 0 0 60 (Th) n - 1
REM
REM in /home/bkarasulu/work/CARBON/AIRSS/Generating-Clusters/REBO/Higher-Symm/Only-C60
REM
REM
REM
REM
REM
REM ./C.cell (a2850807a9bf4ad07a5b6933b78d9264)
REM AIRSS Version 0.9.1 bugfix July 2018 build 013d7b7c2542+ Fri, 06 Jul 2018 19:26:36 +0100
REM compiler GCC version 9.2.1 20190827 (Red Hat 9.2.1-1)
REM options -cpp -mtune=generic -march=x86-64 -g -O0 -fpre-include=/usr/include/finclude/math-vector-fortran.h
REM seed 2041036172 1548708911 -2144910536 308426489 1367942439 1688088896 1238696693 487375155 1747151915 -196998669 771653084 718062949 1348419472 -447984198 1708333153 1914020605 511513554 -681943965 -93927655 1949947764 1334763771 -1238995128 -33706940 1915215268 1250796012 946432601 -597853798 870076906 1000916656 627904590 -954835110 1886686130 -1185573435
REM
CELL 1.54180   15.00000   15.00000   15.00000   90.00000   90.00000   90.00000
LATT -1
SFAC C  
C      1  0.4195200000000  0.5504210000000  0.2506690000000 1.0
C      1  0.5504210000000  0.2506690000000  0.4195200000000 1.0
C      1  0.2506690000000  0.4195200000000  0.5504210000000 1.0
C      1  0.5804800000000  0.4495790000000  0.2506690000000 1.0
C      1  0.4195200000000  0.4495790000000  0.7493310000000 1.0
C      1  0.5804800000000  0.5504210000000  0.7493310000000 1.0
C      1  0.4495790000000  0.7493310000000  0.4195200000000 1.0
C      1  0.5504210000000  0.7493310000000  0.5804800000000 1.0
C      1  0.4495790000000  0.2506690000000  0.5804800000000 1.0
C      1  0.7493310000000  0.5804800000000  0.5504210000000 1.0
C      1  0.2506690000000  0.5804800000000  0.4495790000000 1.0
C      1  0.7493310000000  0.4195200000000  0.4495790000000 1.0
C      1  0.4195200000000  0.5504210000000  0.7493310000000 1.0
C      1  0.5504210000000  0.2506690000000  0.5804800000000 1.0
C      1  0.2506690000000  0.4195200000000  0.4495790000000 1.0
C      1  0.5804800000000  0.4495790000000  0.7493310000000 1.0
C      1  0.4195200000000  0.4495790000000  0.2506690000000 1.0
C      1  0.5804800000000  0.5504210000000  0.2506690000000 1.0
C      1  0.4495790000000  0.7493310000000  0.5804800000000 1.0
C      1  0.5504210000000  0.7493310000000  0.4195200000000 1.0
C      1  0.4495790000000  0.2506690000000  0.4195200000000 1.0
C      1  0.7493310000000  0.5804800000000  0.4495790000000 1.0
C      1  0.2506690000000  0.5804800000000  0.5504210000000 1.0
C      1  0.7493310000000  0.4195200000000  0.5504210000000 1.0
C      1  0.4453560000000  0.3556060000000  0.3997630000000 1.0
C      1  0.3556060000000  0.3997630000000  0.4453560000000 1.0
C      1  0.3997630000000  0.4453560000000  0.3556060000000 1.0
C      1  0.5546440000000  0.6443940000000  0.3997630000000 1.0
C      1  0.4453560000000  0.6443940000000  0.6002370000000 1.0
C      1  0.5546440000000  0.3556060000000  0.6002370000000 1.0
C      1  0.6443940000000  0.6002370000000  0.4453560000000 1.0
C      1  0.3556060000000  0.6002370000000  0.5546440000000 1.0
C      1  0.6443940000000  0.3997630000000  0.5546440000000 1.0
C      1  0.6002370000000  0.5546440000000  0.3556060000000 1.0
C      1  0.3997630000000  0.5546440000000  0.6443940000000 1.0
C      1  0.6002370000000  0.4453560000000  0.6443940000000 1.0
C      1  0.4453560000000  0.3556060000000  0.6002370000000 1.0
C      1  0.3556060000000  0.3997630000000  0.5546440000000 1.0
C      1  0.3997630000000  0.4453560000000  0.6443940000000 1.0
C      1  0.5546440000000  0.6443940000000  0.6002370000000 1.0
C      1  0.4453560000000  0.6443940000000  0.3997630000000 1.0
C      1  0.5546440000000  0.3556060000000  0.3997630000000 1.0
C      1  0.6443940000000  0.6002370000000  0.5546440000000 1.0
C      1  0.3556060000000  0.6002370000000  0.4453560000000 1.0
C      1  0.6443940000000  0.3997630000000  0.4453560000000 1.0
C      1  0.6002370000000  0.5546440000000  0.6443940000000 1.0
C      1  0.3997630000000  0.5546440000000  0.3556060000000 1.0
C      1  0.6002370000000  0.4453560000000  0.3556060000000 1.0
C      1  0.5000000000000  0.4096540000000  0.7800720000000 1.0
C      1  0.4096540000000  0.7800720000000  0.5000000000000 1.0
C      1  0.7800720000000  0.5000000000000  0.4096540000000 1.0
C      1  0.5000000000000  0.5903460000000  0.2199280000000 1.0
C      1  0.5903460000000  0.2199280000000  0.5000000000000 1.0
C      1  0.2199280000000  0.5000000000000  0.4096540000000 1.0
C      1  0.7800720000000  0.5000000000000  0.5903460000000 1.0
C      1  0.2199280000000  0.5000000000000  0.5903460000000 1.0
C      1  0.5000000000000  0.5903460000000  0.7800720000000 1.0
C      1  0.5000000000000  0.4096540000000  0.2199280000000 1.0
C      1  0.4096540000000  0.2199280000000  0.5000000000000 1.0
C      1  0.5903460000000  0.7800720000000  0.5000000000000 1.0
END
