TITL C-3036479-9801-201 9.28633122730041e-07 3375 -351.6475171175 0 0 60 (Td) n - 1
REM
REM in /home/bkarasulu/work/CARBON/AIRSS/Generating-Clusters/REBO/Higher-Symm/Only-C60
REM
REM
REM
REM
REM
REM ./C.cell (a2850807a9bf4ad07a5b6933b78d9264)
REM AIRSS Version 0.9.1 bugfix July 2018 build 013d7b7c2542+ Fri, 06 Jul 2018 19:26:36 +0100
REM compiler GCC version 9.2.1 20190827 (Red Hat 9.2.1-1)
REM options -cpp -mtune=generic -march=x86-64 -g -O0 -fpre-include=/usr/include/finclude/math-vector-fortran.h
REM seed -2054090268 -1561568884 -1179427896 -641806179 1740319154 1043434683 -1974690996 -1414062733 44241235 -649505318 -670262821 68981205 601529793 -2111397417 483063950 1446556859 -1756313634 1396251008 -419034611 913189388 514089382 1397725459 798998353 816082783 1537368767 -123876195 -1947913666 1749727633 -1423498180 -157129825 -309654146 -1083342121 919359344
REM
CELL 1.54180   15.00000   15.00000   15.00000   90.00000   90.00000   90.00000
LATT -1
SFAC C  
C      1  0.7086400000000  0.5698170000000  0.6363740000000 1.0
C      1  0.6363740000000  0.7086400000000  0.5698170000000 1.0
C      1  0.5698170000000  0.6363740000000  0.7086400000000 1.0
C      1  0.2913600000000  0.5698170000000  0.3636260000000 1.0
C      1  0.7086400000000  0.4301830000000  0.3636260000000 1.0
C      1  0.2913600000000  0.4301830000000  0.6363740000000 1.0
C      1  0.3636260000000  0.7086400000000  0.4301830000000 1.0
C      1  0.6363740000000  0.2913600000000  0.4301830000000 1.0
C      1  0.3636260000000  0.2913600000000  0.5698170000000 1.0
C      1  0.4301830000000  0.6363740000000  0.2913600000000 1.0
C      1  0.5698170000000  0.3636260000000  0.2913600000000 1.0
C      1  0.4301830000000  0.3636260000000  0.7086400000000 1.0
C      1  0.6363740000000  0.5698170000000  0.7086400000000 1.0
C      1  0.5698170000000  0.7086400000000  0.6363740000000 1.0
C      1  0.7086400000000  0.6363740000000  0.5698170000000 1.0
C      1  0.3636260000000  0.5698170000000  0.2913600000000 1.0
C      1  0.3636260000000  0.4301830000000  0.7086400000000 1.0
C      1  0.6363740000000  0.4301830000000  0.2913600000000 1.0
C      1  0.4301830000000  0.7086400000000  0.3636260000000 1.0
C      1  0.4301830000000  0.2913600000000  0.6363740000000 1.0
C      1  0.5698170000000  0.2913600000000  0.3636260000000 1.0
C      1  0.2913600000000  0.6363740000000  0.4301830000000 1.0
C      1  0.2913600000000  0.3636260000000  0.5698170000000 1.0
C      1  0.7086400000000  0.3636260000000  0.4301830000000 1.0
C      1  0.5385020000000  0.6082400000000  0.3104650000000 1.0
C      1  0.3104650000000  0.5385020000000  0.6082400000000 1.0
C      1  0.6082400000000  0.3104650000000  0.5385020000000 1.0
C      1  0.4614980000000  0.6082400000000  0.6895350000000 1.0
C      1  0.5385020000000  0.3917600000000  0.6895350000000 1.0
C      1  0.4614980000000  0.3917600000000  0.3104650000000 1.0
C      1  0.6895350000000  0.5385020000000  0.3917600000000 1.0
C      1  0.3104650000000  0.4614980000000  0.3917600000000 1.0
C      1  0.6895350000000  0.4614980000000  0.6082400000000 1.0
C      1  0.3917600000000  0.3104650000000  0.4614980000000 1.0
C      1  0.6082400000000  0.6895350000000  0.4614980000000 1.0
C      1  0.3917600000000  0.6895350000000  0.5385020000000 1.0
C      1  0.3104650000000  0.6082400000000  0.5385020000000 1.0
C      1  0.6082400000000  0.5385020000000  0.3104650000000 1.0
C      1  0.5385020000000  0.3104650000000  0.6082400000000 1.0
C      1  0.6895350000000  0.6082400000000  0.4614980000000 1.0
C      1  0.6895350000000  0.3917600000000  0.5385020000000 1.0
C      1  0.3104650000000  0.3917600000000  0.4614980000000 1.0
C      1  0.3917600000000  0.5385020000000  0.6895350000000 1.0
C      1  0.3917600000000  0.4614980000000  0.3104650000000 1.0
C      1  0.6082400000000  0.4614980000000  0.6895350000000 1.0
C      1  0.4614980000000  0.3104650000000  0.3917600000000 1.0
C      1  0.4614980000000  0.6895350000000  0.6082400000000 1.0
C      1  0.5385020000000  0.6895350000000  0.3917600000000 1.0
C      1  0.4817500000000  0.4062270000000  0.5937730000000 1.0
C      1  0.5937730000000  0.4817500000000  0.4062270000000 1.0
C      1  0.4062270000000  0.5937730000000  0.4817500000000 1.0
C      1  0.5182500000000  0.4062270000000  0.4062270000000 1.0
C      1  0.4817500000000  0.5937730000000  0.4062270000000 1.0
C      1  0.5182500000000  0.5937730000000  0.5937730000000 1.0
C      1  0.4062270000000  0.4817500000000  0.5937730000000 1.0
C      1  0.5937730000000  0.5182500000000  0.5937730000000 1.0
C      1  0.5937730000000  0.5937730000000  0.5182500000000 1.0
C      1  0.4062270000000  0.4062270000000  0.5182500000000 1.0
C      1  0.5937730000000  0.4062270000000  0.4817500000000 1.0
C      1  0.4062270000000  0.5182500000000  0.4062270000000 1.0
END
