TITL C-3036481-494-43 9.57166044911639e-06 3375 -410.52367059585 0 0 60 (Ih) n - 1
REM
REM in /home/bkarasulu/work/CARBON/AIRSS/Generating-Clusters/REBO/Higher-Symm/Only-C60
REM
REM
REM
REM
REM
REM ./C.cell (a2850807a9bf4ad07a5b6933b78d9264)
REM AIRSS Version 0.9.1 bugfix July 2018 build 013d7b7c2542+ Fri, 06 Jul 2018 19:26:36 +0100
REM compiler GCC version 9.2.1 20190827 (Red Hat 9.2.1-1)
REM options -cpp -mtune=generic -march=x86-64 -g -O0 -fpre-include=/usr/include/finclude/math-vector-fortran.h
REM seed -1642561399 -111881628 786180744 -667362593 -687715802 420853776 -1606356606 -724498816 1868516802 -1035603504 -1098692982 245012461 -1755113822 1387127545 -1085870612 -783707596 1722351936 -516096374 1228367136 1316937215 272845398 416604075 1438173317 524513092 -706951000 220667917 1184028970 994762380 865761826 -2047058781 -568750470 -77708471 368111867
REM
CELL 1.54180   15.00000   15.00000   15.00000   90.00000   90.00000   90.00000
LATT -1
SFAC C  
C      1  0.4510800000000  0.6756150000000  0.3439490000000 1.0
C      1  0.6756040000000  0.3439410000000  0.4510660000000 1.0
C      1  0.3439200000000  0.4510480000000  0.6755800000000 1.0
C      1  0.5488830000000  0.6755610000000  0.6561230000000 1.0
C      1  0.5489160000000  0.3244490000000  0.3438750000000 1.0
C      1  0.4511210000000  0.3243750000000  0.6560520000000 1.0
C      1  0.3244290000000  0.3438840000000  0.5488690000000 1.0
C      1  0.3243950000000  0.6560790000000  0.4511350000000 1.0
C      1  0.6755720000000  0.6560960000000  0.5489290000000 1.0
C      1  0.6560910000000  0.4511540000000  0.3244000000000 1.0
C      1  0.6560850000000  0.5488790000000  0.6755960000000 1.0
C      1  0.3439050000000  0.5489190000000  0.3244240000000 1.0
C      1  0.4511180000000  0.3244390000000  0.3438770000000 1.0
C      1  0.6755710000000  0.6561160000000  0.4511310000000 1.0
C      1  0.3439090000000  0.5488460000000  0.6756000000000 1.0
C      1  0.5489200000000  0.3243850000000  0.6560510000000 1.0
C      1  0.5488790000000  0.6756250000000  0.3439480000000 1.0
C      1  0.4510840000000  0.6755510000000  0.6561240000000 1.0
C      1  0.3243960000000  0.6560590000000  0.5489340000000 1.0
C      1  0.3244280000000  0.3439040000000  0.4510710000000 1.0
C      1  0.6756050000000  0.3439210000000  0.5488650000000 1.0
C      1  0.6560800000000  0.5489520000000  0.3244200000000 1.0
C      1  0.6560950000000  0.4510810000000  0.6755760000000 1.0
C      1  0.3439150000000  0.4511210000000  0.3244040000000 1.0
C      1  0.4208670000000  0.5965010000000  0.2950340000000 1.0
C      1  0.5964880000000  0.2950400000000  0.4208360000000 1.0
C      1  0.2950230000000  0.4208380000000  0.5964540000000 1.0
C      1  0.5791130000000  0.5964340000000  0.7050060000000 1.0
C      1  0.5791280000000  0.4035830000000  0.2949920000000 1.0
C      1  0.4208920000000  0.4034820000000  0.7049680000000 1.0
C      1  0.4035550000000  0.2949870000000  0.5790790000000 1.0
C      1  0.4035100000000  0.7049930000000  0.4209230000000 1.0
C      1  0.5964470000000  0.7049810000000  0.5791620000000 1.0
C      1  0.7049940000000  0.4209210000000  0.4035140000000 1.0
C      1  0.7049800000000  0.5791220000000  0.5964810000000 1.0
C      1  0.2950030000000  0.5791190000000  0.4035510000000 1.0
C      1  0.4208870000000  0.4035670000000  0.2949940000000 1.0
C      1  0.5964450000000  0.7050130000000  0.4209210000000 1.0
C      1  0.2950060000000  0.5790790000000  0.5964860000000 1.0
C      1  0.5791330000000  0.4034990000000  0.7049660000000 1.0
C      1  0.5791080000000  0.5965180000000  0.2950320000000 1.0
C      1  0.4208720000000  0.5964170000000  0.7050080000000 1.0
C      1  0.4035120000000  0.7049600000000  0.5791640000000 1.0
C      1  0.4035530000000  0.2950190000000  0.4208380000000 1.0
C      1  0.5964900000000  0.2950070000000  0.5790770000000 1.0
C      1  0.7049770000000  0.5791620000000  0.4035460000000 1.0
C      1  0.7049960000000  0.4208810000000  0.5964490000000 1.0
C      1  0.2950200000000  0.4208780000000  0.4035190000000 1.0
C      1  0.2647920000000  0.4999650000000  0.5475710000000 1.0
C      1  0.4999920000000  0.5476170000000  0.2648020000000 1.0
C      1  0.5475930000000  0.2647970000000  0.4999510000000 1.0
C      1  0.7352080000000  0.5000350000000  0.4524290000000 1.0
C      1  0.7352090000000  0.5000150000000  0.5475650000000 1.0
C      1  0.2647910000000  0.4999850000000  0.4524350000000 1.0
C      1  0.5000080000000  0.4523830000000  0.7351980000000 1.0
C      1  0.4524570000000  0.2647870000000  0.4999520000000 1.0
C      1  0.4524070000000  0.7352030000000  0.5000490000000 1.0
C      1  0.5475430000000  0.7352130000000  0.5000480000000 1.0
C      1  0.4999980000000  0.5475200000000  0.7352180000000 1.0
C      1  0.5000020000000  0.4524800000000  0.2647820000000 1.0
END
