TITL C-3036479-9801-1125 -0.000523463563810045 3375 -324.932975114023 0 0 60 (C1) n - 1
REM
REM in /home/bkarasulu/work/CARBON/AIRSS/Generating-Clusters/REBO/Higher-Symm/Only-C60
REM
REM
REM
REM
REM
REM ./C.cell (a2850807a9bf4ad07a5b6933b78d9264)
REM AIRSS Version 0.9.1 bugfix July 2018 build 013d7b7c2542+ Fri, 06 Jul 2018 19:26:36 +0100
REM compiler GCC version 9.2.1 20190827 (Red Hat 9.2.1-1)
REM options -cpp -mtune=generic -march=x86-64 -g -O0 -fpre-include=/usr/include/finclude/math-vector-fortran.h
REM seed -533215793 432477202 -745930821 1857037453 -2051686581 -1203953898 1006741813 -1837498196 -1729648175 -806979700 659543049 -1724378069 -1925442687 2066927936 1118207377 1731853007 -1984322261 -595995905 674808506 92944211 994006522 -1094299450 995475500 -577272404 2009738856 526251739 -596077421 507815758 -710042689 412269779 -1433978060 -125070401 2125534814
REM
CELL 1.54180   15.00000   15.00000   15.00000   90.00000   90.00000   90.00000
LATT -1
SFAC C  
C      1  0.3937260000000  0.6669710000000  0.5550710000000 1.0
C      1  0.4093210000000  0.4930420000000  0.6814440000000 1.0
C      1  0.4173810000000  0.3048440000000  0.5643200000000 1.0
C      1  0.4207630000000  0.3884820000000  0.3577040000000 1.0
C      1  0.4155550000000  0.6052190000000  0.3509810000000 1.0
C      1  0.4033990000000  0.6729520000000  0.4411930000000 1.0
C      1  0.4091700000000  0.4955490000000  0.3206850000000 1.0
C      1  0.4203860000000  0.3219660000000  0.4510520000000 1.0
C      1  0.4147780000000  0.3846350000000  0.6458350000000 1.0
C      1  0.4135890000000  0.6010420000000  0.6455410000000 1.0
C      1  0.6583440000000  0.6561200000000  0.5462290000000 1.0
C      1  0.6682910000000  0.4918310000000  0.6608890000000 1.0
C      1  0.6763080000000  0.3255910000000  0.5525510000000 1.0
C      1  0.6776180000000  0.3987290000000  0.3732780000000 1.0
C      1  0.6687570000000  0.5822990000000  0.3714310000000 1.0
C      1  0.6623230000000  0.6584050000000  0.4480420000000 1.0
C      1  0.6699520000000  0.4957780000000  0.3296760000000 1.0
C      1  0.6799210000000  0.3414420000000  0.4474130000000 1.0
C      1  0.6739290000000  0.3926820000000  0.6211660000000 1.0
C      1  0.6653160000000  0.5779600000000  0.6191660000000 1.0
C      1  0.4807400000000  0.5060260000000  0.7628720000000 1.0
C      1  0.4872570000000  0.2286620000000  0.5929250000000 1.0
C      1  0.4884300000000  0.3477440000000  0.2935200000000 1.0
C      1  0.4872280000000  0.6464440000000  0.2945320000000 1.0
C      1  0.4669520000000  0.7516300000000  0.5721900000000 1.0
C      1  0.4771640000000  0.5061780000000  0.2332410000000 1.0
C      1  0.4937670000000  0.2424820000000  0.4256980000000 1.0
C      1  0.4901920000000  0.3466280000000  0.7169770000000 1.0
C      1  0.4865260000000  0.6421960000000  0.6990740000000 1.0
C      1  0.4730080000000  0.7552140000000  0.4261480000000 1.0
C      1  0.2802080000000  0.6834670000000  0.5580980000000 1.0
C      1  0.3062830000000  0.5223740000000  0.6462970000000 1.0
C      1  0.3328480000000  0.3662300000000  0.5413280000000 1.0
C      1  0.3073360000000  0.4315210000000  0.3711320000000 1.0
C      1  0.2984410000000  0.6176540000000  0.3832720000000 1.0
C      1  0.2954790000000  0.6782400000000  0.4618740000000 1.0
C      1  0.3066030000000  0.5286540000000  0.3485030000000 1.0
C      1  0.3212940000000  0.3734210000000  0.4447180000000 1.0
C      1  0.3151030000000  0.4296060000000  0.6137250000000 1.0
C      1  0.2939070000000  0.6153000000000  0.6267540000000 1.0
C      1  0.5952660000000  0.3860400000000  0.2953880000000 1.0
C      1  0.5908860000000  0.6568880000000  0.3355330000000 1.0
C      1  0.5773780000000  0.7284390000000  0.5834860000000 1.0
C      1  0.5895480000000  0.4883480000000  0.7437090000000 1.0
C      1  0.5973060000000  0.2445140000000  0.5702490000000 1.0
C      1  0.5962270000000  0.3848840000000  0.7042070000000 1.0
C      1  0.5884800000000  0.6511930000000  0.6593940000000 1.0
C      1  0.5819030000000  0.7323140000000  0.4138290000000 1.0
C      1  0.5879290000000  0.4886920000000  0.2500520000000 1.0
C      1  0.6012470000000  0.2594850000000  0.4580130000000 1.0
C      1  0.5416750000000  0.4013200000000  0.6080840000000 1.0
C      1  0.5483610000000  0.3585710000000  0.4579650000000 1.0
C      1  0.5387570000000  0.4935770000000  0.3495470000000 1.0
C      1  0.5311880000000  0.6391970000000  0.4531240000000 1.0
C      1  0.5339190000000  0.5645300000000  0.6022490000000 1.0
C      1  0.5468070000000  0.4125500000000  0.3933760000000 1.0
C      1  0.5444110000000  0.3390700000000  0.5481720000000 1.0
C      1  0.5367110000000  0.4876120000000  0.6441220000000 1.0
C      1  0.5268250000000  0.6376880000000  0.5423530000000 1.0
C      1  0.5375800000000  0.5698740000000  0.3906050000000 1.0
END
