TITL C-3036481-494-445 -5.17798420919454e-05 3375 -359.236596893737 0 0 60 (C1) n - 1
REM
REM in /home/bkarasulu/work/CARBON/AIRSS/Generating-Clusters/REBO/Higher-Symm/Only-C60
REM
REM
REM
REM
REM
REM ./C.cell (a2850807a9bf4ad07a5b6933b78d9264)
REM AIRSS Version 0.9.1 bugfix July 2018 build 013d7b7c2542+ Fri, 06 Jul 2018 19:26:36 +0100
REM compiler GCC version 9.2.1 20190827 (Red Hat 9.2.1-1)
REM options -cpp -mtune=generic -march=x86-64 -g -O0 -fpre-include=/usr/include/finclude/math-vector-fortran.h
REM seed 731630207 -805289590 183815686 1186791459 166124414 1926535988 527537069 1844629076 82904539 -1379687671 1626744036 -1108032119 -1976014630 -547987091 -1616699992 2005658619 627759152 534009690 2060661810 1996387698 -1873986729 -837599856 -301046320 1895868679 1113774096 -1392466729 1401236754 -1310609395 112910253 -841876664 -531087692 -1534656890 556719045
REM
CELL 1.54180   15.00000   15.00000   15.00000   90.00000   90.00000   90.00000
LATT -1
SFAC C  
C      1  0.2996920000000  0.6437470000000  0.5198370000000 1.0
C      1  0.5816400000000  0.7165670000000  0.5237870000000 1.0
C      1  0.7450920000000  0.4460840000000  0.5257180000000 1.0
C      1  0.5373600000000  0.2719360000000  0.5349410000000 1.0
C      1  0.2895860000000  0.3886830000000  0.5294130000000 1.0
C      1  0.6476710000000  0.6682440000000  0.4722790000000 1.0
C      1  0.7219950000000  0.4120050000000  0.4194080000000 1.0
C      1  0.5010050000000  0.2709770000000  0.4260580000000 1.0
C      1  0.2832600000000  0.4196120000000  0.4182610000000 1.0
C      1  0.3481960000000  0.7022240000000  0.4584960000000 1.0
C      1  0.3533580000000  0.4251630000000  0.5982890000000 1.0
C      1  0.3557330000000  0.6114000000000  0.5918800000000 1.0
C      1  0.5645760000000  0.6725390000000  0.6209530000000 1.0
C      1  0.6868090000000  0.5243100000000  0.5804810000000 1.0
C      1  0.5409890000000  0.3497300000000  0.5992340000000 1.0
C      1  0.3906110000000  0.3430890000000  0.4090140000000 1.0
C      1  0.3229540000000  0.5728280000000  0.3987210000000 1.0
C      1  0.4936310000000  0.6690060000000  0.4053250000000 1.0
C      1  0.6873300000000  0.5372680000000  0.3923480000000 1.0
C      1  0.6133210000000  0.3370580000000  0.4019540000000 1.0
C      1  0.7041170000000  0.3434780000000  0.4993780000000 1.0
C      1  0.4288420000000  0.2573590000000  0.5034750000000 1.0
C      1  0.2307840000000  0.4775620000000  0.4896860000000 1.0
C      1  0.4135510000000  0.7643180000000  0.4941790000000 1.0
C      1  0.7154470000000  0.6167850000000  0.5213540000000 1.0
C      1  0.5477970000000  0.4137200000000  0.4277700000000 1.0
C      1  0.4425210000000  0.4300120000000  0.4366800000000 1.0
C      1  0.4201260000000  0.5387670000000  0.4378370000000 1.0
C      1  0.5213120000000  0.5801210000000  0.4482450000000 1.0
C      1  0.5945670000000  0.5055720000000  0.4326230000000 1.0
C      1  0.5831180000000  0.3816030000000  0.6982290000000 1.0
C      1  0.3957140000000  0.3928240000000  0.6952700000000 1.0
C      1  0.3584100000000  0.5813300000000  0.6838540000000 1.0
C      1  0.5173580000000  0.6482780000000  0.7202580000000 1.0
C      1  0.6640650000000  0.5335790000000  0.6794410000000 1.0
C      1  0.3421180000000  0.3057750000000  0.4859190000000 1.0
C      1  0.2503500000000  0.5695380000000  0.4744300000000 1.0
C      1  0.5034720000000  0.7380230000000  0.4723150000000 1.0
C      1  0.7504570000000  0.5385040000000  0.4649660000000 1.0
C      1  0.6294470000000  0.2805750000000  0.4808580000000 1.0
C      1  0.5586820000000  0.5686940000000  0.3208940000000 1.0
C      1  0.5807350000000  0.4689560000000  0.3055630000000 1.0
C      1  0.4941370000000  0.4192270000000  0.3057240000000 1.0
C      1  0.4215370000000  0.4847160000000  0.3123030000000 1.0
C      1  0.4604660000000  0.5758310000000  0.3166830000000 1.0
C      1  0.3438470000000  0.4871680000000  0.6915020000000 1.0
C      1  0.4294030000000  0.6215530000000  0.7340870000000 1.0
C      1  0.6163850000000  0.6114970000000  0.6996710000000 1.0
C      1  0.6400840000000  0.4511770000000  0.7191160000000 1.0
C      1  0.4797580000000  0.3573330000000  0.6934970000000 1.0
C      1  0.5298810000000  0.5988240000000  0.5576640000000 1.0
C      1  0.5923810000000  0.5161140000000  0.5407470000000 1.0
C      1  0.5287390000000  0.4289090000000  0.5381310000000 1.0
C      1  0.4289660000000  0.4618400000000  0.5449070000000 1.0
C      1  0.4321060000000  0.5672040000000  0.5458430000000 1.0
C      1  0.6527080000000  0.4175600000000  0.3458600000000 1.0
C      1  0.4755900000000  0.3342960000000  0.3492010000000 1.0
C      1  0.3359630000000  0.4741370000000  0.3580120000000 1.0
C      1  0.3932740000000  0.6515770000000  0.3676280000000 1.0
C      1  0.6269780000000  0.6231940000000  0.3798070000000 1.0
END
