TITL C-3036483-1610-814 1.78191869386711e-06 3375 -337.046538050028 0 0 60 (C1) n - 1
REM
REM in /home/bkarasulu/work/CARBON/AIRSS/Generating-Clusters/REBO/Higher-Symm/Only-C60
REM
REM
REM
REM
REM
REM ./C.cell (a2850807a9bf4ad07a5b6933b78d9264)
REM AIRSS Version 0.9.1 bugfix July 2018 build 013d7b7c2542+ Fri, 06 Jul 2018 19:26:36 +0100
REM compiler GCC version 9.2.1 20190827 (Red Hat 9.2.1-1)
REM options -cpp -mtune=generic -march=x86-64 -g -O0 -fpre-include=/usr/include/finclude/math-vector-fortran.h
REM seed 1913441662 -275345745 1736352189 -745297719 1360044115 -1922053881 -1381933907 1450188703 2044302755 -1564713715 -243181844 -344243819 -974966004 -1587213460 -823342929 841715172 133183807 1787333526 -1622334725 880356237 1013053548 -735146992 1197640197 246433535 1349586496 -1764648507 -1486539564 1075879806 2073569249 1894472092 -1287538926 -115348285 -715152415
REM
CELL 1.54180   15.00000   15.00000   15.00000   90.00000   90.00000   90.00000
LATT -1
SFAC C  
C      1  0.3025960000000  0.6796610000000  0.5163430000000 1.0
C      1  0.2991670000000  0.4188240000000  0.3367010000000 1.0
C      1  0.3030080000000  0.3962620000000  0.6519070000000 1.0
C      1  0.4224520000000  0.2831270000000  0.5190310000000 1.0
C      1  0.4244800000000  0.6354700000000  0.6796690000000 1.0
C      1  0.4122580000000  0.5890790000000  0.3034650000000 1.0
C      1  0.4819670000000  0.3648930000000  0.4703940000000 1.0
C      1  0.4579000000000  0.5409160000000  0.6248470000000 1.0
C      1  0.4784910000000  0.5886930000000  0.3953400000000 1.0
C      1  0.6710050000000  0.6397940000000  0.4838550000000 1.0
C      1  0.6549150000000  0.4413350000000  0.3842410000000 1.0
C      1  0.6141230000000  0.4456340000000  0.6631530000000 1.0
C      1  0.5372350000000  0.5006300000000  0.6915110000000 1.0
C      1  0.5258260000000  0.6790200000000  0.3887570000000 1.0
C      1  0.5416300000000  0.3139710000000  0.4044000000000 1.0
C      1  0.7013140000000  0.3997840000000  0.4525530000000 1.0
C      1  0.7017050000000  0.5041850000000  0.6581850000000 1.0
C      1  0.7256910000000  0.6078220000000  0.4159780000000 1.0
C      1  0.4601050000000  0.4265720000000  0.3552680000000 1.0
C      1  0.4630920000000  0.4082110000000  0.6320130000000 1.0
C      1  0.4645990000000  0.6597200000000  0.5063970000000 1.0
C      1  0.3474710000000  0.6087400000000  0.3860170000000 1.0
C      1  0.3512580000000  0.3436340000000  0.4632240000000 1.0
C      1  0.3517260000000  0.5516910000000  0.6557310000000 1.0
C      1  0.5998930000000  0.3736000000000  0.5765620000000 1.0
C      1  0.6113260000000  0.6102990000000  0.5732680000000 1.0
C      1  0.6063170000000  0.5313910000000  0.3343140000000 1.0
C      1  0.2594910000000  0.4385470000000  0.5776520000000 1.0
C      1  0.2575550000000  0.5936010000000  0.5162300000000 1.0
C      1  0.2573730000000  0.4630710000000  0.4122590000000 1.0
C      1  0.5392080000000  0.5614060000000  0.2774080000000 1.0
C      1  0.5451210000000  0.2982070000000  0.5669000000000 1.0
C      1  0.5473340000000  0.6472700000000  0.6315080000000 1.0
C      1  0.5351710000000  0.4110300000000  0.2716710000000 1.0
C      1  0.5346390000000  0.3428750000000  0.6916190000000 1.0
C      1  0.5440630000000  0.7367760000000  0.5329830000000 1.0
C      1  0.5037400000000  0.6571120000000  0.2862820000000 1.0
C      1  0.5253630000000  0.2423490000000  0.4826990000000 1.0
C      1  0.5260570000000  0.6008210000000  0.7202950000000 1.0
C      1  0.6381250000000  0.7328940000000  0.5302250000000 1.0
C      1  0.6284250000000  0.4113530000000  0.2820050000000 1.0
C      1  0.6369510000000  0.3416900000000  0.6995530000000 1.0
C      1  0.7110500000000  0.6941980000000  0.5983500000000 1.0
C      1  0.7090210000000  0.4782880000000  0.2689000000000 1.0
C      1  0.7063840000000  0.3167980000000  0.6320850000000 1.0
C      1  0.6932410000000  0.3609510000000  0.5368580000000 1.0
C      1  0.7029410000000  0.5908240000000  0.6213300000000 1.0
C      1  0.7100570000000  0.5545110000000  0.3405230000000 1.0
C      1  0.2743610000000  0.5564460000000  0.4257370000000 1.0
C      1  0.2772260000000  0.4037300000000  0.4900560000000 1.0
C      1  0.2714840000000  0.5347990000000  0.5888610000000 1.0
C      1  0.4806500000000  0.5589050000000  0.5247440000000 1.0
C      1  0.4831250000000  0.4916940000000  0.4330520000000 1.0
C      1  0.4854630000000  0.4453550000000  0.5371350000000 1.0
C      1  0.3791020000000  0.4459690000000  0.6744670000000 1.0
C      1  0.3780520000000  0.6727630000000  0.4547480000000 1.0
C      1  0.3770370000000  0.3721860000000  0.3719540000000 1.0
C      1  0.4563170000000  0.4925280000000  0.2661440000000 1.0
C      1  0.4534030000000  0.2967360000000  0.6265340000000 1.0
C      1  0.4609240000000  0.7113570000000  0.6061060000000 1.0
END
