TITL C-3036483-1610-740 0.423739264072088 3375 -333.635203934368 0 0 60 (C2v) n - 1
REM
REM in /home/bkarasulu/work/CARBON/AIRSS/Generating-Clusters/REBO/Higher-Symm/Only-C60
REM
REM
REM
REM
REM
REM ./C.cell (a2850807a9bf4ad07a5b6933b78d9264)
REM AIRSS Version 0.9.1 bugfix July 2018 build 013d7b7c2542+ Fri, 06 Jul 2018 19:26:36 +0100
REM compiler GCC version 9.2.1 20190827 (Red Hat 9.2.1-1)
REM options -cpp -mtune=generic -march=x86-64 -g -O0 -fpre-include=/usr/include/finclude/math-vector-fortran.h
REM seed 519086857 1086194429 -1153639670 -228552742 986780787 691685168 665080836 739638258 -472185789 978227252 250069480 1267214017 -1428510966 -339106933 1698920550 -1387628347 1498849107 -623641136 -570061346 -373673183 2038771405 -1650838174 -1719961310 -1173344001 666376868 -244251370 -286371242 1080483833 -859222220 1493750961 29749421 -1424245697 -1221672057
REM
CELL 1.54180   15.00000   15.00000   15.00000   90.00000   90.00000   90.00000
LATT -1
SFAC C  
C      1  0.5277580000000  0.6125030000000  0.6785930000000 1.0
C      1  0.5277580000000  0.3874970000000  0.3214070000000 1.0
C      1  0.5277580000000  0.6125030000000  0.3214070000000 1.0
C      1  0.5277580000000  0.3874970000000  0.6785930000000 1.0
C      1  0.3685490000000  0.5665120000000  0.4496220000000 1.0
C      1  0.3685490000000  0.4334880000000  0.5503780000000 1.0
C      1  0.3685490000000  0.5665120000000  0.5503780000000 1.0
C      1  0.3685490000000  0.4334880000000  0.4496220000000 1.0
C      1  0.5716440000000  0.4480910000000  0.6021090000000 1.0
C      1  0.5716440000000  0.5519090000000  0.3978910000000 1.0
C      1  0.5716440000000  0.4480910000000  0.3978910000000 1.0
C      1  0.5716440000000  0.5519090000000  0.6021090000000 1.0
C      1  0.7393810000000  0.4489670000000  0.4087620000000 1.0
C      1  0.7393810000000  0.5510330000000  0.5912380000000 1.0
C      1  0.7393810000000  0.4489670000000  0.5912380000000 1.0
C      1  0.7393810000000  0.5510330000000  0.4087620000000 1.0
C      1  0.4642450000000  0.5524660000000  0.5787330000000 1.0
C      1  0.4642450000000  0.4475340000000  0.4212670000000 1.0
C      1  0.4642450000000  0.5524660000000  0.4212670000000 1.0
C      1  0.4642450000000  0.4475340000000  0.5787330000000 1.0
C      1  0.3567070000000  0.4487410000000  0.6821220000000 1.0
C      1  0.3567070000000  0.5512590000000  0.3178780000000 1.0
C      1  0.3567070000000  0.4487410000000  0.3178780000000 1.0
C      1  0.3567070000000  0.5512590000000  0.6821220000000 1.0
C      1  0.4561360000000  0.4431440000000  0.2867750000000 1.0
C      1  0.4561360000000  0.5568560000000  0.7132250000000 1.0
C      1  0.4561360000000  0.4431440000000  0.7132250000000 1.0
C      1  0.4561360000000  0.5568560000000  0.2867750000000 1.0
C      1  0.3748810000000  0.3011350000000  0.4450510000000 1.0
C      1  0.3748810000000  0.6988650000000  0.5549490000000 1.0
C      1  0.3748810000000  0.3011350000000  0.5549490000000 1.0
C      1  0.3748810000000  0.6988650000000  0.4450510000000 1.0
C      1  0.7320950000000  0.6585910000000  0.4102880000000 1.0
C      1  0.7320950000000  0.3414090000000  0.5897120000000 1.0
C      1  0.7320950000000  0.6585910000000  0.5897120000000 1.0
C      1  0.7320950000000  0.3414090000000  0.4102880000000 1.0
C      1  0.2552740000000  0.5546620000000  0.4432120000000 1.0
C      1  0.2552740000000  0.4453380000000  0.5567890000000 1.0
C      1  0.2552740000000  0.5546620000000  0.5567890000000 1.0
C      1  0.2552740000000  0.4453380000000  0.4432120000000 1.0
C      1  0.6483990000000  0.4332160000000  0.4550690000000 1.0
C      1  0.6483980000000  0.5667830000000  0.5449310000000 1.0
C      1  0.6483980000000  0.4332170000000  0.5449310000000 1.0
C      1  0.6483990000000  0.5667840000000  0.4550690000000 1.0
C      1  0.5676720000000  0.6849230000000  0.6009580000000 1.0
C      1  0.5676720000000  0.3150770000000  0.3990420000000 1.0
C      1  0.5676720000000  0.6849230000000  0.3990420000000 1.0
C      1  0.5676720000000  0.3150770000000  0.6009580000000 1.0
C      1  0.4770400000000  0.3423890000000  0.5539660000000 1.0
C      1  0.4770400000000  0.6576110000000  0.4460340000000 1.0
C      1  0.4770400000000  0.3423890000000  0.4460340000000 1.0
C      1  0.4770400000000  0.6576110000000  0.5539660000000 1.0
C      1  0.3105740000000  0.6322290000000  0.3816020000000 1.0
C      1  0.3105740000000  0.3677710000000  0.6183980000000 1.0
C      1  0.3105740000000  0.6322290000000  0.6183980000000 1.0
C      1  0.3105740000000  0.3677710000000  0.3816020000000 1.0
C      1  0.6496450000000  0.3005450000000  0.5506830000000 1.0
C      1  0.6496450000000  0.6994550000000  0.4493170000000 1.0
C      1  0.6496450000000  0.3005450000000  0.4493170000000 1.0
C      1  0.6496450000000  0.6994550000000  0.5506830000000 1.0
END
