TITL C-3036482-790-1108 2.80117181088125e-05 3375 -342.794663369754 0 0 60 (C1) n - 1
REM
REM in /home/bkarasulu/work/CARBON/AIRSS/Generating-Clusters/REBO/Higher-Symm/Only-C60
REM
REM
REM
REM
REM
REM ./C.cell (a2850807a9bf4ad07a5b6933b78d9264)
REM AIRSS Version 0.9.1 bugfix July 2018 build 013d7b7c2542+ Fri, 06 Jul 2018 19:26:36 +0100
REM compiler GCC version 9.2.1 20190827 (Red Hat 9.2.1-1)
REM options -cpp -mtune=generic -march=x86-64 -g -O0 -fpre-include=/usr/include/finclude/math-vector-fortran.h
REM seed -1999193116 1858638964 1564032030 1767693687 2108040266 -337432276 -477101186 383658781 -1718719320 2080749162 -1430808073 113848290 1846554849 -728990076 1828289085 -336170135 793635015 -1243384450 927883369 34141846 -1754902266 1927024679 1921342184 -1835556760 -2025776585 1191146025 99687086 -429826742 -1167542378 1397924969 262670809 -1727970203 -472396982
REM
CELL 1.54180   15.00000   15.00000   15.00000   90.00000   90.00000   90.00000
LATT -1
SFAC C  
C      1  0.6174410000000  0.7188900000000  0.5978270000000 1.0
C      1  0.5667020000000  0.6737740000000  0.4367180000000 1.0
C      1  0.4853780000000  0.7127820000000  0.6630850000000 1.0
C      1  0.4661160000000  0.7161180000000  0.5664700000000 1.0
C      1  0.3794040000000  0.3350840000000  0.3642340000000 1.0
C      1  0.6840020000000  0.5215540000000  0.5733630000000 1.0
C      1  0.5297770000000  0.4491730000000  0.6505610000000 1.0
C      1  0.7050510000000  0.5387360000000  0.4673830000000 1.0
C      1  0.4899750000000  0.4983950000000  0.3204440000000 1.0
C      1  0.2604350000000  0.3599760000000  0.5172500000000 1.0
C      1  0.5375450000000  0.4407150000000  0.5441180000000 1.0
C      1  0.6641490000000  0.6269530000000  0.2352620000000 1.0
C      1  0.4752360000000  0.3037900000000  0.4099390000000 1.0
C      1  0.5937230000000  0.3513160000000  0.5868900000000 1.0
C      1  0.3900010000000  0.5601650000000  0.5056060000000 1.0
C      1  0.6469130000000  0.4686140000000  0.2913930000000 1.0
C      1  0.4994370000000  0.3664540000000  0.3184250000000 1.0
C      1  0.4071530000000  0.5685700000000  0.6809340000000 1.0
C      1  0.6524010000000  0.5707100000000  0.3014720000000 1.0
C      1  0.4324640000000  0.4339710000000  0.5043900000000 1.0
C      1  0.4884400000000  0.5889810000000  0.3169310000000 1.0
C      1  0.4897970000000  0.6213440000000  0.6958740000000 1.0
C      1  0.5531330000000  0.7194650000000  0.5235050000000 1.0
C      1  0.3051080000000  0.5187040000000  0.6728710000000 1.0
C      1  0.5756620000000  0.5843220000000  0.6903780000000 1.0
C      1  0.5431780000000  0.5652070000000  0.4390730000000 1.0
C      1  0.3853930000000  0.6684140000000  0.5299540000000 1.0
C      1  0.3046370000000  0.3590980000000  0.4342950000000 1.0
C      1  0.6196870000000  0.3754360000000  0.4341600000000 1.0
C      1  0.3914050000000  0.6634730000000  0.4182030000000 1.0
C      1  0.6793560000000  0.4169130000000  0.6157800000000 1.0
C      1  0.4533200000000  0.5473790000000  0.4385350000000 1.0
C      1  0.4343890000000  0.4390110000000  0.6866190000000 1.0
C      1  0.2831470000000  0.5329880000000  0.5455800000000 1.0
C      1  0.5438510000000  0.3197370000000  0.6777880000000 1.0
C      1  0.3290370000000  0.6121470000000  0.6107100000000 1.0
C      1  0.3104290000000  0.3334730000000  0.6047590000000 1.0
C      1  0.2787840000000  0.5136530000000  0.4494590000000 1.0
C      1  0.5995670000000  0.5074400000000  0.5015550000000 1.0
C      1  0.6457750000000  0.5077230000000  0.6777450000000 1.0
C      1  0.4082230000000  0.4955630000000  0.5938780000000 1.0
C      1  0.7350670000000  0.4290660000000  0.3279780000000 1.0
C      1  0.4051990000000  0.4249080000000  0.3045260000000 1.0
C      1  0.4505350000000  0.3393450000000  0.6781100000000 1.0
C      1  0.3597400000000  0.5188270000000  0.3448490000000 1.0
C      1  0.4475980000000  0.3289160000000  0.5168430000000 1.0
C      1  0.4779310000000  0.6632840000000  0.3775070000000 1.0
C      1  0.7126970000000  0.3747720000000  0.4184570000000 1.0
C      1  0.7623060000000  0.4698880000000  0.4234000000000 1.0
C      1  0.5751630000000  0.3930960000000  0.2456460000000 1.0
C      1  0.4000020000000  0.3074680000000  0.6034320000000 1.0
C      1  0.5713740000000  0.7650230000000  0.6757740000000 1.0
C      1  0.3645550000000  0.4488340000000  0.4290570000000 1.0
C      1  0.5546250000000  0.3199750000000  0.4902510000000 1.0
C      1  0.2707740000000  0.4394370000000  0.5994970000000 1.0
C      1  0.6421760000000  0.5971040000000  0.3997470000000 1.0
C      1  0.6134970000000  0.4030710000000  0.7076380000000 1.0
C      1  0.3365030000000  0.6030330000000  0.3686590000000 1.0
C      1  0.5715300000000  0.4377930000000  0.3691020000000 1.0
C      1  0.6431050000000  0.6299470000000  0.6261110000000 1.0
END
