TITL C-3036483-1610-1024 -0.240177950742929 3375 -323.624877331933 0 0 60 (C1) n - 1
REM
REM in /home/bkarasulu/work/CARBON/AIRSS/Generating-Clusters/REBO/Higher-Symm/Only-C60
REM
REM
REM
REM
REM
REM ./C.cell (a2850807a9bf4ad07a5b6933b78d9264)
REM AIRSS Version 0.9.1 bugfix July 2018 build 013d7b7c2542+ Fri, 06 Jul 2018 19:26:36 +0100
REM compiler GCC version 9.2.1 20190827 (Red Hat 9.2.1-1)
REM options -cpp -mtune=generic -march=x86-64 -g -O0 -fpre-include=/usr/include/finclude/math-vector-fortran.h
REM seed 1057485582 958573755 1684503478 547184625 -207140592 802444916 -594317852 -522457166 -402017071 1125278541 -1752698441 -628166831 -767682014 1227650700 1541360772 -1287475258 -436663982 -1796866065 -1136381549 -2103383222 -1617298028 -1188552325 -23773243 936411692 108869682 1225332421 -318041523 -1563807883 -1987257866 700870009 617482455 -1524858359 -2095277721
REM
CELL 1.54180   15.00000   15.00000   15.00000   90.00000   90.00000   90.00000
LATT -1
SFAC C  
C      1  0.4895680000000  0.3639540000000  0.2947950000000 1.0
C      1  0.6198710000000  0.3709840000000  0.3470230000000 1.0
C      1  0.6917550000000  0.3637780000000  0.4307940000000 1.0
C      1  0.6996150000000  0.3656690000000  0.5631750000000 1.0
C      1  0.6096880000000  0.3687780000000  0.6623480000000 1.0
C      1  0.5079630000000  0.3633970000000  0.7067450000000 1.0
C      1  0.3790180000000  0.3710050000000  0.6509510000000 1.0
C      1  0.3089470000000  0.3642240000000  0.5646130000000 1.0
C      1  0.3064780000000  0.3637230000000  0.4375220000000 1.0
C      1  0.3875780000000  0.3680230000000  0.3402390000000 1.0
C      1  0.3448310000000  0.7245330000000  0.5273410000000 1.0
C      1  0.3575260000000  0.7320010000000  0.4318410000000 1.0
C      1  0.4269400000000  0.7275030000000  0.3610450000000 1.0
C      1  0.5214310000000  0.7335580000000  0.3429060000000 1.0
C      1  0.6089310000000  0.7258430000000  0.3889890000000 1.0
C      1  0.6545520000000  0.7221640000000  0.4767750000000 1.0
C      1  0.6369000000000  0.7468480000000  0.5636590000000 1.0
C      1  0.5763610000000  0.7236740000000  0.6349180000000 1.0
C      1  0.4817360000000  0.7326100000000  0.6568900000000 1.0
C      1  0.3926240000000  0.7265730000000  0.6134970000000 1.0
C      1  0.6353860000000  0.5460420000000  0.2895720000000 1.0
C      1  0.7351720000000  0.5438620000000  0.4081950000000 1.0
C      1  0.7438400000000  0.5435970000000  0.5706960000000 1.0
C      1  0.6591960000000  0.5461130000000  0.6906780000000 1.0
C      1  0.5139100000000  0.5429940000000  0.7475980000000 1.0
C      1  0.3648840000000  0.5459650000000  0.7105280000000 1.0
C      1  0.2645190000000  0.5436740000000  0.5922140000000 1.0
C      1  0.2610930000000  0.5419570000000  0.4310890000000 1.0
C      1  0.3395600000000  0.5460520000000  0.3089280000000 1.0
C      1  0.4875480000000  0.5435270000000  0.2527070000000 1.0
C      1  0.6617080000000  0.6168440000000  0.4426050000000 1.0
C      1  0.6702520000000  0.6066460000000  0.5491990000000 1.0
C      1  0.6100850000000  0.6234590000000  0.6326430000000 1.0
C      1  0.5105790000000  0.6165220000000  0.6810320000000 1.0
C      1  0.4083920000000  0.6229650000000  0.6482790000000 1.0
C      1  0.3364110000000  0.6182040000000  0.5613080000000 1.0
C      1  0.3253270000000  0.6167400000000  0.4511700000000 1.0
C      1  0.3904230000000  0.6242400000000  0.3640340000000 1.0
C      1  0.4904730000000  0.6185680000000  0.3182100000000 1.0
C      1  0.5926640000000  0.6227060000000  0.3528150000000 1.0
C      1  0.5939600000000  0.4709060000000  0.3458810000000 1.0
C      1  0.6667060000000  0.4697110000000  0.4334780000000 1.0
C      1  0.6732940000000  0.4619030000000  0.5438820000000 1.0
C      1  0.6160140000000  0.4704310000000  0.6382170000000 1.0
C      1  0.5106680000000  0.4657270000000  0.6812110000000 1.0
C      1  0.4061290000000  0.4707410000000  0.6542430000000 1.0
C      1  0.3332890000000  0.4706030000000  0.5668350000000 1.0
C      1  0.3247770000000  0.4631490000000  0.4564380000000 1.0
C      1  0.3846760000000  0.4720160000000  0.3621680000000 1.0
C      1  0.4896630000000  0.4662420000000  0.3186440000000 1.0
C      1  0.3591910000000  0.2686760000000  0.6043320000000 1.0
C      1  0.3219660000000  0.2724400000000  0.5004770000000 1.0
C      1  0.3557220000000  0.2719460000000  0.3964250000000 1.0
C      1  0.4449400000000  0.2672940000000  0.3344070000000 1.0
C      1  0.5548490000000  0.2799720000000  0.3284440000000 1.0
C      1  0.6400600000000  0.2685870000000  0.3951190000000 1.0
C      1  0.6779100000000  0.2749250000000  0.4990570000000 1.0
C      1  0.6440290000000  0.2772370000000  0.6042710000000 1.0
C      1  0.5544130000000  0.2679680000000  0.6657660000000 1.0
C      1  0.4440100000000  0.2800070000000  0.6711390000000 1.0
END
