TITL C-3036480-97-1102 0.085781842707362 3375 -348.052856973082 0 0 60 (C1) n - 1
REM
REM in /home/bkarasulu/work/CARBON/AIRSS/Generating-Clusters/REBO/Higher-Symm/Only-C60
REM
REM
REM
REM
REM
REM ./C.cell (a2850807a9bf4ad07a5b6933b78d9264)
REM AIRSS Version 0.9.1 bugfix July 2018 build 013d7b7c2542+ Fri, 06 Jul 2018 19:26:36 +0100
REM compiler GCC version 9.2.1 20190827 (Red Hat 9.2.1-1)
REM options -cpp -mtune=generic -march=x86-64 -g -O0 -fpre-include=/usr/include/finclude/math-vector-fortran.h
REM seed -849264313 1462226670 -1201265387 -655283466 -1902584627 -146602320 2123728313 -472418294 -221406143 -978156055 -1839482593 1764968329 2128199654 1021277932 -431424786 -1531678100 -510805932 37465957 -1528821582 -813940483 460178979 -162523035 -2076725051 -940878941 -1930231623 673340283 -1285566392 1404333801 -1503209867 -1619929152 -600328914 -1355908932 -2099473411
REM
CELL 1.54180   15.00000   15.00000   15.00000   90.00000   90.00000   90.00000
LATT -1
SFAC C  
C      1  0.4105420000000  0.6646790000000  0.2897110000000 1.0
C      1  0.5964870000000  0.3501920000000  0.3064820000000 1.0
C      1  0.4068400000000  0.3426550000000  0.7013160000000 1.0
C      1  0.5945100000000  0.6600350000000  0.7016800000000 1.0
C      1  0.6756320000000  0.4254240000000  0.2985600000000 1.0
C      1  0.3351830000000  0.5861850000000  0.3003810000000 1.0
C      1  0.3303190000000  0.4203010000000  0.7017330000000 1.0
C      1  0.6722730000000  0.5831240000000  0.6986120000000 1.0
C      1  0.3281390000000  0.4606570000000  0.4277830000000 1.0
C      1  0.6452860000000  0.5328010000000  0.4233760000000 1.0
C      1  0.3348930000000  0.5363900000000  0.5701620000000 1.0
C      1  0.6609770000000  0.4641870000000  0.5676780000000 1.0
C      1  0.4661900000000  0.3217980000000  0.4261450000000 1.0
C      1  0.5184150000000  0.6612530000000  0.4181040000000 1.0
C      1  0.5262900000000  0.3237260000000  0.5749430000000 1.0
C      1  0.4767350000000  0.6744500000000  0.5721330000000 1.0
C      1  0.6428950000000  0.2871070000000  0.3793410000000 1.0
C      1  0.3441330000000  0.7056990000000  0.3569390000000 1.0
C      1  0.6670030000000  0.7032600000000  0.6428970000000 1.0
C      1  0.3585040000000  0.2744910000000  0.6343390000000 1.0
C      1  0.2723230000000  0.6353460000000  0.3716130000000 1.0
C      1  0.7137200000000  0.3590320000000  0.3676110000000 1.0
C      1  0.7415300000000  0.6347120000000  0.6354590000000 1.0
C      1  0.2898890000000  0.3492340000000  0.6393140000000 1.0
C      1  0.5101630000000  0.3723820000000  0.2730970000000 1.0
C      1  0.4984980000000  0.6422050000000  0.2610580000000 1.0
C      1  0.5073850000000  0.6361090000000  0.7302530000000 1.0
C      1  0.4941900000000  0.3673270000000  0.7309630000000 1.0
C      1  0.3599700000000  0.4996310000000  0.2692130000000 1.0
C      1  0.6515140000000  0.5117180000000  0.2659850000000 1.0
C      1  0.6455350000000  0.4964180000000  0.7288160000000 1.0
C      1  0.3563240000000  0.5067190000000  0.7306550000000 1.0
C      1  0.4361130000000  0.6425790000000  0.6640780000000 1.0
C      1  0.5657930000000  0.3589250000000  0.6656810000000 1.0
C      1  0.4344180000000  0.3602910000000  0.3330880000000 1.0
C      1  0.5662390000000  0.6471860000000  0.3314610000000 1.0
C      1  0.6375690000000  0.4269800000000  0.6616110000000 1.0
C      1  0.3645110000000  0.5743490000000  0.6616800000000 1.0
C      1  0.3613910000000  0.4276740000000  0.3343540000000 1.0
C      1  0.6399120000000  0.5788850000000  0.3358760000000 1.0
C      1  0.4202850000000  0.5069120000000  0.8013530000000 1.0
C      1  0.5816910000000  0.4971680000000  0.7997040000000 1.0
C      1  0.4246540000000  0.4997090000000  0.1991730000000 1.0
C      1  0.5863840000000  0.5095210000000  0.1962850000000 1.0
C      1  0.4984220000000  0.4357450000000  0.7974880000000 1.0
C      1  0.5034520000000  0.5682950000000  0.7974120000000 1.0
C      1  0.5078140000000  0.4389530000000  0.2046920000000 1.0
C      1  0.5029850000000  0.5712750000000  0.1969400000000 1.0
C      1  0.4241390000000  0.4901940000000  0.4334930000000 1.0
C      1  0.5561040000000  0.5002420000000  0.4401550000000 1.0
C      1  0.4313980000000  0.5043240000000  0.5701430000000 1.0
C      1  0.5633390000000  0.4929460000000  0.5729200000000 1.0
C      1  0.4967050000000  0.4173730000000  0.4357170000000 1.0
C      1  0.4833090000000  0.5736880000000  0.4387500000000 1.0
C      1  0.4910450000000  0.4189630000000  0.5734380000000 1.0
C      1  0.5062010000000  0.5772610000000  0.5718870000000 1.0
C      1  0.4974900000000  0.2722310000000  0.5008110000000 1.0
C      1  0.5007240000000  0.7191650000000  0.4917770000000 1.0
C      1  0.2816230000000  0.4978600000000  0.5017820000000 1.0
C      1  0.7040070000000  0.5020560000000  0.4918980000000 1.0
END
