TITL C-3036481-494-704 5.32669980597715e-06 3375 -363.584901720789 0 0 60 (C4h) n - 1
REM
REM in /home/bkarasulu/work/CARBON/AIRSS/Generating-Clusters/REBO/Higher-Symm/Only-C60
REM
REM
REM
REM
REM
REM ./C.cell (a2850807a9bf4ad07a5b6933b78d9264)
REM AIRSS Version 0.9.1 bugfix July 2018 build 013d7b7c2542+ Fri, 06 Jul 2018 19:26:36 +0100
REM compiler GCC version 9.2.1 20190827 (Red Hat 9.2.1-1)
REM options -cpp -mtune=generic -march=x86-64 -g -O0 -fpre-include=/usr/include/finclude/math-vector-fortran.h
REM seed 1802993708 -911285250 -1432532307 -999381871 1452658653 1549881920 -1095959320 -1036632098 -1997909976 -2120940544 -575614694 400225688 291058385 -927644567 598022701 273913571 -876482902 -542257409 -1235575628 2035905383 -964439038 -1937870502 -378324049 561304832 -396495549 -340580688 -1844088898 1755470003 452975626 -561135654 -2005304513 703819445 -666256548
REM
CELL 1.54180   15.00000   15.00000   15.00000   90.00000   90.00000   90.00000
LATT -1
SFAC C  
C      1  0.3432630000000  0.3547030000000  0.3540170000000 1.0
C      1  0.6459830000000  0.3547030000000  0.3432630000000 1.0
C      1  0.6567370000000  0.3547030000000  0.6459830000000 1.0
C      1  0.3540170000000  0.3547030000000  0.6567370000000 1.0
C      1  0.3432630000000  0.6510500000000  0.3540180000000 1.0
C      1  0.6459820000000  0.6510500000000  0.3432630000000 1.0
C      1  0.6567370000000  0.6510500000000  0.6459820000000 1.0
C      1  0.3540180000000  0.6510500000000  0.6567370000000 1.0
C      1  0.7843290000000  0.5485260000000  0.5295680000000 1.0
C      1  0.4704320000000  0.5485260000000  0.7843290000000 1.0
C      1  0.2156710000000  0.5485260000000  0.4704320000000 1.0
C      1  0.5295680000000  0.5485260000000  0.2156710000000 1.0
C      1  0.7843290000000  0.4572270000000  0.5295680000000 1.0
C      1  0.4704320000000  0.4572270000000  0.7843290000000 1.0
C      1  0.2156710000000  0.4572270000000  0.4704320000000 1.0
C      1  0.5295680000000  0.4572270000000  0.2156710000000 1.0
C      1  0.5057450000000  0.3296950000000  0.4205240000000 1.0
C      1  0.5794760000000  0.3296950000000  0.5057450000000 1.0
C      1  0.4942550000000  0.3296950000000  0.5794760000000 1.0
C      1  0.4205240000000  0.3296950000000  0.4942550000000 1.0
C      1  0.5057450000000  0.6760580000000  0.4205240000000 1.0
C      1  0.5794760000000  0.6760580000000  0.5057450000000 1.0
C      1  0.4942550000000  0.6760580000000  0.5794760000000 1.0
C      1  0.4205240000000  0.6760580000000  0.4942550000000 1.0
C      1  0.3120910000000  0.5957000000000  0.5914770000000 1.0
C      1  0.4085230000000  0.5957000000000  0.3120910000000 1.0
C      1  0.6879090000000  0.5957000000000  0.4085230000000 1.0
C      1  0.5914770000000  0.5957000000000  0.6879090000000 1.0
C      1  0.3120910000000  0.4100520000000  0.5914760000000 1.0
C      1  0.4085240000000  0.4100520000000  0.3120910000000 1.0
C      1  0.6879090000000  0.4100520000000  0.4085240000000 1.0
C      1  0.5914760000000  0.4100520000000  0.6879090000000 1.0
C      1  0.2715860000000  0.3887660000000  0.5054240000000 1.0
C      1  0.4945760000000  0.3887660000000  0.2715860000000 1.0
C      1  0.7284140000000  0.3887660000000  0.4945760000000 1.0
C      1  0.5054240000000  0.3887660000000  0.7284140000000 1.0
C      1  0.2715860000000  0.6169860000000  0.5054240000000 1.0
C      1  0.4945760000000  0.6169860000000  0.2715860000000 1.0
C      1  0.7284140000000  0.6169860000000  0.4945760000000 1.0
C      1  0.5054240000000  0.6169860000000  0.7284140000000 1.0
C      1  0.4295700000000  0.4363590000000  0.5345740000000 1.0
C      1  0.4654260000000  0.4363590000000  0.4295700000000 1.0
C      1  0.5704300000000  0.4363590000000  0.4654260000000 1.0
C      1  0.5345740000000  0.4363590000000  0.5704300000000 1.0
C      1  0.4295700000000  0.5693930000000  0.5345740000000 1.0
C      1  0.4654260000000  0.5693930000000  0.4295700000000 1.0
C      1  0.5704300000000  0.5693930000000  0.4654260000000 1.0
C      1  0.5345740000000  0.5693930000000  0.5704300000000 1.0
C      1  0.4475870000000  0.3410520000000  0.6688220000000 1.0
C      1  0.3311780000000  0.3410520000000  0.4475870000000 1.0
C      1  0.5524130000000  0.3410520000000  0.3311780000000 1.0
C      1  0.6688220000000  0.3410520000000  0.5524130000000 1.0
C      1  0.4475880000000  0.6647010000000  0.6688220000000 1.0
C      1  0.3311780000000  0.6647010000000  0.4475880000000 1.0
C      1  0.5524120000000  0.6647010000000  0.3311780000000 1.0
C      1  0.6688220000000  0.6647010000000  0.5524120000000 1.0
C      1  0.3602070000000  0.5028760000000  0.5822330000000 1.0
C      1  0.4177670000000  0.5028760000000  0.3602070000000 1.0
C      1  0.5822330000000  0.5028760000000  0.6397930000000 1.0
C      1  0.6397930000000  0.5028760000000  0.4177670000000 1.0
END
