TITL C-3036483-1610-918 5.241712111631e-06 3375 -337.040597319667 0 0 60 (C2) n - 1
REM
REM in /home/bkarasulu/work/CARBON/AIRSS/Generating-Clusters/REBO/Higher-Symm/Only-C60
REM
REM
REM
REM
REM
REM ./C.cell (a2850807a9bf4ad07a5b6933b78d9264)
REM AIRSS Version 0.9.1 bugfix July 2018 build 013d7b7c2542+ Fri, 06 Jul 2018 19:26:36 +0100
REM compiler GCC version 9.2.1 20190827 (Red Hat 9.2.1-1)
REM options -cpp -mtune=generic -march=x86-64 -g -O0 -fpre-include=/usr/include/finclude/math-vector-fortran.h
REM seed 784615989 277170171 -1358589462 1473452108 -1991650821 185134959 -1295775925 20809734 12639320 -1097124655 -1691014681 1459977113 -1398720820 1970892755 1865687435 1251446913 1454815921 -2136619506 -578555265 1263370607 -2033388330 2042758446 -1513924390 1351218155 2080382565 -1010782350 -1945361202 702890093 368230790 1207875373 -1728339381 -1204554542 -1415444331
REM
CELL 1.54180   15.00000   15.00000   15.00000   90.00000   90.00000   90.00000
LATT -1
SFAC C  
C      1  0.2920090000000  0.5784260000000  0.5623100000000 1.0
C      1  0.7079910000000  0.4215740000000  0.5623110000000 1.0
C      1  0.7213900000000  0.5821610000000  0.4232670000000 1.0
C      1  0.2786110000000  0.4178390000000  0.4232660000000 1.0
C      1  0.5773220000000  0.3060200000000  0.5707270000000 1.0
C      1  0.4226780000000  0.6939800000000  0.5707280000000 1.0
C      1  0.5828490000000  0.7279370000000  0.4326690000000 1.0
C      1  0.4171510000000  0.2720640000000  0.4326690000000 1.0
C      1  0.2563100000000  0.5249280000000  0.4460730000000 1.0
C      1  0.7436900000000  0.4750720000000  0.4460730000000 1.0
C      1  0.7316090000000  0.5300340000000  0.5455450000000 1.0
C      1  0.2683910000000  0.4699660000000  0.5455450000000 1.0
C      1  0.5250440000000  0.2582970000000  0.4587760000000 1.0
C      1  0.4749560000000  0.7417030000000  0.4587760000000 1.0
C      1  0.5291900000000  0.7301900000000  0.5588320000000 1.0
C      1  0.4708100000000  0.2698100000000  0.5588310000000 1.0
C      1  0.6515590000000  0.5882630000000  0.3388290000000 1.0
C      1  0.3484420000000  0.4117370000000  0.3388280000000 1.0
C      1  0.3231770000000  0.5915330000000  0.6603490000000 1.0
C      1  0.6768220000000  0.4084670000000  0.6603500000000 1.0
C      1  0.5902470000000  0.6759930000000  0.3392500000000 1.0
C      1  0.4097530000000  0.3240070000000  0.3392490000000 1.0
C      1  0.5902030000000  0.3468970000000  0.6654340000000 1.0
C      1  0.4097970000000  0.6531030000000  0.6654340000000 1.0
C      1  0.6238130000000  0.5430880000000  0.4689910000000 1.0
C      1  0.3761870000000  0.4569120000000  0.4689900000000 1.0
C      1  0.3779050000000  0.5531910000000  0.4916350000000 1.0
C      1  0.6220950000000  0.4468090000000  0.4916350000000 1.0
C      1  0.5608010000000  0.6267680000000  0.4816880000000 1.0
C      1  0.4391990000000  0.3732320000000  0.4816880000000 1.0
C      1  0.5343910000000  0.3843650000000  0.5002350000000 1.0
C      1  0.4656090000000  0.6156350000000  0.5002360000000 1.0
C      1  0.7064480000000  0.3718300000000  0.4626740000000 1.0
C      1  0.2935520000000  0.6281700000000  0.4626740000000 1.0
C      1  0.3115630000000  0.3738080000000  0.5192820000000 1.0
C      1  0.6884370000000  0.6261920000000  0.5192830000000 1.0
C      1  0.3784810000000  0.6842600000000  0.4677250000000 1.0
C      1  0.6215190000000  0.3157400000000  0.4677250000000 1.0
C      1  0.3687900000000  0.2920680000000  0.5284230000000 1.0
C      1  0.6312100000000  0.7079320000000  0.5284240000000 1.0
C      1  0.6689510000000  0.4770900000000  0.3623550000000 1.0
C      1  0.3310500000000  0.5229100000000  0.3623550000000 1.0
C      1  0.3240380000000  0.4782290000000  0.6429330000000 1.0
C      1  0.6759620000000  0.5217710000000  0.6429340000000 1.0
C      1  0.4791130000000  0.6783400000000  0.3668740000000 1.0
C      1  0.5208870000000  0.3216610000000  0.3668740000000 1.0
C      1  0.4764090000000  0.3318100000000  0.6519500000000 1.0
C      1  0.5235900000000  0.6681890000000  0.6519500000000 1.0
C      1  0.4017740000000  0.5283390000000  0.7106000000000 1.0
C      1  0.5982260000000  0.4716610000000  0.7106000000000 1.0
C      1  0.5829910000000  0.5094370000000  0.2946190000000 1.0
C      1  0.4170100000000  0.4905630000000  0.2946190000000 1.0
C      1  0.5161580000000  0.4097850000000  0.7242610000000 1.0
C      1  0.4838410000000  0.5902150000000  0.7242610000000 1.0
C      1  0.5230000000000  0.5921910000000  0.3050280000000 1.0
C      1  0.4770010000000  0.4078090000000  0.3050280000000 1.0
C      1  0.4136760000000  0.4212570000000  0.6826180000000 1.0
C      1  0.4147420000000  0.5935600000000  0.3360480000000 1.0
C      1  0.5852590000000  0.4064400000000  0.3360480000000 1.0
C      1  0.5863230000000  0.5787430000000  0.6826190000000 1.0
END
