TITL C-3036486-2224-984 -0.0932355828819304 3375 -337.345873050422 0 0 60 (C1) n - 1
REM
REM in /home/bkarasulu/work/CARBON/AIRSS/Generating-Clusters/REBO/Higher-Symm/Only-C60
REM
REM
REM
REM
REM
REM ./C.cell (a2850807a9bf4ad07a5b6933b78d9264)
REM AIRSS Version 0.9.1 bugfix July 2018 build 013d7b7c2542+ Fri, 06 Jul 2018 19:26:36 +0100
REM compiler GCC version 9.2.1 20190827 (Red Hat 9.2.1-1)
REM options -cpp -mtune=generic -march=x86-64 -g -O0 -fpre-include=/usr/include/finclude/math-vector-fortran.h
REM seed 1745142578 -608272327 -1756464767 2126657012 -286822047 -285299083 2092720114 -1270763454 -1265824296 1209444936 1250171785 2059872683 -1874655657 -1388106753 -415175301 -404590702 -1851720376 117329638 -2053576922 -815340919 -35820638 1901072755 411832121 -2008300880 -1365468818 1033601780 -226453300 653318688 266300016 -881576948 -1892419807 -807413459 871830334
REM
CELL 1.54180   15.00000   15.00000   15.00000   90.00000   90.00000   90.00000
LATT -1
SFAC C  
C      1  0.4470010000000  0.6180460000000  0.3891350000000 1.0
C      1  0.4472990000000  0.3105850000000  0.4785090000000 1.0
C      1  0.4443680000000  0.5584770000000  0.6725820000000 1.0
C      1  0.5543730000000  0.6174840000000  0.3847750000000 1.0
C      1  0.5490760000000  0.3156620000000  0.4764500000000 1.0
C      1  0.5487600000000  0.5566970000000  0.6719400000000 1.0
C      1  0.4481260000000  0.3810060000000  0.3888740000000 1.0
C      1  0.4478580000000  0.6882240000000  0.4786780000000 1.0
C      1  0.4505230000000  0.4442290000000  0.6718140000000 1.0
C      1  0.5555060000000  0.3842790000000  0.3866270000000 1.0
C      1  0.5497500000000  0.6874530000000  0.4743980000000 1.0
C      1  0.5559870000000  0.4426220000000  0.6713560000000 1.0
C      1  0.7396610000000  0.4113120000000  0.3795240000000 1.0
C      1  0.7376920000000  0.4459570000000  0.6239480000000 1.0
C      1  0.7236290000000  0.6342360000000  0.4686280000000 1.0
C      1  0.2620560000000  0.4109050000000  0.3799410000000 1.0
C      1  0.2732310000000  0.4541160000000  0.6252920000000 1.0
C      1  0.2760290000000  0.6343220000000  0.4679070000000 1.0
C      1  0.7393700000000  0.5893990000000  0.3795610000000 1.0
C      1  0.7232830000000  0.5433060000000  0.6244490000000 1.0
C      1  0.7239210000000  0.3646670000000  0.4674290000000 1.0
C      1  0.2617350000000  0.5883280000000  0.3796590000000 1.0
C      1  0.2646740000000  0.5516420000000  0.6246350000000 1.0
C      1  0.2762340000000  0.3661930000000  0.4690210000000 1.0
C      1  0.7033540000000  0.3032520000000  0.5482810000000 1.0
C      1  0.7013880000000  0.6441100000000  0.6350090000000 1.0
C      1  0.6951550000000  0.5496130000000  0.2940580000000 1.0
C      1  0.2947670000000  0.3053710000000  0.5511320000000 1.0
C      1  0.2944610000000  0.6483750000000  0.6346370000000 1.0
C      1  0.3073930000000  0.5488040000000  0.2950260000000 1.0
C      1  0.7037660000000  0.6941060000000  0.5507420000000 1.0
C      1  0.7049740000000  0.3503920000000  0.6338440000000 1.0
C      1  0.6950790000000  0.4511330000000  0.2944210000000 1.0
C      1  0.2945470000000  0.6960300000000  0.5493230000000 1.0
C      1  0.2973930000000  0.3546600000000  0.6356820000000 1.0
C      1  0.3075930000000  0.4502320000000  0.2950680000000 1.0
C      1  0.3783700000000  0.6458390000000  0.6839630000000 1.0
C      1  0.3951980000000  0.5917840000000  0.2940240000000 1.0
C      1  0.3737470000000  0.2537160000000  0.5303740000000 1.0
C      1  0.6176720000000  0.6433780000000  0.6856390000000 1.0
C      1  0.6068520000000  0.5914720000000  0.2915360000000 1.0
C      1  0.6218870000000  0.2559400000000  0.5281670000000 1.0
C      1  0.3819800000000  0.3560550000000  0.6855020000000 1.0
C      1  0.3956430000000  0.4075190000000  0.2939590000000 1.0
C      1  0.3745720000000  0.7460610000000  0.5296950000000 1.0
C      1  0.6212270000000  0.3550420000000  0.6828320000000 1.0
C      1  0.6068630000000  0.4093330000000  0.2925250000000 1.0
C      1  0.6235560000000  0.7438940000000  0.5290740000000 1.0
C      1  0.3811160000000  0.4454150000000  0.5861750000000 1.0
C      1  0.3813320000000  0.6056470000000  0.5043130000000 1.0
C      1  0.3633580000000  0.4511630000000  0.4156020000000 1.0
C      1  0.6280630000000  0.4482280000000  0.5875660000000 1.0
C      1  0.6165580000000  0.6062590000000  0.5017280000000 1.0
C      1  0.6388180000000  0.4520250000000  0.4147220000000 1.0
C      1  0.3747840000000  0.5536180000000  0.5875970000000 1.0
C      1  0.3824130000000  0.3936680000000  0.5038840000000 1.0
C      1  0.3628850000000  0.5482410000000  0.4157460000000 1.0
C      1  0.6158850000000  0.5559770000000  0.5852240000000 1.0
C      1  0.6192150000000  0.3957120000000  0.5038820000000 1.0
C      1  0.6379930000000  0.5487870000000  0.4139150000000 1.0
END
