TITL C-3036486-2224-878 0.0275755247163462 3375 -347.071576661127 0 0 60 (C1) n - 1
REM
REM in /home/bkarasulu/work/CARBON/AIRSS/Generating-Clusters/REBO/Higher-Symm/Only-C60
REM
REM
REM
REM
REM
REM ./C.cell (a2850807a9bf4ad07a5b6933b78d9264)
REM AIRSS Version 0.9.1 bugfix July 2018 build 013d7b7c2542+ Fri, 06 Jul 2018 19:26:36 +0100
REM compiler GCC version 9.2.1 20190827 (Red Hat 9.2.1-1)
REM options -cpp -mtune=generic -march=x86-64 -g -O0 -fpre-include=/usr/include/finclude/math-vector-fortran.h
REM seed -1300861145 -505376662 -1783224312 850858841 1616503915 1896586859 -1446208656 -719468689 1042305707 -1347300091 -1806245229 -399382993 1487276401 1263740082 16385645 1172809255 -1545215437 2084779907 1784440051 -984010960 1051538435 -535809487 646271232 -790058791 -794817142 277052652 1794458976 -271820704 1193300005 -173577914 791455706 -278835190 1636599824
REM
CELL 1.54180   15.00000   15.00000   15.00000   90.00000   90.00000   90.00000
LATT -1
SFAC C  
C      1  0.2502100000000  0.4085170000000  0.5771660000000 1.0
C      1  0.4062460000000  0.5822630000000  0.2903210000000 1.0
C      1  0.5569020000000  0.2590710000000  0.4304320000000 1.0
C      1  0.7210720000000  0.5830070000000  0.5923790000000 1.0
C      1  0.2684950000000  0.5932880000000  0.4170560000000 1.0
C      1  0.7467750000000  0.4086920000000  0.4128030000000 1.0
C      1  0.6202620000000  0.4105200000000  0.2819780000000 1.0
C      1  0.4190070000000  0.4035430000000  0.7345980000000 1.0
C      1  0.5899890000000  0.5919890000000  0.7022960000000 1.0
C      1  0.4123120000000  0.7554680000000  0.4105260000000 1.0
C      1  0.5808870000000  0.7515820000000  0.5880300000000 1.0
C      1  0.4257360000000  0.2929330000000  0.5651100000000 1.0
C      1  0.2315640000000  0.4186810000000  0.4184460000000 1.0
C      1  0.4128720000000  0.5676500000000  0.6990260000000 1.0
C      1  0.5766820000000  0.2589160000000  0.6080030000000 1.0
C      1  0.7037820000000  0.5814880000000  0.4347310000000 1.0
C      1  0.2838300000000  0.5819160000000  0.5762060000000 1.0
C      1  0.7597850000000  0.4163890000000  0.5746400000000 1.0
C      1  0.6286900000000  0.4331560000000  0.7229330000000 1.0
C      1  0.4382720000000  0.4226100000000  0.2704020000000 1.0
C      1  0.5805880000000  0.5707690000000  0.2973330000000 1.0
C      1  0.4224220000000  0.7499820000000  0.5943950000000 1.0
C      1  0.5708300000000  0.7521890000000  0.4042330000000 1.0
C      1  0.3989040000000  0.2746060000000  0.3861810000000 1.0
C      1  0.3205370000000  0.4444980000000  0.3994560000000 1.0
C      1  0.4651470000000  0.3830100000000  0.3473410000000 1.0
C      1  0.3911130000000  0.3763570000000  0.4231470000000 1.0
C      1  0.6315670000000  0.5306050000000  0.4134550000000 1.0
C      1  0.3597860000000  0.5254450000000  0.5847880000000 1.0
C      1  0.6685870000000  0.4345060000000  0.5949600000000 1.0
C      1  0.5391360000000  0.5865930000000  0.3965510000000 1.0
C      1  0.4511880000000  0.5838590000000  0.5980310000000 1.0
C      1  0.5762220000000  0.3758390000000  0.6710690000000 1.0
C      1  0.5759730000000  0.6692260000000  0.4495110000000 1.0
C      1  0.4160100000000  0.6683540000000  0.5467440000000 1.0
C      1  0.6065620000000  0.3544110000000  0.5674970000000 1.0
C      1  0.3424430000000  0.4337640000000  0.5732840000000 1.0
C      1  0.4892000000000  0.3582220000000  0.6998510000000 1.0
C      1  0.3972780000000  0.3718140000000  0.5248890000000 1.0
C      1  0.6455030000000  0.5242790000000  0.6023030000000 1.0
C      1  0.3409200000000  0.5351090000000  0.3959220000000 1.0
C      1  0.6457730000000  0.4315600000000  0.4108220000000 1.0
C      1  0.5537050000000  0.5871450000000  0.5991930000000 1.0
C      1  0.4365340000000  0.5903610000000  0.3948300000000 1.0
C      1  0.5614280000000  0.3743060000000  0.3640200000000 1.0
C      1  0.5820000000000  0.6686090000000  0.5421250000000 1.0
C      1  0.4093090000000  0.6712730000000  0.4538830000000 1.0
C      1  0.5947660000000  0.3516900000000  0.4700620000000 1.0
C      1  0.4783240000000  0.2313810000000  0.3960720000000 1.0
C      1  0.4915920000000  0.7950100000000  0.3855530000000 1.0
C      1  0.4881590000000  0.2386370000000  0.6016120000000 1.0
C      1  0.5021260000000  0.7913640000000  0.6143000000000 1.0
C      1  0.7485480000000  0.6093830000000  0.5088940000000 1.0
C      1  0.6286460000000  0.5213310000000  0.7436270000000 1.0
C      1  0.1976710000000  0.4014310000000  0.5020350000000 1.0
C      1  0.7940110000000  0.4039680000000  0.4905360000000 1.0
C      1  0.2416250000000  0.6142580000000  0.5020100000000 1.0
C      1  0.3935610000000  0.4901250000000  0.7404800000000 1.0
C      1  0.6173290000000  0.4981570000000  0.2585950000000 1.0
C      1  0.4116060000000  0.5048980000000  0.2433290000000 1.0
END
