TITL C-3036485-3770-1036 -0.0134722432553414 3375 -345.878521750756 0 0 60 (D2) n - 1
REM
REM in /home/bkarasulu/work/CARBON/AIRSS/Generating-Clusters/REBO/Higher-Symm/Only-C60
REM
REM
REM
REM
REM
REM ./C.cell (a2850807a9bf4ad07a5b6933b78d9264)
REM AIRSS Version 0.9.1 bugfix July 2018 build 013d7b7c2542+ Fri, 06 Jul 2018 19:26:36 +0100
REM compiler GCC version 9.2.1 20190827 (Red Hat 9.2.1-1)
REM options -cpp -mtune=generic -march=x86-64 -g -O0 -fpre-include=/usr/include/finclude/math-vector-fortran.h
REM seed -742105304 558858213 1099093980 911188874 1260796705 683071557 44392016 1942985936 291914679 -306434786 962074083 -1919796046 -1298550724 1192283171 -1067248184 -180088966 -909067086 -1883597127 1006824735 747400883 -782815818 -792862796 710119356 -663771734 188900528 754312067 -1511322319 -175335755 160043160 3404525 1264302011 -1246310713 -108253159
REM
CELL 1.54180   15.00000   15.00000   15.00000   90.00000   90.00000   90.00000
LATT -1
SFAC C  
C      1  0.7372840000000  0.4444210000000  0.5566770000000 1.0
C      1  0.2628270000000  0.5551940000000  0.5562760000000 1.0
C      1  0.7344620000000  0.4540270000000  0.4531760000000 1.0
C      1  0.2653690000000  0.5465260000000  0.4526080000000 1.0
C      1  0.2653660000000  0.4534730000000  0.5473930000000 1.0
C      1  0.7344650000000  0.5459770000000  0.5468240000000 1.0
C      1  0.2628240000000  0.4448040000000  0.4437230000000 1.0
C      1  0.7372870000000  0.5555830000000  0.4433220000000 1.0
C      1  0.6759670000000  0.6021380000000  0.6087930000000 1.0
C      1  0.3240880000000  0.3976340000000  0.6089840000000 1.0
C      1  0.6753280000000  0.6066410000000  0.3876760000000 1.0
C      1  0.3246240000000  0.3935540000000  0.3878460000000 1.0
C      1  0.3246350000000  0.6064420000000  0.6121540000000 1.0
C      1  0.6753170000000  0.3933660000000  0.6123250000000 1.0
C      1  0.3240990000000  0.6023610000000  0.3910160000000 1.0
C      1  0.6759580000000  0.3978680000000  0.3912070000000 1.0
C      1  0.6151520000000  0.5501530000000  0.6898890000000 1.0
C      1  0.3848870000000  0.4497100000000  0.6900110000000 1.0
C      1  0.6146370000000  0.5526530000000  0.3081640000000 1.0
C      1  0.3853440000000  0.4474830000000  0.3082970000000 1.0
C      1  0.3853440000000  0.5525230000000  0.6917040000000 1.0
C      1  0.6146240000000  0.4473520000000  0.6918200000000 1.0
C      1  0.3848870000000  0.5502940000000  0.3099880000000 1.0
C      1  0.6151380000000  0.4498540000000  0.3101250000000 1.0
C      1  0.4423630000000  0.3768460000000  0.7446400000000 1.0
C      1  0.5576570000000  0.6230870000000  0.7445140000000 1.0
C      1  0.4443830000000  0.3759320000000  0.2545050000000 1.0
C      1  0.5556070000000  0.6241430000000  0.2543840000000 1.0
C      1  0.5556040000000  0.3758640000000  0.7456130000000 1.0
C      1  0.4443850000000  0.6240710000000  0.7454950000000 1.0
C      1  0.5576540000000  0.3769210000000  0.2554880000000 1.0
C      1  0.4423660000000  0.6231560000000  0.2553610000000 1.0
C      1  0.4078680000000  0.6442060000000  0.4541250000000 1.0
C      1  0.5921910000000  0.3558210000000  0.4542310000000 1.0
C      1  0.4081540000000  0.6448830000000  0.5468890000000 1.0
C      1  0.5918060000000  0.3550890000000  0.5469900000000 1.0
C      1  0.5918060000000  0.6449050000000  0.4530100000000 1.0
C      1  0.4081470000000  0.3551090000000  0.4531120000000 1.0
C      1  0.5921910000000  0.6441730000000  0.5457680000000 1.0
C      1  0.4078600000000  0.3557860000000  0.5458740000000 1.0
C      1  0.4000540000000  0.3233390000000  0.6525700000000 1.0
C      1  0.6000560000000  0.6765230000000  0.6524520000000 1.0
C      1  0.4026150000000  0.3213440000000  0.3461710000000 1.0
C      1  0.5972890000000  0.6787820000000  0.3460720000000 1.0
C      1  0.5972910000000  0.3212280000000  0.6539310000000 1.0
C      1  0.4026160000000  0.6786490000000  0.6538280000000 1.0
C      1  0.6000570000000  0.3234850000000  0.3475450000000 1.0
C      1  0.4000550000000  0.6766570000000  0.3474310000000 1.0
C      1  0.5518830000000  0.5564530000000  0.5968500000000 1.0
C      1  0.4480800000000  0.4435700000000  0.5969240000000 1.0
C      1  0.5530710000000  0.5567020000000  0.4022810000000 1.0
C      1  0.4469710000000  0.4432540000000  0.4023740000000 1.0
C      1  0.4469720000000  0.5567380000000  0.5976320000000 1.0
C      1  0.5530660000000  0.4432880000000  0.5977100000000 1.0
C      1  0.4480810000000  0.5564220000000  0.4030710000000 1.0
C      1  0.5518770000000  0.4435380000000  0.4031590000000 1.0
C      1  0.4985290000000  0.7084460000000  0.3063130000000 1.0
C      1  0.5014750000000  0.2916550000000  0.3064540000000 1.0
C      1  0.5014750000000  0.7083480000000  0.6935450000000 1.0
C      1  0.4985290000000  0.2915570000000  0.6936880000000 1.0
END
