TITL C-3036483-1610-947 -0.010379857417652 3375 -341.87724094222 0 0 60 (C2) n - 1
REM
REM in /home/bkarasulu/work/CARBON/AIRSS/Generating-Clusters/REBO/Higher-Symm/Only-C60
REM
REM
REM
REM
REM
REM ./C.cell (a2850807a9bf4ad07a5b6933b78d9264)
REM AIRSS Version 0.9.1 bugfix July 2018 build 013d7b7c2542+ Fri, 06 Jul 2018 19:26:36 +0100
REM compiler GCC version 9.2.1 20190827 (Red Hat 9.2.1-1)
REM options -cpp -mtune=generic -march=x86-64 -g -O0 -fpre-include=/usr/include/finclude/math-vector-fortran.h
REM seed -1995657367 1166036382 -694195383 940142324 1150258098 -960557790 -1340672565 -1048828727 -1795455021 -765511737 -130913949 1083237785 -3836440 -1720388709 -1293089502 -106025375 846737353 -1482322190 234704125 -2137045226 -1503150794 1469169591 1305207491 -923903259 2078605951 -1290258276 -1343319431 -2083713842 1360687263 963334432 334621683 1717298991 114298428
REM
CELL 1.54180   15.00000   15.00000   15.00000   90.00000   90.00000   90.00000
LATT -1
SFAC C  
C      1  0.6578140000000  0.6137960000000  0.4856050000000 1.0
C      1  0.4354350000000  0.6180460000000  0.6441970000000 1.0
C      1  0.4081500000000  0.6147890000000  0.3719710000000 1.0
C      1  0.3421880000000  0.3862400000000  0.4856420000000 1.0
C      1  0.5645900000000  0.3820090000000  0.6441820000000 1.0
C      1  0.5918140000000  0.3852430000000  0.3719630000000 1.0
C      1  0.3161340000000  0.5559210000000  0.3519230000000 1.0
C      1  0.7201120000000  0.5551660000000  0.4148420000000 1.0
C      1  0.4649530000000  0.5563200000000  0.7317110000000 1.0
C      1  0.6838250000000  0.4441010000000  0.3519180000000 1.0
C      1  0.2798980000000  0.4448670000000  0.4148800000000 1.0
C      1  0.5350610000000  0.4437180000000  0.7316910000000 1.0
C      1  0.2946620000000  0.5034650000000  0.5375890000000 1.0
C      1  0.5664320000000  0.5045600000000  0.3052010000000 1.0
C      1  0.6417730000000  0.5056520000000  0.6542330000000 1.0
C      1  0.7053500000000  0.4965080000000  0.5376780000000 1.0
C      1  0.4336010000000  0.4954210000000  0.3052100000000 1.0
C      1  0.3582180000000  0.4943050000000  0.6541430000000 1.0
C      1  0.4941780000000  0.5736550000000  0.2571290000000 1.0
C      1  0.7170170000000  0.5758310000000  0.6139340000000 1.0
C      1  0.2876060000000  0.5725670000000  0.6246530000000 1.0
C      1  0.5058500000000  0.4263070000000  0.2571530000000 1.0
C      1  0.2829950000000  0.4241150000000  0.6138300000000 1.0
C      1  0.7123630000000  0.4273670000000  0.6247100000000 1.0
C      1  0.3991080000000  0.5129870000000  0.4998370000000 1.0
C      1  0.5533540000000  0.5124790000000  0.4172990000000 1.0
C      1  0.5471440000000  0.5130770000000  0.5918250000000 1.0
C      1  0.6009090000000  0.4870240000000  0.4997520000000 1.0
C      1  0.4466060000000  0.4875350000000  0.4173240000000 1.0
C      1  0.4529270000000  0.4868800000000  0.5918450000000 1.0
C      1  0.2546060000000  0.5446410000000  0.4468950000000 1.0
C      1  0.6659870000000  0.5437390000000  0.3154630000000 1.0
C      1  0.5777940000000  0.5420510000000  0.7324380000000 1.0
C      1  0.7453160000000  0.4553960000000  0.4469180000000 1.0
C      1  0.3340350000000  0.4562800000000  0.3155100000000 1.0
C      1  0.4222220000000  0.4579920000000  0.7323600000000 1.0
C      1  0.2889540000000  0.6600810000000  0.6012010000000 1.0
C      1  0.5153710000000  0.6610140000000  0.2692480000000 1.0
C      1  0.6954440000000  0.6628630000000  0.6275500000000 1.0
C      1  0.7110090000000  0.3398620000000  0.6012160000000 1.0
C      1  0.4846330000000  0.3389550000000  0.2692790000000 1.0
C      1  0.3045550000000  0.3370870000000  0.6275210000000 1.0
C      1  0.4044260000000  0.6100520000000  0.5571770000000 1.0
C      1  0.4987770000000  0.6081360000000  0.3904710000000 1.0
C      1  0.5975300000000  0.6079880000000  0.5556890000000 1.0
C      1  0.5955940000000  0.3900040000000  0.5571630000000 1.0
C      1  0.5011920000000  0.3918840000000  0.3904800000000 1.0
C      1  0.4025290000000  0.3920140000000  0.5557000000000 1.0
C      1  0.5971960000000  0.6780380000000  0.6282710000000 1.0
C      1  0.3406030000000  0.6770520000000  0.5182370000000 1.0
C      1  0.5633010000000  0.6768030000000  0.3548630000000 1.0
C      1  0.4028180000000  0.3219210000000  0.6282980000000 1.0
C      1  0.6593780000000  0.3229520000000  0.5182160000000 1.0
C      1  0.4366780000000  0.3231900000000  0.3548870000000 1.0
C      1  0.3462800000000  0.3608930000000  0.3755020000000 1.0
C      1  0.6859300000000  0.3604130000000  0.4294140000000 1.0
C      1  0.4663810000000  0.3602770000000  0.6956340000000 1.0
C      1  0.6537070000000  0.6391230000000  0.3754570000000 1.0
C      1  0.3140370000000  0.6396050000000  0.4294310000000 1.0
C      1  0.5336450000000  0.6397430000000  0.6956390000000 1.0
END
