TITL C-3036480-97-481 2.43791176187578e-06 3375 -341.705087319703 0 0 60 (C2) n - 1
REM
REM in /home/bkarasulu/work/CARBON/AIRSS/Generating-Clusters/REBO/Higher-Symm/Only-C60
REM
REM
REM
REM
REM
REM ./C.cell (a2850807a9bf4ad07a5b6933b78d9264)
REM AIRSS Version 0.9.1 bugfix July 2018 build 013d7b7c2542+ Fri, 06 Jul 2018 19:26:36 +0100
REM compiler GCC version 9.2.1 20190827 (Red Hat 9.2.1-1)
REM options -cpp -mtune=generic -march=x86-64 -g -O0 -fpre-include=/usr/include/finclude/math-vector-fortran.h
REM seed -1585177549 162943840 -2097464308 1538151095 -161386260 1127158114 81578490 -799140253 -1175807145 -1679929022 -1245818070 472137115 -2066693550 2143741367 -948241439 1910614932 -758082451 -1595947320 1316908886 -1321914651 -1966965567 -1442946465 2015848985 1642491686 1077156316 421201911 -75404434 424315873 860288606 554594090 727797318 -428610197 1721794554
REM
CELL 1.54180   15.00000   15.00000   15.00000   90.00000   90.00000   90.00000
LATT -1
SFAC C  
C      1  0.3110130000000  0.6646010000000  0.6351230000000 1.0
C      1  0.3110050000000  0.3354040000000  0.3648720000000 1.0
C      1  0.6305770000000  0.4353380000000  0.4481840000000 1.0
C      1  0.6306070000000  0.5646820000000  0.5518410000000 1.0
C      1  0.4506710000000  0.5565180000000  0.6629540000000 1.0
C      1  0.4506530000000  0.4434810000000  0.3370520000000 1.0
C      1  0.4588440000000  0.3017030000000  0.4065310000000 1.0
C      1  0.4588510000000  0.6982940000000  0.5934460000000 1.0
C      1  0.6277840000000  0.5828710000000  0.4203400000000 1.0
C      1  0.6277390000000  0.4171750000000  0.5796850000000 1.0
C      1  0.4874360000000  0.3718920000000  0.6328420000000 1.0
C      1  0.4874330000000  0.6280890000000  0.3671120000000 1.0
C      1  0.3721100000000  0.4150700000000  0.5822120000000 1.0
C      1  0.3721400000000  0.5849040000000  0.4178100000000 1.0
C      1  0.2798910000000  0.5452800000000  0.5146800000000 1.0
C      1  0.2798860000000  0.4547020000000  0.4853430000000 1.0
C      1  0.5418830000000  0.4468320000000  0.5194300000000 1.0
C      1  0.5419230000000  0.5532860000000  0.4805710000000 1.0
C      1  0.4594700000000  0.6299590000000  0.7349850000000 1.0
C      1  0.4594690000000  0.3700610000000  0.2649980000000 1.0
C      1  0.6947930000000  0.3637490000000  0.5052450000000 1.0
C      1  0.6948610000000  0.6362550000000  0.4947870000000 1.0
C      1  0.5435050000000  0.4577260000000  0.3871390000000 1.0
C      1  0.5435170000000  0.5422820000000  0.6128530000000 1.0
C      1  0.2889900000000  0.4341700000000  0.3805590000000 1.0
C      1  0.2890090000000  0.5658280000000  0.6194600000000 1.0
C      1  0.5817550000000  0.4569350000000  0.7554970000000 1.0
C      1  0.5817900000000  0.5430840000000  0.2444860000000 1.0
C      1  0.3238740000000  0.3505360000000  0.4760790000000 1.0
C      1  0.3238780000000  0.6494480000000  0.5239230000000 1.0
C      1  0.5609230000000  0.7331770000000  0.4634280000000 1.0
C      1  0.5609120000000  0.2667830000000  0.5365350000000 1.0
C      1  0.4789250000000  0.3081420000000  0.5643450000000 1.0
C      1  0.4789340000000  0.6918120000000  0.4356340000000 1.0
C      1  0.6538050000000  0.4274390000000  0.6851800000000 1.0
C      1  0.6538110000000  0.5725720000000  0.3148380000000 1.0
C      1  0.3349200000000  0.3462300000000  0.6176850000000 1.0
C      1  0.3349680000000  0.6537610000000  0.3823520000000 1.0
C      1  0.5644360000000  0.6262670000000  0.7131300000000 1.0
C      1  0.5644360000000  0.3737490000000  0.2868570000000 1.0
C      1  0.5528590000000  0.6578890000000  0.6061900000000 1.0
C      1  0.5528510000000  0.3421280000000  0.3938020000000 1.0
C      1  0.6888550000000  0.5214270000000  0.6344920000000 1.0
C      1  0.6888330000000  0.4785790000000  0.3655320000000 1.0
C      1  0.6226800000000  0.4492160000000  0.2780840000000 1.0
C      1  0.6226720000000  0.5507980000000  0.7219170000000 1.0
C      1  0.5241820000000  0.5503460000000  0.3321810000000 1.0
C      1  0.5241790000000  0.4496350000000  0.6677800000000 1.0
C      1  0.7219340000000  0.4689520000000  0.5390120000000 1.0
C      1  0.7219440000000  0.5310350000000  0.4610090000000 1.0
C      1  0.6110660000000  0.6944200000000  0.5303620000000 1.0
C      1  0.6110500000000  0.3055860000000  0.4696240000000 1.0
C      1  0.4150060000000  0.6871620000000  0.5073730000000 1.0
C      1  0.4149930000000  0.3127860000000  0.4926090000000 1.0
C      1  0.3828430000000  0.5219720000000  0.5956920000000 1.0
C      1  0.3828310000000  0.4780120000000  0.4043220000000 1.0
C      1  0.4013570000000  0.6853230000000  0.6699110000000 1.0
C      1  0.4013500000000  0.3146980000000  0.3300730000000 1.0
C      1  0.4335200000000  0.4443970000000  0.5005310000000 1.0
C      1  0.4335670000000  0.5555510000000  0.4994840000000 1.0
END
