TITL C-3036480-97-886 -4.44141871624613e-06 3375 -324.481094615992 0 0 60 (S10) n - 1
REM
REM in /home/bkarasulu/work/CARBON/AIRSS/Generating-Clusters/REBO/Higher-Symm/Only-C60
REM
REM
REM
REM
REM
REM ./C.cell (a2850807a9bf4ad07a5b6933b78d9264)
REM AIRSS Version 0.9.1 bugfix July 2018 build 013d7b7c2542+ Fri, 06 Jul 2018 19:26:36 +0100
REM compiler GCC version 9.2.1 20190827 (Red Hat 9.2.1-1)
REM options -cpp -mtune=generic -march=x86-64 -g -O0 -fpre-include=/usr/include/finclude/math-vector-fortran.h
REM seed 1577889757 -1509362921 1195269884 1437213386 -603768765 1794794699 437653755 2051991227 27999112 1035237333 1953006013 -1466912645 2006905729 519893653 -755135748 441321392 612112410 -1760173083 501264837 -1389495151 609947565 652644567 -1751969528 1443604125 -1285942559 492374180 -828825899 -1472316537 -1730822814 1258664682 498196257 -2063236317 -698411451
REM
CELL 1.54180   15.00000   15.00000   15.00000   90.00000   90.00000   90.00000
LATT -1
SFAC C  
C      1  0.4751980000000  0.5777780000000  0.6315440000000 1.0
C      1  0.5248160000000  0.4856030000000  0.6521450000000 1.0
C      1  0.4751930000000  0.3989290000000  0.6146240000000 1.0
C      1  0.5248080000000  0.3508570000000  0.5333210000000 1.0
C      1  0.4751840000000  0.3597500000000  0.4392940000000 1.0
C      1  0.5248020000000  0.4222220000000  0.3684560000000 1.0
C      1  0.4751840000000  0.5143970000000  0.3478550000000 1.0
C      1  0.5248070000000  0.6010710000000  0.3853760000000 1.0
C      1  0.4751920000000  0.6491430000000  0.4666790000000 1.0
C      1  0.5248160000000  0.6402500000000  0.5607060000000 1.0
C      1  0.4050840000000  0.4762480000000  0.5827500000000 1.0
C      1  0.5949150000000  0.4321460000000  0.5529800000000 1.0
C      1  0.4050810000000  0.4139630000000  0.5029840000000 1.0
C      1  0.5949140000000  0.4286420000000  0.4518370000000 1.0
C      1  0.4050810000000  0.4705780000000  0.4190980000000 1.0
C      1  0.5949160000000  0.5237520000000  0.4172500000000 1.0
C      1  0.4050850000000  0.5678540000000  0.4470200000000 1.0
C      1  0.5949190000000  0.5860370000000  0.4970160000000 1.0
C      1  0.4050860000000  0.5713580000000  0.5481630000000 1.0
C      1  0.5949190000000  0.5294220000000  0.5809020000000 1.0
C      1  0.6430020000000  0.5277530000000  0.3206090000000 1.0
C      1  0.3570020000000  0.6278940000000  0.3711830000000 1.0
C      1  0.6429990000000  0.6791890000000  0.4709590000000 1.0
C      1  0.3569990000000  0.6620340000000  0.5818280000000 1.0
C      1  0.6429970000000  0.5829920000000  0.6614430000000 1.0
C      1  0.3569980000000  0.4722470000000  0.6793910000000 1.0
C      1  0.6429980000000  0.3721060000000  0.6288170000000 1.0
C      1  0.3570010000000  0.3208110000000  0.5290410000000 1.0
C      1  0.6430010000000  0.3379660000000  0.4181720000000 1.0
C      1  0.3570030000000  0.4170080000000  0.3385570000000 1.0
C      1  0.6741250000000  0.4212480000000  0.3464310000000 1.0
C      1  0.3258800000000  0.5265520000000  0.3294680000000 1.0
C      1  0.6741230000000  0.6217180000000  0.3776460000000 1.0
C      1  0.3258770000000  0.6703890000000  0.4725560000000 1.0
C      1  0.6741190000000  0.6539800000000  0.5779510000000 1.0
C      1  0.3258750000000  0.5787520000000  0.6535690000000 1.0
C      1  0.6741200000000  0.4734480000000  0.6705320000000 1.0
C      1  0.3258770000000  0.3782820000000  0.6223540000000 1.0
C      1  0.6741230000000  0.3296110000000  0.5274440000000 1.0
C      1  0.3258810000000  0.3460200000000  0.4220490000000 1.0
C      1  0.5191640000000  0.4296400000000  0.2557190000000 1.0
C      1  0.4808380000000  0.5866650000000  0.2610120000000 1.0
C      1  0.5191640000000  0.7105840000000  0.3575970000000 1.0
C      1  0.4808370000000  0.7540700000000  0.5085710000000 1.0
C      1  0.5191630000000  0.7005090000000  0.6562740000000 1.0
C      1  0.4808360000000  0.5703600000000  0.7442810000000 1.0
C      1  0.5191620000000  0.4133350000000  0.7389880000000 1.0
C      1  0.4808360000000  0.2894160000000  0.6424030000000 1.0
C      1  0.5191630000000  0.2459300000000  0.4914290000000 1.0
C      1  0.4808370000000  0.2994910000000  0.3437260000000 1.0
C      1  0.5611700000000  0.7468450000000  0.4411940000000 1.0
C      1  0.4388300000000  0.7342640000000  0.5975160000000 1.0
C      1  0.5611700000000  0.6322080000000  0.7165930000000 1.0
C      1  0.4388300000000  0.4796490000000  0.7529330000000 1.0
C      1  0.5611700000000  0.3348630000000  0.6926660000000 1.0
C      1  0.4388300000000  0.2531550000000  0.5588060000000 1.0
C      1  0.5611700000000  0.2657360000000  0.4024840000000 1.0
C      1  0.4388300000000  0.3677920000000  0.2834070000000 1.0
C      1  0.5611700000000  0.5203510000000  0.2470670000000 1.0
C      1  0.4388300000000  0.6651370000000  0.3073340000000 1.0
END
