TITL C-3036481-494-10 -0.00323451140503533 3375 -339.225361138588 0 0 60 (Cs) n - 1
REM
REM in /home/bkarasulu/work/CARBON/AIRSS/Generating-Clusters/REBO/Higher-Symm/Only-C60
REM
REM
REM
REM
REM
REM ./C.cell (a2850807a9bf4ad07a5b6933b78d9264)
REM AIRSS Version 0.9.1 bugfix July 2018 build 013d7b7c2542+ Fri, 06 Jul 2018 19:26:36 +0100
REM compiler GCC version 9.2.1 20190827 (Red Hat 9.2.1-1)
REM options -cpp -mtune=generic -march=x86-64 -g -O0 -fpre-include=/usr/include/finclude/math-vector-fortran.h
REM seed -124959409 -1074724398 -2014816539 -1079296170 600742205 -1013469343 -955138177 700815186 -1459027502 -137072422 -1666734353 2033185242 -2116343024 948847182 -1348000895 1006688959 -2082861102 1152140874 1940932863 1299536812 -1519001199 1496400772 -328901526 1212305739 -1453266258 -1022201025 -1107499170 479247163 477453855 -1569299515 721022421 51193507 -1118009103
REM
CELL 1.54180   15.00000   15.00000   15.00000   90.00000   90.00000   90.00000
LATT -1
SFAC C  
C      1  0.4407440000000  0.3446300000000  0.4864820000000 1.0
C      1  0.5544430000000  0.3446290000000  0.4864130000000 1.0
C      1  0.4079720000000  0.4828890000000  0.6518870000000 1.0
C      1  0.5871030000000  0.4827710000000  0.6514560000000 1.0
C      1  0.4021290000000  0.3344130000000  0.3884430000000 1.0
C      1  0.5928000000000  0.3342560000000  0.3885850000000 1.0
C      1  0.7049710000000  0.6533730000000  0.4158910000000 1.0
C      1  0.2901670000000  0.6536780000000  0.4157410000000 1.0
C      1  0.3717840000000  0.4228740000000  0.5335210000000 1.0
C      1  0.6231060000000  0.4229430000000  0.5337440000000 1.0
C      1  0.6796220000000  0.5137420000000  0.6226210000000 1.0
C      1  0.3154960000000  0.5137750000000  0.6227500000000 1.0
C      1  0.2871010000000  0.5924530000000  0.5824160000000 1.0
C      1  0.7078830000000  0.5925190000000  0.5824040000000 1.0
C      1  0.7041220000000  0.5424960000000  0.4370840000000 1.0
C      1  0.2907100000000  0.5427570000000  0.4367620000000 1.0
C      1  0.5968250000000  0.3736880000000  0.6852120000000 1.0
C      1  0.3981240000000  0.3738570000000  0.6858490000000 1.0
C      1  0.3683190000000  0.4168650000000  0.3397390000000 1.0
C      1  0.6267630000000  0.4166370000000  0.3400050000000 1.0
C      1  0.6266390000000  0.3162400000000  0.5697440000000 1.0
C      1  0.3690450000000  0.3163740000000  0.5702130000000 1.0
C      1  0.3248170000000  0.5727750000000  0.3402250000000 1.0
C      1  0.6704560000000  0.5724590000000  0.3403810000000 1.0
C      1  0.5640780000000  0.6076710000000  0.5112770000000 1.0
C      1  0.4307790000000  0.6076800000000  0.5111750000000 1.0
C      1  0.4317680000000  0.4605190000000  0.4218340000000 1.0
C      1  0.5632940000000  0.4605850000000  0.4219220000000 1.0
C      1  0.6567850000000  0.7049560000000  0.3371750000000 1.0
C      1  0.3387010000000  0.7052460000000  0.3371420000000 1.0
C      1  0.3303660000000  0.6400730000000  0.5169430000000 1.0
C      1  0.6644980000000  0.6400750000000  0.5169730000000 1.0
C      1  0.6207320000000  0.5168200000000  0.4916330000000 1.0
C      1  0.3740480000000  0.5168350000000  0.4913730000000 1.0
C      1  0.6067190000000  0.5127680000000  0.3041310000000 1.0
C      1  0.3885860000000  0.5130390000000  0.3041150000000 1.0
C      1  0.5513840000000  0.2636470000000  0.3290170000000 1.0
C      1  0.4434640000000  0.2638000000000  0.3287580000000 1.0
C      1  0.6863470000000  0.4003890000000  0.6211580000000 1.0
C      1  0.3089400000000  0.4004080000000  0.6212410000000 1.0
C      1  0.5790480000000  0.2695120000000  0.6528180000000 1.0
C      1  0.4170150000000  0.2697210000000  0.6529550000000 1.0
C      1  0.5831930000000  0.6938190000000  0.3011510000000 1.0
C      1  0.4122330000000  0.6938980000000  0.3010360000000 1.0
C      1  0.4979730000000  0.2324790000000  0.6625930000000 1.0
C      1  0.4972860000000  0.6340840000000  0.6883440000000 1.0
C      1  0.4974230000000  0.5087200000000  0.6156330000000 1.0
C      1  0.4974600000000  0.5734840000000  0.7535450000000 1.0
C      1  0.4976900000000  0.5448010000000  0.2939460000000 1.0
C      1  0.4974350000000  0.7223350000000  0.5076900000000 1.0
C      1  0.4974760000000  0.4614700000000  0.5146820000000 1.0
C      1  0.4973380000000  0.8089220000000  0.5055500000000 1.0
C      1  0.4976410000000  0.3797450000000  0.5948100000000 1.0
C      1  0.4976160000000  0.4024870000000  0.7073340000000 1.0
C      1  0.4973730000000  0.6453610000000  0.5908940000000 1.0
C      1  0.4976120000000  0.3555410000000  0.2967430000000 1.0
C      1  0.4975560000000  0.4450160000000  0.3366320000000 1.0
C      1  0.4975170000000  0.6412860000000  0.4283460000000 1.0
C      1  0.4976790000000  0.6432630000000  0.3289710000000 1.0
C      1  0.4977730000000  0.4851340000000  0.7667720000000 1.0
END
