TITL C-3036486-2224-735 6.2371908165364e-06 3375 -350.752011176674 0 0 60 (C1) n - 1
REM
REM in /home/bkarasulu/work/CARBON/AIRSS/Generating-Clusters/REBO/Higher-Symm/Only-C60
REM
REM
REM
REM
REM
REM ./C.cell (a2850807a9bf4ad07a5b6933b78d9264)
REM AIRSS Version 0.9.1 bugfix July 2018 build 013d7b7c2542+ Fri, 06 Jul 2018 19:26:36 +0100
REM compiler GCC version 9.2.1 20190827 (Red Hat 9.2.1-1)
REM options -cpp -mtune=generic -march=x86-64 -g -O0 -fpre-include=/usr/include/finclude/math-vector-fortran.h
REM seed 875307479 -199571519 1114696149 -129447797 -1107122397 1937848024 -508541090 -2027646415 -2020761236 405820136 180410287 -18215483 -364063265 779921562 1688750626 -2109012096 -249939933 1256439206 -370906500 -650108506 -1502546950 -1748251085 -898119110 1630025092 -1188227256 -1107581270 -1103198014 -325359668 276205021 -2008968335 13395210 1111106131 1939997132
REM
CELL 1.54180   15.00000   15.00000   15.00000   90.00000   90.00000   90.00000
LATT -1
SFAC C  
C      1  0.6574400000000  0.6402400000000  0.3463780000000 1.0
C      1  0.5871930000000  0.3966190000000  0.2841000000000 1.0
C      1  0.6665150000000  0.4614310000000  0.6404580000000 1.0
C      1  0.2830730000000  0.5841980000000  0.5379010000000 1.0
C      1  0.4473940000000  0.6475950000000  0.4822110000000 1.0
C      1  0.4248270000000  0.2982340000000  0.4451690000000 1.0
C      1  0.4890570000000  0.4650480000000  0.4167670000000 1.0
C      1  0.4423380000000  0.3418150000000  0.6602060000000 1.0
C      1  0.6017710000000  0.3097240000000  0.4309440000000 1.0
C      1  0.4936360000000  0.2724420000000  0.6048760000000 1.0
C      1  0.5036100000000  0.3395950000000  0.3033600000000 1.0
C      1  0.3319360000000  0.6395600000000  0.6031850000000 1.0
C      1  0.3691440000000  0.6541160000000  0.4171810000000 1.0
C      1  0.5858080000000  0.2968950000000  0.5431840000000 1.0
C      1  0.3566720000000  0.5035330000000  0.3101790000000 1.0
C      1  0.4929900000000  0.4357670000000  0.5805180000000 1.0
C      1  0.4368560000000  0.5741370000000  0.6971780000000 1.0
C      1  0.4503230000000  0.4884110000000  0.6400390000000 1.0
C      1  0.3690610000000  0.3744460000000  0.5102290000000 1.0
C      1  0.4073620000000  0.2739950000000  0.5510780000000 1.0
C      1  0.3280010000000  0.5042110000000  0.4016150000000 1.0
C      1  0.5134890000000  0.6370360000000  0.6885500000000 1.0
C      1  0.5729170000000  0.4515520000000  0.7033990000000 1.0
C      1  0.5366670000000  0.6021490000000  0.3855320000000 1.0
C      1  0.4757850000000  0.5434620000000  0.4977660000000 1.0
C      1  0.4401150000000  0.6369000000000  0.3495110000000 1.0
C      1  0.7402370000000  0.4871360000000  0.5564920000000 1.0
C      1  0.5629510000000  0.4882610000000  0.2589080000000 1.0
C      1  0.5090370000000  0.2855060000000  0.3821380000000 1.0
C      1  0.6401580000000  0.4691150000000  0.5106530000000 1.0
C      1  0.6921390000000  0.4543090000000  0.3893500000000 1.0
C      1  0.5334850000000  0.7001860000000  0.4431410000000 1.0
C      1  0.5009640000000  0.6950140000000  0.6144500000000 1.0
C      1  0.5651000000000  0.5470340000000  0.6734350000000 1.0
C      1  0.3957240000000  0.4656110000000  0.4710690000000 1.0
C      1  0.5616270000000  0.5770340000000  0.5640410000000 1.0
C      1  0.2565670000000  0.4986640000000  0.5727800000000 1.0
C      1  0.4021060000000  0.4497420000000  0.7271910000000 1.0
C      1  0.6705630000000  0.6458050000000  0.5311480000000 1.0
C      1  0.6708120000000  0.5646850000000  0.5976770000000 1.0
C      1  0.5739700000000  0.6874780000000  0.5377540000000 1.0
C      1  0.3384720000000  0.6000060000000  0.6949530000000 1.0
C      1  0.2982840000000  0.4468180000000  0.6420790000000 1.0
C      1  0.3027910000000  0.5896290000000  0.4419190000000 1.0
C      1  0.6042860000000  0.7149140000000  0.3638760000000 1.0
C      1  0.6517080000000  0.3779720000000  0.3545470000000 1.0
C      1  0.5726040000000  0.4174790000000  0.4531430000000 1.0
C      1  0.6012190000000  0.5651070000000  0.2986310000000 1.0
C      1  0.4536120000000  0.4967560000000  0.2461050000000 1.0
C      1  0.4995860000000  0.3561970000000  0.5020850000000 1.0
C      1  0.7498870000000  0.5134260000000  0.4507190000000 1.0
C      1  0.4965680000000  0.3987030000000  0.7267690000000 1.0
C      1  0.4646760000000  0.4283230000000  0.3254280000000 1.0
C      1  0.3635530000000  0.3810710000000  0.6168040000000 1.0
C      1  0.3153130000000  0.5026690000000  0.7254880000000 1.0
C      1  0.7090680000000  0.6125810000000  0.4370390000000 1.0
C      1  0.4139200000000  0.6816840000000  0.5732240000000 1.0
C      1  0.6221580000000  0.5395370000000  0.4262880000000 1.0
C      1  0.4075390000000  0.5894630000000  0.2760120000000 1.0
C      1  0.5953340000000  0.3989720000000  0.5831510000000 1.0
END
