TITL C-3036480-97-604 0.014214963437363 3375 -334.947036454529 0 0 60 (C2) n - 1
REM
REM in /home/bkarasulu/work/CARBON/AIRSS/Generating-Clusters/REBO/Higher-Symm/Only-C60
REM
REM
REM
REM
REM
REM ./C.cell (a2850807a9bf4ad07a5b6933b78d9264)
REM AIRSS Version 0.9.1 bugfix July 2018 build 013d7b7c2542+ Fri, 06 Jul 2018 19:26:36 +0100
REM compiler GCC version 9.2.1 20190827 (Red Hat 9.2.1-1)
REM options -cpp -mtune=generic -march=x86-64 -g -O0 -fpre-include=/usr/include/finclude/math-vector-fortran.h
REM seed -826096953 497642145 1126756701 -406372145 -1043400909 183513590 -455073240 -2068696825 -1012369551 -745273016 1764709772 -649217157 -1437093366 -843741602 1689543067 1206476204 505542733 -1026336492 -1497039457 1415438702 465296876 -274738365 -393087367 -637487361 -1739035610 -150028329 -194342920 1709040553 -1347026052 1618195137 1776787220 1212774144 392146004
REM
CELL 1.54180   15.00000   15.00000   15.00000   90.00000   90.00000   90.00000
LATT -1
SFAC C  
C      1  0.4737480000000  0.6307680000000  0.6554980000000 1.0
C      1  0.5261600000000  0.6303490000000  0.3448560000000 1.0
C      1  0.4744550000000  0.3691300000000  0.3453950000000 1.0
C      1  0.5257530000000  0.3695530000000  0.6542860000000 1.0
C      1  0.4232380000000  0.3499090000000  0.6373400000000 1.0
C      1  0.5769170000000  0.3496030000000  0.3623890000000 1.0
C      1  0.4241290000000  0.6500270000000  0.3643350000000 1.0
C      1  0.5759110000000  0.6502570000000  0.6359720000000 1.0
C      1  0.4411210000000  0.5614660000000  0.5469290000000 1.0
C      1  0.5586330000000  0.5611710000000  0.4535650000000 1.0
C      1  0.4472730000000  0.4356930000000  0.4571830000000 1.0
C      1  0.5528450000000  0.4358780000000  0.5423670000000 1.0
C      1  0.7344110000000  0.4277070000000  0.5542880000000 1.0
C      1  0.2656050000000  0.4278120000000  0.4454470000000 1.0
C      1  0.7371850000000  0.5723440000000  0.4464690000000 1.0
C      1  0.2624310000000  0.5724690000000  0.5533520000000 1.0
C      1  0.4663970000000  0.4657540000000  0.3024930000000 1.0
C      1  0.5337470000000  0.4660660000000  0.6974680000000 1.0
C      1  0.4664270000000  0.5340520000000  0.6980040000000 1.0
C      1  0.5336980000000  0.5337250000000  0.3022820000000 1.0
C      1  0.6473980000000  0.5601380000000  0.3834190000000 1.0
C      1  0.3520680000000  0.5604600000000  0.6166670000000 1.0
C      1  0.6413010000000  0.4411560000000  0.6133330000000 1.0
C      1  0.3587050000000  0.4410740000000  0.3863900000000 1.0
C      1  0.3765260000000  0.3549790000000  0.5356200000000 1.0
C      1  0.6234850000000  0.3548870000000  0.4641490000000 1.0
C      1  0.3769090000000  0.6450470000000  0.4661350000000 1.0
C      1  0.6229920000000  0.6449090000000  0.5341980000000 1.0
C      1  0.6121180000000  0.5138660000000  0.2541000000000 1.0
C      1  0.3881000000000  0.5140620000000  0.7462960000000 1.0
C      1  0.6123990000000  0.4858780000000  0.7453080000000 1.0
C      1  0.3877500000000  0.4857020000000  0.2547650000000 1.0
C      1  0.2870290000000  0.5961830000000  0.4653260000000 1.0
C      1  0.7128880000000  0.5961070000000  0.5345570000000 1.0
C      1  0.2863970000000  0.4037990000000  0.5342770000000 1.0
C      1  0.7136390000000  0.4036770000000  0.4654320000000 1.0
C      1  0.3448240000000  0.4353050000000  0.7610920000000 1.0
C      1  0.6554320000000  0.4351780000000  0.2389030000000 1.0
C      1  0.3447270000000  0.5647330000000  0.2404880000000 1.0
C      1  0.6553720000000  0.5649230000000  0.7597790000000 1.0
C      1  0.3646400000000  0.6588880000000  0.6714490000000 1.0
C      1  0.6351260000000  0.6588250000000  0.3289580000000 1.0
C      1  0.3648540000000  0.3418510000000  0.3316180000000 1.0
C      1  0.6352500000000  0.3419090000000  0.6680000000000 1.0
C      1  0.5897660000000  0.6689510000000  0.4325720000000 1.0
C      1  0.4100190000000  0.6692360000000  0.5678320000000 1.0
C      1  0.5876840000000  0.3299270000000  0.5654980000000 1.0
C      1  0.4122460000000  0.3297930000000  0.4341480000000 1.0
C      1  0.7163460000000  0.5241280000000  0.5947310000000 1.0
C      1  0.2839020000000  0.5242030000000  0.4051640000000 1.0
C      1  0.7197900000000  0.4756740000000  0.4052440000000 1.0
C      1  0.2800750000000  0.4757620000000  0.5944760000000 1.0
C      1  0.5467780000000  0.5667110000000  0.5648230000000 1.0
C      1  0.4530160000000  0.5666550000000  0.4357710000000 1.0
C      1  0.5506130000000  0.4359950000000  0.4313740000000 1.0
C      1  0.4495190000000  0.4360830000000  0.5681190000000 1.0
C      1  0.6393400000000  0.3571200000000  0.2824930000000 1.0
C      1  0.3608840000000  0.3574250000000  0.7172480000000 1.0
C      1  0.6389320000000  0.6426320000000  0.7156430000000 1.0
C      1  0.3610790000000  0.6424360000000  0.2846850000000 1.0
END
