TITL C-3036479-9801-936 3.21517129260441e-06 3375 -348.292318454272 0 0 60 (C1) n - 1
REM
REM in /home/bkarasulu/work/CARBON/AIRSS/Generating-Clusters/REBO/Higher-Symm/Only-C60
REM
REM
REM
REM
REM
REM ./C.cell (a2850807a9bf4ad07a5b6933b78d9264)
REM AIRSS Version 0.9.1 bugfix July 2018 build 013d7b7c2542+ Fri, 06 Jul 2018 19:26:36 +0100
REM compiler GCC version 9.2.1 20190827 (Red Hat 9.2.1-1)
REM options -cpp -mtune=generic -march=x86-64 -g -O0 -fpre-include=/usr/include/finclude/math-vector-fortran.h
REM seed 1009198174 -1233107168 -264383550 271113299 150351109 -852928592 86697001 1018586809 955925784 -1630659394 -900053391 894696897 -2111061047 -2080216991 1657515960 -404016664 1583384518 -2007398981 1219746601 -1828814459 1832108624 1256549060 -1352507368 -1698989685 -2077976485 -1130440571 -496625466 -1628195137 197899890 -776882171 -1625252132 760446013 -860884563
REM
CELL 1.54180   15.00000   15.00000   15.00000   90.00000   90.00000   90.00000
LATT -1
SFAC C  
C      1  0.3597370000000  0.6397010000000  0.6218800000000 1.0
C      1  0.5773870000000  0.6705860000000  0.6170920000000 1.0
C      1  0.6839770000000  0.4789180000000  0.6173290000000 1.0
C      1  0.5485820000000  0.3090010000000  0.6223860000000 1.0
C      1  0.3288720000000  0.3925380000000  0.6264940000000 1.0
C      1  0.5920540000000  0.7146770000000  0.4522720000000 1.0
C      1  0.7511330000000  0.4859720000000  0.4571880000000 1.0
C      1  0.5601310000000  0.2890590000000  0.4517110000000 1.0
C      1  0.3015330000000  0.3746920000000  0.4514680000000 1.0
C      1  0.3261240000000  0.6481290000000  0.4519470000000 1.0
C      1  0.4109010000000  0.4506690000000  0.5833880000000 1.0
C      1  0.4207260000000  0.5590290000000  0.5826570000000 1.0
C      1  0.5274830000000  0.5828470000000  0.5857390000000 1.0
C      1  0.5837550000000  0.4886350000000  0.5883730000000 1.0
C      1  0.5123380000000  0.4052390000000  0.5913360000000 1.0
C      1  0.3882130000000  0.3144290000000  0.6717470000000 1.0
C      1  0.3146850000000  0.5538320000000  0.6749640000000 1.0
C      1  0.4939910000000  0.7194390000000  0.6680790000000 1.0
C      1  0.6951050000000  0.5722590000000  0.6727450000000 1.0
C      1  0.6400320000000  0.3323030000000  0.6745660000000 1.0
C      1  0.7089910000000  0.6207280000000  0.5302080000000 1.0
C      1  0.6857320000000  0.3421130000000  0.5296200000000 1.0
C      1  0.4139510000000  0.2903650000000  0.5224940000000 1.0
C      1  0.2760830000000  0.5225840000000  0.5304260000000 1.0
C      1  0.4516680000000  0.7339740000000  0.5227690000000 1.0
C      1  0.3750310000000  0.6479680000000  0.3312210000000 1.0
C      1  0.6040910000000  0.6450050000000  0.3427300000000 1.0
C      1  0.6703680000000  0.4629720000000  0.3572850000000 1.0
C      1  0.5221100000000  0.3125370000000  0.3295060000000 1.0
C      1  0.3118290000000  0.4284430000000  0.3330760000000 1.0
C      1  0.5321410000000  0.5758950000000  0.3710050000000 1.0
C      1  0.5745580000000  0.4794970000000  0.3753680000000 1.0
C      1  0.4997550000000  0.4072070000000  0.3720250000000 1.0
C      1  0.4071210000000  0.4590420000000  0.3683240000000 1.0
C      1  0.4277650000000  0.5631070000000  0.3673250000000 1.0
C      1  0.4499900000000  0.2808020000000  0.6102420000000 1.0
C      1  0.2870400000000  0.4866440000000  0.6171280000000 1.0
C      1  0.4182660000000  0.7200600000000  0.6121990000000 1.0
C      1  0.6742270000000  0.6448060000000  0.6165690000000 1.0
C      1  0.6978960000000  0.3793210000000  0.6171900000000 1.0
C      1  0.5208510000000  0.7085000000000  0.3781980000000 1.0
C      1  0.7234940000000  0.5519800000000  0.3822950000000 1.0
C      1  0.6212940000000  0.3304580000000  0.3790110000000 1.0
C      1  0.3589770000000  0.3351530000000  0.3759190000000 1.0
C      1  0.2966650000000  0.5817760000000  0.3793380000000 1.0
C      1  0.6034750000000  0.2930910000000  0.5325320000000 1.0
C      1  0.3341130000000  0.3428750000000  0.5314620000000 1.0
C      1  0.3056440000000  0.6131170000000  0.5336800000000 1.0
C      1  0.5476610000000  0.7273510000000  0.5318730000000 1.0
C      1  0.7367900000000  0.5286110000000  0.5386680000000 1.0
C      1  0.4958800000000  0.5918670000000  0.4777280000000 1.0
C      1  0.5740540000000  0.5151140000000  0.4814130000000 1.0
C      1  0.5279310000000  0.4148760000000  0.4817400000000 1.0
C      1  0.4199050000000  0.4303570000000  0.4755290000000 1.0
C      1  0.3990210000000  0.5387820000000  0.4743860000000 1.0
C      1  0.6790970000000  0.6457210000000  0.4281610000000 1.0
C      1  0.7041510000000  0.3855940000000  0.4334320000000 1.0
C      1  0.4518790000000  0.2914770000000  0.4174070000000 1.0
C      1  0.2755190000000  0.4823600000000  0.4273310000000 1.0
C      1  0.4182270000000  0.7059170000000  0.4198250000000 1.0
END
