TITL C-3036482-790-385 -4.79562771073987e-07 3375 -344.68655955577 0 0 60 (C5) n - 1
REM
REM in /home/bkarasulu/work/CARBON/AIRSS/Generating-Clusters/REBO/Higher-Symm/Only-C60
REM
REM
REM
REM
REM
REM ./C.cell (a2850807a9bf4ad07a5b6933b78d9264)
REM AIRSS Version 0.9.1 bugfix July 2018 build 013d7b7c2542+ Fri, 06 Jul 2018 19:26:36 +0100
REM compiler GCC version 9.2.1 20190827 (Red Hat 9.2.1-1)
REM options -cpp -mtune=generic -march=x86-64 -g -O0 -fpre-include=/usr/include/finclude/math-vector-fortran.h
REM seed -1430164540 1879936404 -403003888 1059584519 -87498520 -920020933 419861221 -1515941840 261065864 -1546957495 1297125630 1211974582 16399563 44244783 -1709160493 476712860 515248459 -1109321017 382426560 -1887015317 1781283254 -1816063278 -149975312 -1576342940 -1215813348 -1989911833 1254006826 1931942690 -334370076 -1811876753 2105738728 -1407057739 -288370605
REM
CELL 1.54180   15.00000   15.00000   15.00000   90.00000   90.00000   90.00000
LATT -1
SFAC C  
C      1  0.4228530000000  0.4545660000000  0.4023620000000 1.0
C      1  0.5193720000000  0.4125900000000  0.4023610000000 1.0
C      1  0.5891190000000  0.4914130000000  0.4023620000000 1.0
C      1  0.5357070000000  0.5821040000000  0.4023630000000 1.0
C      1  0.4329490000000  0.5593310000000  0.4023620000000 1.0
C      1  0.4495040000000  0.7399360000000  0.5915130000000 1.0
C      1  0.2562030000000  0.5261190000000  0.5915110000000 1.0
C      1  0.3998210000000  0.2762060000000  0.5915090000000 1.0
C      1  0.6818830000000  0.3355680000000  0.5915090000000 1.0
C      1  0.7125890000000  0.6221690000000  0.5915120000000 1.0
C      1  0.3373500000000  0.6611470000000  0.4559300000000 1.0
C      1  0.2964790000000  0.3951080000000  0.4559280000000 1.0
C      1  0.5368670000000  0.2740270000000  0.4559270000000 1.0
C      1  0.7263060000000  0.4652330000000  0.4559290000000 1.0
C      1  0.6029980000000  0.7044860000000  0.4559310000000 1.0
C      1  0.5074370000000  0.3536160000000  0.3083860000000 1.0
C      1  0.6415190000000  0.4618390000000  0.3083870000000 1.0
C      1  0.5800270000000  0.6228010000000  0.3083880000000 1.0
C      1  0.4079400000000  0.6140580000000  0.3083880000000 1.0
C      1  0.3630780000000  0.4476930000000  0.3083870000000 1.0
C      1  0.2910180000000  0.5673900000000  0.4275900000000 1.0
C      1  0.3713300000000  0.3220720000000  0.4275880000000 1.0
C      1  0.6294590000000  0.3226450000000  0.4275880000000 1.0
C      1  0.7086810000000  0.5683180000000  0.4275900000000 1.0
C      1  0.4995120000000  0.7195790000000  0.4275910000000 1.0
C      1  0.5561000000000  0.5605060000000  0.6674630000000 1.0
C      1  0.4597900000000  0.5720500000000  0.6674630000000 1.0
C      1  0.4190490000000  0.4840220000000  0.6674620000000 1.0
C      1  0.4901800000000  0.4180730000000  0.6674620000000 1.0
C      1  0.5748810000000  0.4653430000000  0.6674620000000 1.0
C      1  0.2593290000000  0.6185140000000  0.6057070000000 1.0
C      1  0.3129140000000  0.3077310000000  0.6057040000000 1.0
C      1  0.6250450000000  0.2626560000000  0.6057040000000 1.0
C      1  0.7643680000000  0.5455810000000  0.6057060000000 1.0
C      1  0.5383430000000  0.7655140000000  0.6057080000000 1.0
C      1  0.4222340000000  0.7260730000000  0.4977840000000 1.0
C      1  0.2609610000000  0.4959010000000  0.4977820000000 1.0
C      1  0.4300310000000  0.2713930000000  0.4977800000000 1.0
C      1  0.6957960000000  0.3628120000000  0.4977810000000 1.0
C      1  0.6909780000000  0.6438200000000  0.4977830000000 1.0
C      1  0.2945010000000  0.4733210000000  0.3737060000000 1.0
C      1  0.4618720000000  0.2963150000000  0.3737050000000 1.0
C      1  0.6819350000000  0.4007970000000  0.3737050000000 1.0
C      1  0.6505700000000  0.6423750000000  0.3737070000000 1.0
C      1  0.4111230000000  0.6871970000000  0.3737070000000 1.0
C      1  0.5646280000000  0.5661320000000  0.5099740000000 1.0
C      1  0.4570760000000  0.5819000000000  0.5099740000000 1.0
C      1  0.4088440000000  0.4844850000000  0.5099740000000 1.0
C      1  0.4865860000000  0.4085110000000  0.5099730000000 1.0
C      1  0.5828660000000  0.4589710000000  0.5099740000000 1.0
C      1  0.7346830000000  0.4700450000000  0.5651300000000 1.0
C      1  0.6010100000000  0.7139390000000  0.5651320000000 1.0
C      1  0.3277450000000  0.6621760000000  0.5651320000000 1.0
C      1  0.2925310000000  0.3862900000000  0.5651290000000 1.0
C      1  0.5440320000000  0.2675470000000  0.5651290000000 1.0
C      1  0.4253180000000  0.6345910000000  0.5944620000000 1.0
C      1  0.3489180000000  0.4705640000000  0.5944610000000 1.0
C      1  0.4813080000000  0.3472160000000  0.5944600000000 1.0
C      1  0.6395300000000  0.4350090000000  0.5944610000000 1.0
C      1  0.6049260000000  0.6126170000000  0.5944620000000 1.0
END
