TITL C-3036482-790-217 0.0237791414043105 3375 -325.343711974009 0 0 60 (C1) n - 1
REM
REM in /home/bkarasulu/work/CARBON/AIRSS/Generating-Clusters/REBO/Higher-Symm/Only-C60
REM
REM
REM
REM
REM
REM ./C.cell (a2850807a9bf4ad07a5b6933b78d9264)
REM AIRSS Version 0.9.1 bugfix July 2018 build 013d7b7c2542+ Fri, 06 Jul 2018 19:26:36 +0100
REM compiler GCC version 9.2.1 20190827 (Red Hat 9.2.1-1)
REM options -cpp -mtune=generic -march=x86-64 -g -O0 -fpre-include=/usr/include/finclude/math-vector-fortran.h
REM seed -247370039 1689025181 204274998 -1465357429 831680333 1128569765 -351745440 152398114 -1083617113 624475801 -1361361457 1308517872 -2040854658 -881056138 824937308 1583471570 -941883715 -332612759 1884900560 617660692 -314874354 2134828438 -1756643615 1695141567 -1447319246 512847955 -1633141353 1264702733 1464498403 279676484 2078651582 -517292398 2117620964
REM
CELL 1.54180   15.00000   15.00000   15.00000   90.00000   90.00000   90.00000
LATT -1
SFAC C  
C      1  0.4451270000000  0.5804350000000  0.4990100000000 1.0
C      1  0.4447420000000  0.5010080000000  0.5798770000000 1.0
C      1  0.4446810000000  0.4198560000000  0.5006980000000 1.0
C      1  0.4451600000000  0.4993180000000  0.4197880000000 1.0
C      1  0.5537680000000  0.4198470000000  0.5015200000000 1.0
C      1  0.5537520000000  0.5013240000000  0.5804540000000 1.0
C      1  0.5540790000000  0.5796330000000  0.4984650000000 1.0
C      1  0.5541150000000  0.4983090000000  0.4196050000000 1.0
C      1  0.3871150000000  0.2568160000000  0.5059850000000 1.0
C      1  0.3871620000000  0.4944970000000  0.2574810000000 1.0
C      1  0.3910820000000  0.7443780000000  0.4899750000000 1.0
C      1  0.3871840000000  0.5059410000000  0.7430670000000 1.0
C      1  0.6095470000000  0.7431450000000  0.5078630000000 1.0
C      1  0.6068780000000  0.5089700000000  0.2556700000000 1.0
C      1  0.6063750000000  0.2554650000000  0.4917360000000 1.0
C      1  0.6064460000000  0.4917430000000  0.7444600000000 1.0
C      1  0.3233180000000  0.3161990000000  0.4981210000000 1.0
C      1  0.3236430000000  0.5020350000000  0.3172050000000 1.0
C      1  0.3225770000000  0.6849080000000  0.5021000000000 1.0
C      1  0.3236000000000  0.4980540000000  0.6834660000000 1.0
C      1  0.6779480000000  0.6831580000000  0.4960860000000 1.0
C      1  0.6751370000000  0.4939650000000  0.3150330000000 1.0
C      1  0.6745840000000  0.3153510000000  0.5052630000000 1.0
C      1  0.6747080000000  0.5052910000000  0.6846710000000 1.0
C      1  0.5652960000000  0.6256800000000  0.7220370000000 1.0
C      1  0.5652180000000  0.2777280000000  0.6261190000000 1.0
C      1  0.5652890000000  0.3738700000000  0.2776290000000 1.0
C      1  0.5602340000000  0.7233780000000  0.3797590000000 1.0
C      1  0.4394380000000  0.3787720000000  0.7153560000000 1.0
C      1  0.4402110000000  0.7158250000000  0.6220650000000 1.0
C      1  0.4401410000000  0.6168690000000  0.2818770000000 1.0
C      1  0.4393760000000  0.2848930000000  0.3786760000000 1.0
C      1  0.3334350000000  0.5017310000000  0.4208980000000 1.0
C      1  0.3340220000000  0.5818380000000  0.5015540000000 1.0
C      1  0.3331440000000  0.4994260000000  0.5798770000000 1.0
C      1  0.3332100000000  0.4193950000000  0.4991970000000 1.0
C      1  0.6654850000000  0.4974480000000  0.4189510000000 1.0
C      1  0.6652940000000  0.4195100000000  0.5020850000000 1.0
C      1  0.6652350000000  0.5020020000000  0.5806710000000 1.0
C      1  0.6652950000000  0.5799290000000  0.4975970000000 1.0
C      1  0.5958940000000  0.3332720000000  0.6802880000000 1.0
C      1  0.5956330000000  0.3196890000000  0.3333100000000 1.0
C      1  0.5923610000000  0.6696150000000  0.3245890000000 1.0
C      1  0.5955630000000  0.6799110000000  0.6664100000000 1.0
C      1  0.4117650000000  0.6621040000000  0.6799510000000 1.0
C      1  0.4091480000000  0.6760130000000  0.3312130000000 1.0
C      1  0.4116410000000  0.3385600000000  0.3202910000000 1.0
C      1  0.4116960000000  0.3205430000000  0.6618770000000 1.0
C      1  0.5447200000000  0.5972360000000  0.2707360000000 1.0
C      1  0.5432030000000  0.7310970000000  0.5949460000000 1.0
C      1  0.5428410000000  0.4037620000000  0.7314980000000 1.0
C      1  0.5425750000000  0.2687420000000  0.4039240000000 1.0
C      1  0.4672430000000  0.4020810000000  0.2648120000000 1.0
C      1  0.4669520000000  0.2650910000000  0.5983780000000 1.0
C      1  0.4668680000000  0.5986610000000  0.7355560000000 1.0
C      1  0.4557500000000  0.7342340000000  0.4018040000000 1.0
C      1  0.4954840000000  0.4984000000000  0.7669640000000 1.0
C      1  0.4953410000000  0.2331990000000  0.4984090000000 1.0
C      1  0.4955080000000  0.5029980000000  0.2341800000000 1.0
C      1  0.5004570000000  0.7668530000000  0.4989190000000 1.0
END
