TITL C-3036484-3770-254 2.24702869986587e-06 3375 -342.408786881323 0 0 60 (C1) n - 1
REM
REM in /home/bkarasulu/work/CARBON/AIRSS/Generating-Clusters/REBO/Higher-Symm/Only-C60
REM
REM
REM
REM
REM
REM ./C.cell (a2850807a9bf4ad07a5b6933b78d9264)
REM AIRSS Version 0.9.1 bugfix July 2018 build 013d7b7c2542+ Fri, 06 Jul 2018 19:26:36 +0100
REM compiler GCC version 9.2.1 20190827 (Red Hat 9.2.1-1)
REM options -cpp -mtune=generic -march=x86-64 -g -O0 -fpre-include=/usr/include/finclude/math-vector-fortran.h
REM seed -1680548187 1803742737 -782812147 -516148444 -727761863 -998831698 1863972450 604405563 -473627588 -2009264980 -916372207 1489867131 1844507695 2146148692 -1920017016 -1865817999 102610026 910645955 1387045976 -131825400 -135340370 1890492544 -1443041898 -1435904718 -1896495534 -122700376 -1546911612 1988358142 162936060 -512510805 -837754689 -1681684976 -1498252835
REM
CELL 1.54180   15.00000   15.00000   15.00000   90.00000   90.00000   90.00000
LATT -1
SFAC C  
C      1  0.4851580000000  0.4187140000000  0.3370450000000 1.0
C      1  0.4564600000000  0.6118770000000  0.4875650000000 1.0
C      1  0.6296670000000  0.4579070000000  0.3599420000000 1.0
C      1  0.1956080000000  0.2509420000000  0.4610380000000 1.0
C      1  0.3546660000000  0.4796780000000  0.4545170000000 1.0
C      1  0.6838190000000  0.4191240000000  0.4386560000000 1.0
C      1  0.4922820000000  0.7401420000000  0.3964180000000 1.0
C      1  0.4527370000000  0.4546040000000  0.5001580000000 1.0
C      1  0.4301630000000  0.2591070000000  0.5035180000000 1.0
C      1  0.7116910000000  0.6728970000000  0.4802740000000 1.0
C      1  0.4904360000000  0.7066810000000  0.5749230000000 1.0
C      1  0.7184330000000  0.5806200000000  0.4399710000000 1.0
C      1  0.5319880000000  0.5338120000000  0.4807870000000 1.0
C      1  0.4523640000000  0.7523240000000  0.4977660000000 1.0
C      1  0.2898850000000  0.3840730000000  0.5208630000000 1.0
C      1  0.6130120000000  0.4515960000000  0.5466110000000 1.0
C      1  0.3633860000000  0.2986400000000  0.4497650000000 1.0
C      1  0.5355320000000  0.6549050000000  0.6583890000000 1.0
C      1  0.5287250000000  0.2936530000000  0.6367060000000 1.0
C      1  0.4338560000000  0.5690410000000  0.2750910000000 1.0
C      1  0.2745000000000  0.4880540000000  0.5357230000000 1.0
C      1  0.4938980000000  0.4984100000000  0.2782760000000 1.0
C      1  0.4772320000000  0.3168270000000  0.3833650000000 1.0
C      1  0.4254940000000  0.6193050000000  0.5926440000000 1.0
C      1  0.2952760000000  0.5007310000000  0.6361680000000 1.0
C      1  0.3352050000000  0.6543150000000  0.5431050000000 1.0
C      1  0.6484230000000  0.3287720000000  0.4609840000000 1.0
C      1  0.3932440000000  0.3921620000000  0.3989750000000 1.0
C      1  0.5631600000000  0.6636950000000  0.3485100000000 1.0
C      1  0.3781560000000  0.4094120000000  0.5648380000000 1.0
C      1  0.3729750000000  0.5857590000000  0.4340190000000 1.0
C      1  0.6924330000000  0.5357070000000  0.6109170000000 1.0
C      1  0.6227770000000  0.6250960000000  0.6017310000000 1.0
C      1  0.5782510000000  0.3641570000000  0.3787560000000 1.0
C      1  0.2827690000000  0.5837070000000  0.4945870000000 1.0
C      1  0.5411290000000  0.3989340000000  0.5015050000000 1.0
C      1  0.4587930000000  0.6747580000000  0.3098090000000 1.0
C      1  0.2678940000000  0.3000440000000  0.4778820000000 1.0
C      1  0.6227920000000  0.5985830000000  0.3023920000000 1.0
C      1  0.5338730000000  0.4749980000000  0.7012150000000 1.0
C      1  0.4119300000000  0.3556390000000  0.6361230000000 1.0
C      1  0.6155190000000  0.5366120000000  0.4202520000000 1.0
C      1  0.6062480000000  0.2969910000000  0.5561560000000 1.0
C      1  0.5810980000000  0.5271520000000  0.2570970000000 1.0
C      1  0.7062300000000  0.5851090000000  0.3354510000000 1.0
C      1  0.6288860000000  0.6809700000000  0.5203740000000 1.0
C      1  0.5725120000000  0.5785220000000  0.7184760000000 1.0
C      1  0.6460350000000  0.3564540000000  0.6371810000000 1.0
C      1  0.4337250000000  0.2603140000000  0.6002220000000 1.0
C      1  0.5569320000000  0.5410240000000  0.5879970000000 1.0
C      1  0.3568310000000  0.7383610000000  0.5017330000000 1.0
C      1  0.5240340000000  0.2933140000000  0.4778030000000 1.0
C      1  0.6660860000000  0.5689190000000  0.7139040000000 1.0
C      1  0.7087540000000  0.4976500000000  0.5070000000000 1.0
C      1  0.4649300000000  0.5421990000000  0.6498490000000 1.0
C      1  0.6290520000000  0.4533530000000  0.6573330000000 1.0
C      1  0.5492080000000  0.6687070000000  0.4609950000000 1.0
C      1  0.4975850000000  0.3801250000000  0.6901620000000 1.0
C      1  0.3699720000000  0.6176750000000  0.3419670000000 1.0
C      1  0.3662910000000  0.5171450000000  0.6745220000000 1.0
END
