TITL C-3036486-2224-1187 -5.10228619515592e-06 3375 -324.810633103833 0 0 60 (C2) n - 1
REM
REM in /home/bkarasulu/work/CARBON/AIRSS/Generating-Clusters/REBO/Higher-Symm/Only-C60
REM
REM
REM
REM
REM
REM ./C.cell (a2850807a9bf4ad07a5b6933b78d9264)
REM AIRSS Version 0.9.1 bugfix July 2018 build 013d7b7c2542+ Fri, 06 Jul 2018 19:26:36 +0100
REM compiler GCC version 9.2.1 20190827 (Red Hat 9.2.1-1)
REM options -cpp -mtune=generic -march=x86-64 -g -O0 -fpre-include=/usr/include/finclude/math-vector-fortran.h
REM seed 486414129 -101831891 2142798475 -1836119362 1325472910 2068492852 1874838086 690043025 1950125470 2011822741 -1354920204 -823002159 1011452329 -2033627615 -1086948053 -834988985 -834774982 -179166424 -283475234 2131797074 66031410 109913516 1186323383 1678309122 586722224 -644560762 -1801382847 -1607579795 633699886 458268548 -1810150911 -901462236 1374790672
REM
CELL 1.54180   15.00000   15.00000   15.00000   90.00000   90.00000   90.00000
LATT -1
SFAC C  
C      1  0.4973300000000  0.5622160000000  0.5282970000000 1.0
C      1  0.4973300000000  0.4377840000000  0.4717030000000 1.0
C      1  0.4169160000000  0.5020090000000  0.4229920000000 1.0
C      1  0.4169160000000  0.4979910000000  0.5770080000000 1.0
C      1  0.5634810000000  0.3674210000000  0.3218440000000 1.0
C      1  0.5634810000000  0.6325790000000  0.6781560000000 1.0
C      1  0.4480280000000  0.2426190000000  0.5405480000000 1.0
C      1  0.4480280000000  0.7573810000000  0.4594520000000 1.0
C      1  0.3903930000000  0.7013940000000  0.3818200000000 1.0
C      1  0.3903930000000  0.2986060000000  0.6181800000000 1.0
C      1  0.6374670000000  0.3242610000000  0.4843880000000 1.0
C      1  0.6374670000000  0.6757390000000  0.5156120000000 1.0
C      1  0.4951790000000  0.7366790000000  0.3597790000000 1.0
C      1  0.4951790000000  0.2633210000000  0.6402210000000 1.0
C      1  0.6361140000000  0.5147310000000  0.2432870000000 1.0
C      1  0.6361140000000  0.4852690000000  0.7567130000000 1.0
C      1  0.7285490000000  0.5057890000000  0.5559610000000 1.0
C      1  0.7285490000000  0.4942110000000  0.4440390000000 1.0
C      1  0.4207500000000  0.6000650000000  0.4627560000000 1.0
C      1  0.4207500000000  0.3999350000000  0.5372440000000 1.0
C      1  0.4868190000000  0.5824940000000  0.2994510000000 1.0
C      1  0.4868190000000  0.4175060000000  0.7005490000000 1.0
C      1  0.4571180000000  0.6204680000000  0.6407720000000 1.0
C      1  0.4571180000000  0.3795320000000  0.3592280000000 1.0
C      1  0.3090340000000  0.5153940000000  0.6134450000000 1.0
C      1  0.3090340000000  0.4846060000000  0.3865550000000 1.0
C      1  0.3921510000000  0.5075630000000  0.6883830000000 1.0
C      1  0.3921510000000  0.4924370000000  0.3116170000000 1.0
C      1  0.5281040000000  0.2549090000000  0.4597100000000 1.0
C      1  0.5281040000000  0.7450910000000  0.5402900000000 1.0
C      1  0.6213940000000  0.5937460000000  0.2965530000000 1.0
C      1  0.6213940000000  0.4062540000000  0.7034470000000 1.0
C      1  0.4812800000000  0.4916580000000  0.2472710000000 1.0
C      1  0.4812800000000  0.5083420000000  0.7527290000000 1.0
C      1  0.5339560000000  0.5375850000000  0.6252820000000 1.0
C      1  0.5339560000000  0.4624150000000  0.3747180000000 1.0
C      1  0.3035260000000  0.4435570000000  0.4922250000000 1.0
C      1  0.3035260000000  0.5564430000000  0.5077750000000 1.0
C      1  0.4342270000000  0.3213970000000  0.4560510000000 1.0
C      1  0.4342270000000  0.6786030000000  0.5439490000000 1.0
C      1  0.6887220000000  0.5870190000000  0.4908320000000 1.0
C      1  0.6887220000000  0.4129810000000  0.5091680000000 1.0
C      1  0.5585510000000  0.4385260000000  0.6224010000000 1.0
C      1  0.5585510000000  0.5614740000000  0.3775990000000 1.0
C      1  0.5758560000000  0.2740800000000  0.5612820000000 1.0
C      1  0.5758560000000  0.7259200000000  0.4387180000000 1.0
C      1  0.5908840000000  0.6831370000000  0.3345550000000 1.0
C      1  0.5908840000000  0.3168630000000  0.6654450000000 1.0
C      1  0.5776590000000  0.5903790000000  0.4695230000000 1.0
C      1  0.5776590000000  0.4096210000000  0.5304770000000 1.0
C      1  0.6002880000000  0.7036570000000  0.6138720000000 1.0
C      1  0.6002880000000  0.2963430000000  0.3861280000000 1.0
C      1  0.3874880000000  0.6038540000000  0.3337580000000 1.0
C      1  0.3874880000000  0.3961460000000  0.6662420000000 1.0
C      1  0.5658050000000  0.5521710000000  0.7536560000000 1.0
C      1  0.5658050000000  0.4478290000000  0.2463440000000 1.0
C      1  0.3533670000000  0.6138710000000  0.5932000000000 1.0
C      1  0.3533670000000  0.3861290000000  0.4068000000000 1.0
C      1  0.3195650000000  0.3785990000000  0.5778950000000 1.0
C      1  0.3195650000000  0.6214010000000  0.4221050000000 1.0
END
