TITL C-3036482-790-1173 -4.73397101687647e-06 3375 -347.341761473826 0 0 60 (C5) n - 1
REM
REM in /home/bkarasulu/work/CARBON/AIRSS/Generating-Clusters/REBO/Higher-Symm/Only-C60
REM
REM
REM
REM
REM
REM ./C.cell (a2850807a9bf4ad07a5b6933b78d9264)
REM AIRSS Version 0.9.1 bugfix July 2018 build 013d7b7c2542+ Fri, 06 Jul 2018 19:26:36 +0100
REM compiler GCC version 9.2.1 20190827 (Red Hat 9.2.1-1)
REM options -cpp -mtune=generic -march=x86-64 -g -O0 -fpre-include=/usr/include/finclude/math-vector-fortran.h
REM seed 1839091459 2134526345 1214799935 -360722547 -15850676 1728760277 954874915 1135790890 -678954508 -1267991925 359811899 -1565361570 -906863181 -1783035898 -1785477616 -985143706 -68717674 -1690926507 -389554377 -2040216561 383033972 381701124 1830731108 -669558633 -291637183 963147646 -1888592177 -942328435 -1052070276 -561873656 -754586785 1036709215 -1141086482
REM
CELL 1.54180   15.00000   15.00000   15.00000   90.00000   90.00000   90.00000
LATT -1
SFAC C  
C      1  0.4586050000000  0.7078340000000  0.4306010000000 1.0
C      1  0.4212050000000  0.7078340000000  0.5179240000000 1.0
C      1  0.4926980000000  0.7078340000000  0.5804770000000 1.0
C      1  0.5742820000000  0.7078340000000  0.5318140000000 1.0
C      1  0.5532110000000  0.7078340000000  0.4391850000000 1.0
C      1  0.4586050000000  0.2921660000000  0.4306010000000 1.0
C      1  0.4212050000000  0.2921660000000  0.5179240000000 1.0
C      1  0.4926980000000  0.2921660000000  0.5804770000000 1.0
C      1  0.5742820000000  0.2921660000000  0.5318140000000 1.0
C      1  0.5532110000000  0.2921660000000  0.4391850000000 1.0
C      1  0.4857070000000  0.3597040000000  0.6509060000000 1.0
C      1  0.6391030000000  0.3597040000000  0.5602260000000 1.0
C      1  0.6002630000000  0.3597040000000  0.3863160000000 1.0
C      1  0.4228630000000  0.3597040000000  0.3695140000000 1.0
C      1  0.3520630000000  0.3597040000000  0.5330390000000 1.0
C      1  0.4857070000000  0.6402960000000  0.6509060000000 1.0
C      1  0.6391030000000  0.6402960000000  0.5602260000000 1.0
C      1  0.6002630000000  0.6402960000000  0.3863160000000 1.0
C      1  0.4228630000000  0.6402960000000  0.3695140000000 1.0
C      1  0.3520630000000  0.6402960000000  0.5330390000000 1.0
C      1  0.4009140000000  0.3826230000000  0.7245630000000 1.0
C      1  0.6829520000000  0.3826230000000  0.6636300000000 1.0
C      1  0.7121570000000  0.3826230000000  0.3765660000000 1.0
C      1  0.4481680000000  0.3826230000000  0.2600840000000 1.0
C      1  0.2558090000000  0.3826230000000  0.4751570000000 1.0
C      1  0.4009140000000  0.6173770000000  0.7245630000000 1.0
C      1  0.6829520000000  0.6173770000000  0.6636300000000 1.0
C      1  0.7121570000000  0.6173770000000  0.3765660000000 1.0
C      1  0.4481680000000  0.6173770000000  0.2600840000000 1.0
C      1  0.2558090000000  0.6173770000000  0.4751570000000 1.0
C      1  0.7285150000000  0.5474490000000  0.5889810000000 1.0
C      1  0.6552410000000  0.5474490000000  0.3101660000000 1.0
C      1  0.3674290000000  0.5474490000000  0.2936950000000 1.0
C      1  0.2628250000000  0.5474490000000  0.5623310000000 1.0
C      1  0.4859890000000  0.5474490000000  0.7448280000000 1.0
C      1  0.7285150000000  0.4525510000000  0.5889810000000 1.0
C      1  0.6552410000000  0.4525510000000  0.3101650000000 1.0
C      1  0.3674290000000  0.4525510000000  0.2936950000000 1.0
C      1  0.2628250000000  0.4525510000000  0.5623310000000 1.0
C      1  0.4859890000000  0.4525510000000  0.7448280000000 1.0
C      1  0.4361090000000  0.5441730000000  0.6212540000000 1.0
C      1  0.5955760000000  0.5441730000000  0.5982340000000 1.0
C      1  0.6229610000000  0.5441730000000  0.4394580000000 1.0
C      1  0.4804180000000  0.5441730000000  0.3643490000000 1.0
C      1  0.3649370000000  0.5441730000000  0.4767050000000 1.0
C      1  0.4361090000000  0.4558270000000  0.6212540000000 1.0
C      1  0.5955760000000  0.4558270000000  0.5982340000000 1.0
C      1  0.6229610000000  0.4558270000000  0.4394580000000 1.0
C      1  0.4804180000000  0.4558270000000  0.3643490000000 1.0
C      1  0.3649370000000  0.4558270000000  0.4767050000000 1.0
C      1  0.3245090000000  0.5959320000000  0.3868840000000 1.0
C      1  0.3381910000000  0.5959320000000  0.6319470000000 1.0
C      1  0.5754880000000  0.5959320000000  0.6946640000000 1.0
C      1  0.7084630000000  0.5959320000000  0.4883610000000 1.0
C      1  0.5533500000000  0.5959320000000  0.2981430000000 1.0
C      1  0.3245090000000  0.4040680000000  0.3868840000000 1.0
C      1  0.3381910000000  0.4040680000000  0.6319470000000 1.0
C      1  0.5754880000000  0.4040680000000  0.6946640000000 1.0
C      1  0.7084630000000  0.4040680000000  0.4883610000000 1.0
C      1  0.5533500000000  0.4040680000000  0.2981430000000 1.0
END
