TITL C-3036479-9801-965 -0.000575348189258951 3375 -346.1626304377 0 0 60 (C1) n - 1
REM
REM in /home/bkarasulu/work/CARBON/AIRSS/Generating-Clusters/REBO/Higher-Symm/Only-C60
REM
REM
REM
REM
REM
REM ./C.cell (a2850807a9bf4ad07a5b6933b78d9264)
REM AIRSS Version 0.9.1 bugfix July 2018 build 013d7b7c2542+ Fri, 06 Jul 2018 19:26:36 +0100
REM compiler GCC version 9.2.1 20190827 (Red Hat 9.2.1-1)
REM options -cpp -mtune=generic -march=x86-64 -g -O0 -fpre-include=/usr/include/finclude/math-vector-fortran.h
REM seed -1034847428 -2101906278 -1946265997 267693121 -1439264431 314098203 61454416 977068130 -423998838 266761681 39005560 -750502834 2129176809 -1325511735 -1899225340 1627584929 -462894095 425267386 -1348138436 1029534528 683674605 565373214 652783552 -40663698 -430325214 -947048744 1647665904 -1116670937 -934207256 1424736201 -1148473572 -878681947 -453665056
REM
CELL 1.54180   15.00000   15.00000   15.00000   90.00000   90.00000   90.00000
LATT -1
SFAC C  
C      1  0.6271960000000  0.5435310000000  0.4909040000000 1.0
C      1  0.4726530000000  0.5157490000000  0.3319660000000 1.0
C      1  0.6391150000000  0.6282430000000  0.3454660000000 1.0
C      1  0.5175170000000  0.2168520000000  0.4222550000000 1.0
C      1  0.7230880000000  0.5669420000000  0.5835640000000 1.0
C      1  0.4531830000000  0.5218850000000  0.5453090000000 1.0
C      1  0.5846610000000  0.5727880000000  0.2892630000000 1.0
C      1  0.4816440000000  0.6193930000000  0.2932110000000 1.0
C      1  0.3898130000000  0.4374900000000  0.5052380000000 1.0
C      1  0.2907920000000  0.3847580000000  0.4840720000000 1.0
C      1  0.4369930000000  0.3344220000000  0.5158860000000 1.0
C      1  0.5678920000000  0.3970180000000  0.5452210000000 1.0
C      1  0.4773440000000  0.2998460000000  0.4266590000000 1.0
C      1  0.5542710000000  0.5452300000000  0.6789040000000 1.0
C      1  0.4147210000000  0.3271670000000  0.3503380000000 1.0
C      1  0.4607220000000  0.4649330000000  0.4255460000000 1.0
C      1  0.3705530000000  0.5984720000000  0.6229200000000 1.0
C      1  0.3025800000000  0.3787220000000  0.5871340000000 1.0
C      1  0.3695100000000  0.5320110000000  0.4134320000000 1.0
C      1  0.5954620000000  0.4794650000000  0.2956880000000 1.0
C      1  0.4370740000000  0.6313140000000  0.5454540000000 1.0
C      1  0.6989950000000  0.4186910000000  0.4285740000000 1.0
C      1  0.2860090000000  0.4626740000000  0.4043400000000 1.0
C      1  0.4621120000000  0.3702550000000  0.2784730000000 1.0
C      1  0.4215910000000  0.6865930000000  0.4493460000000 1.0
C      1  0.5044300000000  0.7549910000000  0.4115540000000 1.0
C      1  0.2853140000000  0.4583750000000  0.6362640000000 1.0
C      1  0.4293350000000  0.4588120000000  0.2611130000000 1.0
C      1  0.3307540000000  0.3612100000000  0.3802420000000 1.0
C      1  0.6902630000000  0.4792850000000  0.5986320000000 1.0
C      1  0.6870880000000  0.5731560000000  0.4096700000000 1.0
C      1  0.2940760000000  0.5336530000000  0.4929850000000 1.0
C      1  0.6305690000000  0.4759490000000  0.6725190000000 1.0
C      1  0.3901510000000  0.3434970000000  0.6031920000000 1.0
C      1  0.4913020000000  0.5405180000000  0.7641770000000 1.0
C      1  0.5545020000000  0.4957610000000  0.5227470000000 1.0
C      1  0.6747400000000  0.6495500000000  0.6310340000000 1.0
C      1  0.5686930000000  0.6616050000000  0.4802060000000 1.0
C      1  0.5971330000000  0.3942630000000  0.7328880000000 1.0
C      1  0.3697390000000  0.4871470000000  0.1979030000000 1.0
C      1  0.5844440000000  0.3608430000000  0.6251110000000 1.0
C      1  0.3000270000000  0.5430870000000  0.5851030000000 1.0
C      1  0.3574980000000  0.4877740000000  0.6953170000000 1.0
C      1  0.6692130000000  0.6441650000000  0.5206240000000 1.0
C      1  0.5256090000000  0.6800070000000  0.5825910000000 1.0
C      1  0.5146300000000  0.6001500000000  0.4017220000000 1.0
C      1  0.5336170000000  0.3907260000000  0.4437670000000 1.0
C      1  0.6121170000000  0.4028930000000  0.3788960000000 1.0
C      1  0.4035610000000  0.5762300000000  0.7290970000000 1.0
C      1  0.4804690000000  0.7541030000000  0.5173350000000 1.0
C      1  0.4901500000000  0.3664700000000  0.7442560000000 1.0
C      1  0.5223300000000  0.4525340000000  0.7976990000000 1.0
C      1  0.4603060000000  0.4916880000000  0.6444060000000 1.0
C      1  0.5805890000000  0.6385530000000  0.6529880000000 1.0
C      1  0.5897620000000  0.7078150000000  0.3814830000000 1.0
C      1  0.6978880000000  0.4182250000000  0.5247380000000 1.0
C      1  0.7418110000000  0.4962980000000  0.3918950000000 1.0
C      1  0.5584020000000  0.3780480000000  0.2843760000000 1.0
C      1  0.4413200000000  0.3885310000000  0.6686600000000 1.0
C      1  0.4026820000000  0.6196460000000  0.3756470000000 1.0
END
