TITL C-3036483-1610-1160 0.0457030016493496 3375 -357.862483592627 0 0 60 (C5) n - 1
REM
REM in /home/bkarasulu/work/CARBON/AIRSS/Generating-Clusters/REBO/Higher-Symm/Only-C60
REM
REM
REM
REM
REM
REM ./C.cell (a2850807a9bf4ad07a5b6933b78d9264)
REM AIRSS Version 0.9.1 bugfix July 2018 build 013d7b7c2542+ Fri, 06 Jul 2018 19:26:36 +0100
REM compiler GCC version 9.2.1 20190827 (Red Hat 9.2.1-1)
REM options -cpp -mtune=generic -march=x86-64 -g -O0 -fpre-include=/usr/include/finclude/math-vector-fortran.h
REM seed -781934390 -222772537 44118563 1494285798 2056684948 2061735028 -2013771572 -781091454 306160811 -729345911 -648239598 -1260770082 -1777865710 -500587680 1357152729 -723684991 -595778065 -1923720736 -1023113496 1550408795 836080308 2053733294 1463681973 -1603757637 -403110816 -658195405 7798519 -106305556 -225554395 552608066 1780015708 1266450767 -1906398023
REM
CELL 1.54180   15.00000   15.00000   15.00000   90.00000   90.00000   90.00000
LATT -1
SFAC C  
C      1  0.4234210000000  0.5551110000000  0.5506630000000 1.0
C      1  0.5244580000000  0.5551180000000  0.5885310000000 1.0
C      1  0.5917660000000  0.5551830000000  0.5040590000000 1.0
C      1  0.5322460000000  0.5550950000000  0.4139880000000 1.0
C      1  0.4281800000000  0.5550850000000  0.4427420000000 1.0
C      1  0.4234140000000  0.4448880000000  0.5506830000000 1.0
C      1  0.5244540000000  0.4448800000000  0.5885360000000 1.0
C      1  0.5917550000000  0.4448340000000  0.5040630000000 1.0
C      1  0.5322280000000  0.4449200000000  0.4139870000000 1.0
C      1  0.4281560000000  0.4449180000000  0.4427480000000 1.0
C      1  0.5828470000000  0.2799640000000  0.5054480000000 1.0
C      1  0.5307750000000  0.2799720000000  0.4229170000000 1.0
C      1  0.4361840000000  0.2799700000000  0.4469050000000 1.0
C      1  0.4297710000000  0.2799470000000  0.5442700000000 1.0
C      1  0.5204160000000  0.2799630000000  0.5804560000000 1.0
C      1  0.5828480000000  0.7200480000000  0.5054540000000 1.0
C      1  0.5307850000000  0.7200420000000  0.4229170000000 1.0
C      1  0.4361910000000  0.7200380000000  0.4469020000000 1.0
C      1  0.4297660000000  0.7200580000000  0.5442690000000 1.0
C      1  0.5204080000000  0.7200380000000  0.5804580000000 1.0
C      1  0.7229070000000  0.4447620000000  0.4807440000000 1.0
C      1  0.5505440000000  0.4447860000000  0.2820570000000 1.0
C      1  0.3083260000000  0.4447390000000  0.3845590000000 1.0
C      1  0.3309700000000  0.4447430000000  0.6466170000000 1.0
C      1  0.5872240000000  0.4447710000000  0.7060450000000 1.0
C      1  0.7229310000000  0.5552610000000  0.4807610000000 1.0
C      1  0.5505720000000  0.5552440000000  0.2820490000000 1.0
C      1  0.3083180000000  0.5552700000000  0.3845420000000 1.0
C      1  0.3309530000000  0.5552680000000  0.6466140000000 1.0
C      1  0.5872190000000  0.5552270000000  0.7060470000000 1.0
C      1  0.7107280000000  0.5942050000000  0.5821270000000 1.0
C      1  0.6432180000000  0.5942130000000  0.3249850000000 1.0
C      1  0.3778040000000  0.5942000000000  0.3097110000000 1.0
C      1  0.2812490000000  0.5942050000000  0.5574200000000 1.0
C      1  0.4870150000000  0.5942060000000  0.7257750000000 1.0
C      1  0.7107300000000  0.4058080000000  0.5821120000000 1.0
C      1  0.6431960000000  0.4057680000000  0.3249420000000 1.0
C      1  0.3777720000000  0.4057850000000  0.3097110000000 1.0
C      1  0.2812460000000  0.4057890000000  0.5574390000000 1.0
C      1  0.4870310000000  0.4057800000000  0.7257910000000 1.0
C      1  0.5355660000000  0.6459510000000  0.6433440000000 1.0
C      1  0.6472980000000  0.6459580000000  0.5104790000000 1.0
C      1  0.5555070000000  0.6459900000000  0.3631250000000 1.0
C      1  0.3869640000000  0.6459610000000  0.4049310000000 1.0
C      1  0.3746500000000  0.6459610000000  0.5781230000000 1.0
C      1  0.5355720000000  0.3540470000000  0.6433460000000 1.0
C      1  0.6473090000000  0.3540670000000  0.5104700000000 1.0
C      1  0.5554960000000  0.3540260000000  0.3631220000000 1.0
C      1  0.3869570000000  0.3540430000000  0.4049390000000 1.0
C      1  0.3746460000000  0.3540360000000  0.5781350000000 1.0
C      1  0.4450850000000  0.4497980000000  0.2648840000000 1.0
C      1  0.2594210000000  0.4498210000000  0.4795610000000 1.0
C      1  0.4062180000000  0.4498020000000  0.7224880000000 1.0
C      1  0.6826140000000  0.4498370000000  0.6579300000000 1.0
C      1  0.7066500000000  0.4497900000000  0.3750950000000 1.0
C      1  0.4451270000000  0.5501600000000  0.2648970000000 1.0
C      1  0.2594360000000  0.5501620000000  0.4795440000000 1.0
C      1  0.4062060000000  0.5501660000000  0.7224630000000 1.0
C      1  0.6826090000000  0.5501630000000  0.6579360000000 1.0
C      1  0.7066470000000  0.5501590000000  0.3751460000000 1.0
END
