TITL C-3036483-1610-1100 2.93301591977208e-06 3375 -336.940487142164 0 0 60 (Th) n - 1
REM
REM in /home/bkarasulu/work/CARBON/AIRSS/Generating-Clusters/REBO/Higher-Symm/Only-C60
REM
REM
REM
REM
REM
REM ./C.cell (a2850807a9bf4ad07a5b6933b78d9264)
REM AIRSS Version 0.9.1 bugfix July 2018 build 013d7b7c2542+ Fri, 06 Jul 2018 19:26:36 +0100
REM compiler GCC version 9.2.1 20190827 (Red Hat 9.2.1-1)
REM options -cpp -mtune=generic -march=x86-64 -g -O0 -fpre-include=/usr/include/finclude/math-vector-fortran.h
REM seed 1850252812 869750601 -2009516878 55448899 1917296145 -433354697 -106193275 221152980 966919200 -1693195685 -679412937 -1237095051 8100437 -1304058923 -853600644 -572870261 -1053534898 -1187447 370726754 581400460 680168133 -1810318384 1772784351 655467442 997086946 -1392877915 9813642 -285512669 -1489573472 -607602879 590918158 -360208697 127113669
REM
CELL 1.54180   15.00000   15.00000   15.00000   90.00000   90.00000   90.00000
LATT -1
SFAC C  
C      1  0.5831300000000  0.5763390000000  0.3183890000000 1.0
C      1  0.5763390000000  0.3183890000000  0.5831300000000 1.0
C      1  0.3183890000000  0.5831300000000  0.5763390000000 1.0
C      1  0.4168700000000  0.5763390000000  0.6816110000000 1.0
C      1  0.4168700000000  0.4236610000000  0.3183890000000 1.0
C      1  0.5831300000000  0.4236610000000  0.6816110000000 1.0
C      1  0.4236610000000  0.3183890000000  0.4168700000000 1.0
C      1  0.4236610000000  0.6816110000000  0.5831300000000 1.0
C      1  0.5763390000000  0.6816110000000  0.4168700000000 1.0
C      1  0.6816110000000  0.5831300000000  0.4236610000000 1.0
C      1  0.6816110000000  0.4168700000000  0.5763390000000 1.0
C      1  0.3183890000000  0.4168700000000  0.4236610000000 1.0
C      1  0.5831300000000  0.4236610000000  0.3183890000000 1.0
C      1  0.5763390000000  0.6816110000000  0.5831300000000 1.0
C      1  0.3183890000000  0.4168700000000  0.5763390000000 1.0
C      1  0.4168700000000  0.4236610000000  0.6816110000000 1.0
C      1  0.4168700000000  0.5763390000000  0.3183890000000 1.0
C      1  0.5831300000000  0.5763390000000  0.6816110000000 1.0
C      1  0.4236610000000  0.6816110000000  0.4168700000000 1.0
C      1  0.4236610000000  0.3183890000000  0.5831300000000 1.0
C      1  0.5763390000000  0.3183890000000  0.4168700000000 1.0
C      1  0.6816110000000  0.4168700000000  0.4236610000000 1.0
C      1  0.6816110000000  0.5831300000000  0.5763390000000 1.0
C      1  0.3183890000000  0.5831300000000  0.4236610000000 1.0
C      1  0.5465610000000  0.7695720000000  0.5753520000000 1.0
C      1  0.7695720000000  0.5753520000000  0.5465610000000 1.0
C      1  0.5753520000000  0.5465610000000  0.7695720000000 1.0
C      1  0.4534390000000  0.7695720000000  0.4246480000000 1.0
C      1  0.4534390000000  0.2304280000000  0.5753520000000 1.0
C      1  0.5465610000000  0.2304280000000  0.4246480000000 1.0
C      1  0.2304280000000  0.5753520000000  0.4534390000000 1.0
C      1  0.2304280000000  0.4246480000000  0.5465610000000 1.0
C      1  0.7695720000000  0.4246480000000  0.4534390000000 1.0
C      1  0.4246480000000  0.5465610000000  0.2304280000000 1.0
C      1  0.4246480000000  0.4534390000000  0.7695720000000 1.0
C      1  0.5753520000000  0.4534390000000  0.2304280000000 1.0
C      1  0.5465610000000  0.2304280000000  0.5753520000000 1.0
C      1  0.7695720000000  0.4246480000000  0.5465610000000 1.0
C      1  0.5753520000000  0.4534390000000  0.7695720000000 1.0
C      1  0.4534390000000  0.2304280000000  0.4246480000000 1.0
C      1  0.4534390000000  0.7695720000000  0.5753520000000 1.0
C      1  0.5465610000000  0.7695720000000  0.4246480000000 1.0
C      1  0.2304280000000  0.4246480000000  0.4534390000000 1.0
C      1  0.2304280000000  0.5753520000000  0.5465610000000 1.0
C      1  0.7695720000000  0.5753520000000  0.4534390000000 1.0
C      1  0.4246480000000  0.4534390000000  0.2304280000000 1.0
C      1  0.4246480000000  0.5465610000000  0.7695720000000 1.0
C      1  0.5753520000000  0.5465610000000  0.2304280000000 1.0
C      1  0.6209790000000  0.6360920000000  0.5000000000000 1.0
C      1  0.6360920000000  0.5000000000000  0.6209790000000 1.0
C      1  0.5000000000000  0.6209790000000  0.6360920000000 1.0
C      1  0.3790210000000  0.6360920000000  0.5000000000000 1.0
C      1  0.3790210000000  0.3639080000000  0.5000000000000 1.0
C      1  0.6209790000000  0.3639080000000  0.5000000000000 1.0
C      1  0.3639080000000  0.5000000000000  0.3790210000000 1.0
C      1  0.3639080000000  0.5000000000000  0.6209790000000 1.0
C      1  0.6360920000000  0.5000000000000  0.3790210000000 1.0
C      1  0.5000000000000  0.6209790000000  0.3639080000000 1.0
C      1  0.5000000000000  0.3790210000000  0.6360920000000 1.0
C      1  0.5000000000000  0.3790210000000  0.3639080000000 1.0
END
