TITL C-3036482-790-937 0.0153283802167212 3375 -331.024013791737 0 0 60 (C1) n - 1
REM
REM in /home/bkarasulu/work/CARBON/AIRSS/Generating-Clusters/REBO/Higher-Symm/Only-C60
REM
REM
REM
REM
REM
REM ./C.cell (a2850807a9bf4ad07a5b6933b78d9264)
REM AIRSS Version 0.9.1 bugfix July 2018 build 013d7b7c2542+ Fri, 06 Jul 2018 19:26:36 +0100
REM compiler GCC version 9.2.1 20190827 (Red Hat 9.2.1-1)
REM options -cpp -mtune=generic -march=x86-64 -g -O0 -fpre-include=/usr/include/finclude/math-vector-fortran.h
REM seed 1245547445 1806947062 -1782608639 1331575900 148675537 -855705539 -1241423778 -532795239 1494570064 -1256144130 -1114142746 1566224890 -1697234044 975618818 1968383943 -1809837287 1063511230 1629575981 850102171 1851332311 396143639 -1193770970 -1249905525 625125536 -2025659461 328009306 -1955837078 1895584717 -1523479781 1075962014 -78340542 235047989 -1329045278
REM
CELL 1.54180   15.00000   15.00000   15.00000   90.00000   90.00000   90.00000
LATT -1
SFAC C  
C      1  0.5730680000000  0.5857770000000  0.5051610000000 1.0
C      1  0.5123690000000  0.4102200000000  0.3581620000000 1.0
C      1  0.5149930000000  0.5749240000000  0.6751490000000 1.0
C      1  0.6472150000000  0.3551250000000  0.3331870000000 1.0
C      1  0.3792390000000  0.5796650000000  0.3292150000000 1.0
C      1  0.4077940000000  0.3278530000000  0.3499550000000 1.0
C      1  0.5748870000000  0.5616700000000  0.4075720000000 1.0
C      1  0.5598870000000  0.2794250000000  0.5217310000000 1.0
C      1  0.3484730000000  0.4878500000000  0.3591680000000 1.0
C      1  0.3030110000000  0.4704970000000  0.6730910000000 1.0
C      1  0.3369280000000  0.5806920000000  0.6726510000000 1.0
C      1  0.6006070000000  0.4695050000000  0.3825390000000 1.0
C      1  0.3705530000000  0.5521290000000  0.5243110000000 1.0
C      1  0.2289920000000  0.5175260000000  0.6278610000000 1.0
C      1  0.6621980000000  0.5640530000000  0.3070740000000 1.0
C      1  0.4215300000000  0.4238460000000  0.3038510000000 1.0
C      1  0.4809060000000  0.5626270000000  0.5467640000000 1.0
C      1  0.4435830000000  0.6618710000000  0.5435130000000 1.0
C      1  0.3124570000000  0.3757850000000  0.5347850000000 1.0
C      1  0.6399990000000  0.4553590000000  0.2808400000000 1.0
C      1  0.7108680000000  0.4011070000000  0.5496470000000 1.0
C      1  0.4989500000000  0.7093590000000  0.4816660000000 1.0
C      1  0.6807280000000  0.5706080000000  0.5361410000000 1.0
C      1  0.5345510000000  0.6829760000000  0.6680880000000 1.0
C      1  0.4635690000000  0.5744650000000  0.2802350000000 1.0
C      1  0.2784210000000  0.5461950000000  0.4562320000000 1.0
C      1  0.5685240000000  0.4473390000000  0.5481800000000 1.0
C      1  0.3467250000000  0.6621340000000  0.5929480000000 1.0
C      1  0.5238770000000  0.3085260000000  0.3985580000000 1.0
C      1  0.6281540000000  0.3151610000000  0.4382140000000 1.0
C      1  0.2861160000000  0.4411150000000  0.4451170000000 1.0
C      1  0.6882190000000  0.6214510000000  0.3710050000000 1.0
C      1  0.4717480000000  0.6896290000000  0.3942070000000 1.0
C      1  0.4273270000000  0.6497360000000  0.6734290000000 1.0
C      1  0.5530610000000  0.3247660000000  0.6097950000000 1.0
C      1  0.5029260000000  0.4494700000000  0.7179900000000 1.0
C      1  0.4217580000000  0.5204030000000  0.7011090000000 1.0
C      1  0.3929190000000  0.3078160000000  0.5179390000000 1.0
C      1  0.5312220000000  0.6255260000000  0.3448930000000 1.0
C      1  0.6612230000000  0.4179580000000  0.4492180000000 1.0
C      1  0.3281670000000  0.6470000000000  0.4804390000000 1.0
C      1  0.5632190000000  0.5373990000000  0.2639660000000 1.0
C      1  0.3866340000000  0.4060970000000  0.4291900000000 1.0
C      1  0.3468340000000  0.3981270000000  0.6280540000000 1.0
C      1  0.5301300000000  0.3992250000000  0.4703840000000 1.0
C      1  0.4397510000000  0.4098750000000  0.5194630000000 1.0
C      1  0.3808020000000  0.6559410000000  0.3887960000000 1.0
C      1  0.4567410000000  0.3735720000000  0.6459680000000 1.0
C      1  0.5982440000000  0.6968600000000  0.5148250000000 1.0
C      1  0.4494270000000  0.4774070000000  0.5996310000000 1.0
C      1  0.4656240000000  0.2573290000000  0.4812550000000 1.0
C      1  0.2615290000000  0.5680770000000  0.5613550000000 1.0
C      1  0.6791170000000  0.6488980000000  0.4566730000000 1.0
C      1  0.6774470000000  0.4910430000000  0.6106650000000 1.0
C      1  0.6474770000000  0.3828910000000  0.6340460000000 1.0
C      1  0.7342960000000  0.4907020000000  0.4904460000000 1.0
C      1  0.5722510000000  0.3692800000000  0.7117080000000 1.0
C      1  0.5744890000000  0.4939530000000  0.6415660000000 1.0
C      1  0.8208790000000  0.5116960000000  0.4455130000000 1.0
C      1  0.5973640000000  0.7224860000000  0.6148640000000 1.0
END
