TITL C-3036479-9801-470 3.44540073019375e-06 3375 -337.070216593123 0 0 60 (C1) n - 1
REM
REM in /home/bkarasulu/work/CARBON/AIRSS/Generating-Clusters/REBO/Higher-Symm/Only-C60
REM
REM
REM
REM
REM
REM ./C.cell (a2850807a9bf4ad07a5b6933b78d9264)
REM AIRSS Version 0.9.1 bugfix July 2018 build 013d7b7c2542+ Fri, 06 Jul 2018 19:26:36 +0100
REM compiler GCC version 9.2.1 20190827 (Red Hat 9.2.1-1)
REM options -cpp -mtune=generic -march=x86-64 -g -O0 -fpre-include=/usr/include/finclude/math-vector-fortran.h
REM seed -1512869394 1167170032 -1116877375 1234716091 360227607 -280868480 -972009388 2099515177 -463257322 450164957 -1644032537 -1993754685 -2104344486 1685060947 916677507 201480476 390990778 -133950047 2003130182 743945128 -280398357 -823922800 -1660621396 1826303304 -141212322 66770634 -2120085818 1458566275 824699688 -562418084 530659008 -203843995 -130486351
REM
CELL 1.54180   15.00000   15.00000   15.00000   90.00000   90.00000   90.00000
LATT -1
SFAC C  
C      1  0.5411140000000  0.4867530000000  0.2498190000000 1.0
C      1  0.3423510000000  0.6514320000000  0.3884060000000 1.0
C      1  0.4392280000000  0.4213130000000  0.6945360000000 1.0
C      1  0.4286680000000  0.4961970000000  0.3986050000000 1.0
C      1  0.5439670000000  0.4077210000000  0.5592610000000 1.0
C      1  0.5194650000000  0.4919310000000  0.3914150000000 1.0
C      1  0.2534440000000  0.4120700000000  0.5179650000000 1.0
C      1  0.3798790000000  0.4009800000000  0.4773570000000 1.0
C      1  0.6097330000000  0.2951400000000  0.5375000000000 1.0
C      1  0.5973950000000  0.6874550000000  0.4167200000000 1.0
C      1  0.4871550000000  0.5818540000000  0.2708730000000 1.0
C      1  0.3577400000000  0.7007150000000  0.4864850000000 1.0
C      1  0.5475720000000  0.6590510000000  0.6664850000000 1.0
C      1  0.6338050000000  0.6109170000000  0.7108860000000 1.0
C      1  0.5428490000000  0.5494550000000  0.6362470000000 1.0
C      1  0.5899260000000  0.3664930000000  0.6559100000000 1.0
C      1  0.4922350000000  0.5031270000000  0.7249940000000 1.0
C      1  0.5333560000000  0.7062090000000  0.5722330000000 1.0
C      1  0.3596910000000  0.5460790000000  0.5921290000000 1.0
C      1  0.6941540000000  0.6308840000000  0.5379710000000 1.0
C      1  0.6573600000000  0.3982160000000  0.5460550000000 1.0
C      1  0.6966110000000  0.5825740000000  0.6349590000000 1.0
C      1  0.4896260000000  0.3460330000000  0.6637310000000 1.0
C      1  0.4195660000000  0.7003290000000  0.5819380000000 1.0
C      1  0.2941580000000  0.4488260000000  0.4243810000000 1.0
C      1  0.2716220000000  0.4062090000000  0.5990710000000 1.0
C      1  0.6950870000000  0.4010610000000  0.4072160000000 1.0
C      1  0.4351010000000  0.4343440000000  0.5620470000000 1.0
C      1  0.5082580000000  0.7003500000000  0.3980210000000 1.0
C      1  0.4007170000000  0.2910900000000  0.4700540000000 1.0
C      1  0.6227950000000  0.5239760000000  0.5711320000000 1.0
C      1  0.5215420000000  0.2787290000000  0.5830440000000 1.0
C      1  0.6123500000000  0.3440000000000  0.3196350000000 1.0
C      1  0.4730150000000  0.5293520000000  0.1775360000000 1.0
C      1  0.2662000000000  0.4038250000000  0.3471050000000 1.0
C      1  0.6325950000000  0.4875850000000  0.3853430000000 1.0
C      1  0.6720820000000  0.3938400000000  0.6783520000000 1.0
C      1  0.3565570000000  0.4502040000000  0.6355690000000 1.0
C      1  0.5818510000000  0.5198840000000  0.4779260000000 1.0
C      1  0.3151070000000  0.6031630000000  0.5085260000000 1.0
C      1  0.2926320000000  0.5517400000000  0.4142730000000 1.0
C      1  0.4649130000000  0.7286440000000  0.4836190000000 1.0
C      1  0.3576090000000  0.5879570000000  0.2990070000000 1.0
C      1  0.7190570000000  0.4666450000000  0.4843460000000 1.0
C      1  0.4568890000000  0.3635810000000  0.4084850000000 1.0
C      1  0.4926970000000  0.5291280000000  0.5454920000000 1.0
C      1  0.5939580000000  0.5385750000000  0.7602380000000 1.0
C      1  0.4542160000000  0.3704880000000  0.3170630000000 1.0
C      1  0.7100130000000  0.4712660000000  0.6171980000000 1.0
C      1  0.3923670000000  0.6272370000000  0.6444790000000 1.0
C      1  0.4488570000000  0.2442500000000  0.5310470000000 1.0
C      1  0.5449940000000  0.3748810000000  0.4562990000000 1.0
C      1  0.4576810000000  0.6110160000000  0.7156950000000 1.0
C      1  0.3741330000000  0.5008950000000  0.3219600000000 1.0
C      1  0.6318250000000  0.3166750000000  0.4279630000000 1.0
C      1  0.4431080000000  0.6545050000000  0.3351600000000 1.0
C      1  0.6202250000000  0.6819660000000  0.5103430000000 1.0
C      1  0.7295380000000  0.5595540000000  0.4827810000000 1.0
C      1  0.4029850000000  0.5379780000000  0.4862700000000 1.0
C      1  0.5963760000000  0.4336480000000  0.3008450000000 1.0
END
