TITL C-3036484-3770-1074 0.0180146527029023 3375 -321.770342623198 0 0 60 (Ci) n - 1
REM
REM in /home/bkarasulu/work/CARBON/AIRSS/Generating-Clusters/REBO/Higher-Symm/Only-C60
REM
REM
REM
REM
REM
REM ./C.cell (a2850807a9bf4ad07a5b6933b78d9264)
REM AIRSS Version 0.9.1 bugfix July 2018 build 013d7b7c2542+ Fri, 06 Jul 2018 19:26:36 +0100
REM compiler GCC version 9.2.1 20190827 (Red Hat 9.2.1-1)
REM options -cpp -mtune=generic -march=x86-64 -g -O0 -fpre-include=/usr/include/finclude/math-vector-fortran.h
REM seed 183799751 649143790 1927916524 -2049543928 -1666021065 1641089423 1988880478 -153046716 107571065 -1866718759 -233060566 881436320 -1042043366 2079974828 -2121489588 2111350300 1024197557 -1719127740 31773125 603990284 1336972661 -1498933945 -330068352 1265230633 1212229907 1420513102 -1975369088 -403740150 -1084645858 -1612460402 1183541853 140136528 -1590708659
REM
CELL 1.54180   15.00000   15.00000   15.00000   90.00000   90.00000   90.00000
LATT -1
SFAC C  
C      1  0.5378150000000  0.3600620000000  0.5166700000000 1.0
C      1  0.4301950000000  0.4202810000000  0.4679290000000 1.0
C      1  0.3884930000000  0.5356290000000  0.5184530000000 1.0
C      1  0.4621980000000  0.6400250000000  0.4835550000000 1.0
C      1  0.5698960000000  0.5798310000000  0.5322410000000 1.0
C      1  0.6112960000000  0.4645020000000  0.4813270000000 1.0
C      1  0.7285830000000  0.4987400000000  0.5333680000000 1.0
C      1  0.6317630000000  0.2856670000000  0.4604930000000 1.0
C      1  0.4062010000000  0.3056530000000  0.5309080000000 1.0
C      1  0.2712450000000  0.5016180000000  0.4661930000000 1.0
C      1  0.3686510000000  0.7146210000000  0.5402080000000 1.0
C      1  0.5936880000000  0.6944430000000  0.4691500000000 1.0
C      1  0.6726130000000  0.5714320000000  0.5745220000000 1.0
C      1  0.6672730000000  0.3832440000000  0.4240000000000 1.0
C      1  0.4828360000000  0.3020450000000  0.5971890000000 1.0
C      1  0.3271860000000  0.4282120000000  0.4260690000000 1.0
C      1  0.3326310000000  0.6168880000000  0.5759030000000 1.0
C      1  0.5169240000000  0.6982260000000  0.4030090000000 1.0
C      1  0.5072630000000  0.5980930000000  0.2952210000000 1.0
C      1  0.5963430000000  0.5478890000000  0.7232660000000 1.0
C      1  0.5814960000000  0.4428380000000  0.2884610000000 1.0
C      1  0.4915560000000  0.3995210000000  0.7048230000000 1.0
C      1  0.4031460000000  0.4506310000000  0.2761460000000 1.0
C      1  0.4179380000000  0.5570660000000  0.7116450000000 1.0
C      1  0.5336830000000  0.5692550000000  0.4310590000000 1.0
C      1  0.5629690000000  0.4763720000000  0.5765230000000 1.0
C      1  0.5530800000000  0.3933720000000  0.4142020000000 1.0
C      1  0.4665900000000  0.4310640000000  0.5691730000000 1.0
C      1  0.4376450000000  0.5236280000000  0.4235210000000 1.0
C      1  0.4467540000000  0.6064110000000  0.5859480000000 1.0
C      1  0.3251740000000  0.3669800000000  0.6589910000000 1.0
C      1  0.2944390000000  0.5750390000000  0.3313150000000 1.0
C      1  0.4723340000000  0.7205680000000  0.6687940000000 1.0
C      1  0.6737750000000  0.6337810000000  0.3404140000000 1.0
C      1  0.7076920000000  0.4257870000000  0.6684700000000 1.0
C      1  0.5280550000000  0.2791620000000  0.3317700000000 1.0
C      1  0.5728870000000  0.3532660000000  0.6437670000000 1.0
C      1  0.3905110000000  0.3713290000000  0.3513050000000 1.0
C      1  0.3473700000000  0.5288530000000  0.6444360000000 1.0
C      1  0.4263770000000  0.6476290000000  0.3567310000000 1.0
C      1  0.6091160000000  0.6285670000000  0.6490920000000 1.0
C      1  0.6523090000000  0.4711640000000  0.3553210000000 1.0
C      1  0.6686890000000  0.6465050000000  0.4392970000000 1.0
C      1  0.7213850000000  0.4144610000000  0.5752630000000 1.0
C      1  0.5461820000000  0.2600680000000  0.4251200000000 1.0
C      1  0.3310220000000  0.3535540000000  0.5602300000000 1.0
C      1  0.2792140000000  0.5857000000000  0.4241810000000 1.0
C      1  0.4542370000000  0.7399020000000  0.5755270000000 1.0
C      1  0.3958560000000  0.5429600000000  0.3220270000000 1.0
C      1  0.5005770000000  0.6186050000000  0.6782200000000 1.0
C      1  0.5934590000000  0.5626990000000  0.3454610000000 1.0
C      1  0.6063090000000  0.4572720000000  0.6761230000000 1.0
C      1  0.4990600000000  0.3809020000000  0.3220750000000 1.0
C      1  0.4062770000000  0.4373420000000  0.6543550000000 1.0
C      1  0.3168450000000  0.4598680000000  0.5583750000000 1.0
C      1  0.3562250000000  0.6526510000000  0.4459350000000 1.0
C      1  0.5531890000000  0.6863140000000  0.5685690000000 1.0
C      1  0.6830800000000  0.5402020000000  0.4412560000000 1.0
C      1  0.6435050000000  0.3478800000000  0.5547670000000 1.0
C      1  0.4468990000000  0.3137310000000  0.4316370000000 1.0
END
