TITL C-3036479-9801-347 7.55775512116395e-06 3375 -334.915498730809 0 0 60 (C5) n - 1
REM
REM in /home/bkarasulu/work/CARBON/AIRSS/Generating-Clusters/REBO/Higher-Symm/Only-C60
REM
REM
REM
REM
REM
REM ./C.cell (a2850807a9bf4ad07a5b6933b78d9264)
REM AIRSS Version 0.9.1 bugfix July 2018 build 013d7b7c2542+ Fri, 06 Jul 2018 19:26:36 +0100
REM compiler GCC version 9.2.1 20190827 (Red Hat 9.2.1-1)
REM options -cpp -mtune=generic -march=x86-64 -g -O0 -fpre-include=/usr/include/finclude/math-vector-fortran.h
REM seed 20603936 -1159324396 -819162057 987120627 -1285366772 -1289130101 -1693743282 -233285781 1587839227 1251694920 -11529542 376438815 841506270 630769950 271484070 -470892857 -1617901838 2072403312 1268716482 -1152832901 652416633 1590690245 -757561894 79413419 -57958300 -567612852 -117135157 -723186490 2144448032 504727316 -196174407 -933489496 -783534976
REM
CELL 1.54180   15.00000   15.00000   15.00000   90.00000   90.00000   90.00000
LATT -1
SFAC C  
C      1  0.3940340000000  0.7359650000000  0.5783830000000 1.0
C      1  0.3940700000000  0.6474790000000  0.2997980000000 1.0
C      1  0.3940620000000  0.3551860000000  0.2978660000000 1.0
C      1  0.3940220000000  0.2630240000000  0.5752560000000 1.0
C      1  0.3940040000000  0.4983590000000  0.7486250000000 1.0
C      1  0.7283130000000  0.6651480000000  0.5324100000000 1.0
C      1  0.7283360000000  0.5818230000000  0.3529680000000 1.0
C      1  0.7283270000000  0.3854130000000  0.3767600000000 1.0
C      1  0.7283000000000  0.3473520000000  0.5709100000000 1.0
C      1  0.7282910000000  0.5202360000000  0.6671080000000 1.0
C      1  0.4146680000000  0.4634380000000  0.2845440000000 1.0
C      1  0.4146380000000  0.2838040000000  0.4681870000000 1.0
C      1  0.4146110000000  0.4029480000000  0.6957780000000 1.0
C      1  0.4146230000000  0.6562180000000  0.6527950000000 1.0
C      1  0.4146590000000  0.6936030000000  0.3986380000000 1.0
C      1  0.5434290000000  0.5547650000000  0.5599570000000 1.0
C      1  0.5434420000000  0.5739400000000  0.4664470000000 1.0
C      1  0.5434470000000  0.4909310000000  0.4193140000000 1.0
C      1  0.5434360000000  0.4204540000000  0.4836950000000 1.0
C      1  0.5434250000000  0.4599050000000  0.5706170000000 1.0
C      1  0.5091300000000  0.6522480000000  0.4364240000000 1.0
C      1  0.5091400000000  0.4865820000000  0.3355580000000 1.0
C      1  0.5091180000000  0.3394590000000  0.4619460000000 1.0
C      1  0.5090960000000  0.4141980000000  0.6409250000000 1.0
C      1  0.5091030000000  0.6075120000000  0.6251520000000 1.0
C      1  0.5575730000000  0.5259030000000  0.7183910000000 1.0
C      1  0.5576020000000  0.7156980000000  0.5428550000000 1.0
C      1  0.5576320000000  0.6074030000000  0.3081070000000 1.0
C      1  0.5576200000000  0.3506790000000  0.3385590000000 1.0
C      1  0.5575850000000  0.3003100000000  0.5921280000000 1.0
C      1  0.2971730000000  0.5199370000000  0.4083390000000 1.0
C      1  0.2971650000000  0.4190160000000  0.4527000000000 1.0
C      1  0.2971500000000  0.4300190000000  0.5623890000000 1.0
C      1  0.2971490000000  0.5377410000000  0.5858210000000 1.0
C      1  0.2971640000000  0.5933130000000  0.4906120000000 1.0
C      1  0.4945510000000  0.2260350000000  0.5572400000000 1.0
C      1  0.4945260000000  0.4697800000000  0.7782440000000 1.0
C      1  0.4945560000000  0.7552880000000  0.6147230000000 1.0
C      1  0.4945990000000  0.6879970000000  0.2926580000000 1.0
C      1  0.4945940000000  0.3609000000000  0.2571310000000 1.0
C      1  0.3314360000000  0.6232830000000  0.3903630000000 1.0
C      1  0.3314360000000  0.4338510000000  0.3488600000000 1.0
C      1  0.3314110000000  0.3358410000000  0.5161950000000 1.0
C      1  0.3313940000000  0.4646990000000  0.6611170000000 1.0
C      1  0.3314090000000  0.6423480000000  0.5833490000000 1.0
C      1  0.6356550000000  0.3476420000000  0.4208330000000 1.0
C      1  0.6356300000000  0.3776070000000  0.6204470000000 1.0
C      1  0.6356290000000  0.5767110000000  0.6536330000000 1.0
C      1  0.6356570000000  0.6697980000000  0.4745290000000 1.0
C      1  0.6356730000000  0.5282250000000  0.3306510000000 1.0
C      1  0.4582490000000  0.5826230000000  0.7205880000000 1.0
C      1  0.4582840000000  0.7353300000000  0.4895830000000 1.0
C      1  0.4583100000000  0.5628200000000  0.2729660000000 1.0
C      1  0.4582890000000  0.3034960000000  0.3700940000000 1.0
C      1  0.4582530000000  0.3157350000000  0.6467400000000 1.0
C      1  0.6358040000000  0.4326670000000  0.3430040000000 1.0
C      1  0.6357780000000  0.3298610000000  0.5155320000000 1.0
C      1  0.6357610000000  0.4621760000000  0.6666210000000 1.0
C      1  0.6357760000000  0.6467580000000  0.5874710000000 1.0
C      1  0.6358030000000  0.6285200000000  0.3874650000000 1.0
END
