TITL C-3036484-3770-308 0.000170295105146597 3375 -344.691501302636 0 0 60 (C1) n - 1
REM
REM in /home/bkarasulu/work/CARBON/AIRSS/Generating-Clusters/REBO/Higher-Symm/Only-C60
REM
REM
REM
REM
REM
REM ./C.cell (a2850807a9bf4ad07a5b6933b78d9264)
REM AIRSS Version 0.9.1 bugfix July 2018 build 013d7b7c2542+ Fri, 06 Jul 2018 19:26:36 +0100
REM compiler GCC version 9.2.1 20190827 (Red Hat 9.2.1-1)
REM options -cpp -mtune=generic -march=x86-64 -g -O0 -fpre-include=/usr/include/finclude/math-vector-fortran.h
REM seed 1581611882 -2142625233 -400420619 1403006128 1388148448 -1150482107 -1998868875 1191463250 -2033877660 -1148051640 -604058457 841459422 -1470441478 -1665755284 1567483639 -1680108795 -1969423058 -495936365 -1527368215 1172868772 1185947234 -202917546 1081665626 -1531892722 331180597 58399743 1433989414 1381386638 -172168984 294268246 -1927009881 -1218292271 854213692
REM
CELL 1.54180   15.00000   15.00000   15.00000   90.00000   90.00000   90.00000
LATT -1
SFAC C  
C      1  0.2948030000000  0.5743720000000  0.5636630000000 1.0
C      1  0.2943150000000  0.5174380000000  0.4044850000000 1.0
C      1  0.2937880000000  0.4092450000000  0.5325800000000 1.0
C      1  0.6153800000000  0.5944030000000  0.3259350000000 1.0
C      1  0.6155070000000  0.3023300000000  0.5056780000000 1.0
C      1  0.6162670000000  0.6056470000000  0.6692440000000 1.0
C      1  0.3237170000000  0.4090890000000  0.4240590000000 1.0
C      1  0.3247580000000  0.4801900000000  0.6163040000000 1.0
C      1  0.3241910000000  0.6101920000000  0.4595230000000 1.0
C      1  0.4495440000000  0.5126070000000  0.5846220000000 1.0
C      1  0.4493250000000  0.5685740000000  0.4444040000000 1.0
C      1  0.4485510000000  0.4171120000000  0.4680790000000 1.0
C      1  0.6398560000000  0.3489260000000  0.4229920000000 1.0
C      1  0.6406180000000  0.5103920000000  0.6711630000000 1.0
C      1  0.6397260000000  0.6433470000000  0.4073670000000 1.0
C      1  0.4799150000000  0.2948270000000  0.4256790000000 1.0
C      1  0.4812330000000  0.5365990000000  0.7117970000000 1.0
C      1  0.4796730000000  0.6666680000000  0.3596110000000 1.0
C      1  0.7074990000000  0.5863150000000  0.4533620000000 1.0
C      1  0.7074980000000  0.4171160000000  0.4498110000000 1.0
C      1  0.7082210000000  0.4984310000000  0.5981960000000 1.0
C      1  0.4865900000000  0.5126080000000  0.2722500000000 1.0
C      1  0.4869580000000  0.2935090000000  0.6026530000000 1.0
C      1  0.4865510000000  0.6916480000000  0.6246080000000 1.0
C      1  0.6572440000000  0.6491850000000  0.5943930000000 1.0
C      1  0.6568540000000  0.5080420000000  0.3248640000000 1.0
C      1  0.6564310000000  0.3442420000000  0.5817490000000 1.0
C      1  0.5057430000000  0.4602640000000  0.3932710000000 1.0
C      1  0.5049000000000  0.4247020000000  0.5874530000000 1.0
C      1  0.5060210000000  0.6127950000000  0.5190160000000 1.0
C      1  0.5518510000000  0.4582090000000  0.7073110000000 1.0
C      1  0.5488540000000  0.7050150000000  0.4330100000000 1.0
C      1  0.5490820000000  0.3399220000000  0.3562040000000 1.0
C      1  0.5913700000000  0.4571530000000  0.5443910000000 1.0
C      1  0.5917510000000  0.5580690000000  0.5163240000000 1.0
C      1  0.5918600000000  0.4831490000000  0.4429570000000 1.0
C      1  0.4863540000000  0.3550710000000  0.6978540000000 1.0
C      1  0.4882920000000  0.7431620000000  0.5230160000000 1.0
C      1  0.4885750000000  0.3988370000000  0.2781200000000 1.0
C      1  0.3980120000000  0.4077150000000  0.3351590000000 1.0
C      1  0.3974170000000  0.4026270000000  0.6627690000000 1.0
C      1  0.3977970000000  0.6886880000000  0.5027060000000 1.0
C      1  0.5878440000000  0.6893330000000  0.5382810000000 1.0
C      1  0.5878870000000  0.4390840000000  0.3174570000000 1.0
C      1  0.5863110000000  0.3709450000000  0.6456780000000 1.0
C      1  0.1953370000000  0.5121470000000  0.4392030000000 1.0
C      1  0.1950350000000  0.4429730000000  0.5214160000000 1.0
C      1  0.1956590000000  0.5487860000000  0.5402480000000 1.0
C      1  0.5201650000000  0.5960780000000  0.3072500000000 1.0
C      1  0.5205850000000  0.2839960000000  0.5128020000000 1.0
C      1  0.5205140000000  0.6196220000000  0.6790480000000 1.0
C      1  0.3897630000000  0.3197180000000  0.4008240000000 1.0
C      1  0.3929150000000  0.5036210000000  0.7039850000000 1.0
C      1  0.3898460000000  0.6753430000000  0.3938050000000 1.0
C      1  0.7166090000000  0.5008170000000  0.4016200000000 1.0
C      1  0.7167350000000  0.4145710000000  0.5499780000000 1.0
C      1  0.7169260000000  0.5861640000000  0.5498450000000 1.0
C      1  0.4008150000000  0.3933050000000  0.5513330000000 1.0
C      1  0.4024100000000  0.5970430000000  0.5656820000000 1.0
C      1  0.4017580000000  0.5080200000000  0.3829130000000 1.0
END
