TITL C-3036483-1610-1006 -2.00457443136803e-06 3375 -322.486141517185 0 0 60 (C2) n - 1
REM
REM in /home/bkarasulu/work/CARBON/AIRSS/Generating-Clusters/REBO/Higher-Symm/Only-C60
REM
REM
REM
REM
REM
REM ./C.cell (a2850807a9bf4ad07a5b6933b78d9264)
REM AIRSS Version 0.9.1 bugfix July 2018 build 013d7b7c2542+ Fri, 06 Jul 2018 19:26:36 +0100
REM compiler GCC version 9.2.1 20190827 (Red Hat 9.2.1-1)
REM options -cpp -mtune=generic -march=x86-64 -g -O0 -fpre-include=/usr/include/finclude/math-vector-fortran.h
REM seed 1258773818 1642491412 1825237723 1227746645 -1866489466 -29112567 1728700241 -449670271 -1964216046 -1640243422 -1420280088 1240250152 1335381182 391411585 -583386391 -1161355934 -1262063044 1021537015 296525686 -747099705 517583706 -646379663 724540512 1493612706 1053515844 683843310 -66789436 1420287030 -1350731363 1184591019 935011871 -102171603 -637188241
REM
CELL 1.54180   15.00000   15.00000   15.00000   90.00000   90.00000   90.00000
LATT -1
SFAC C  
C      1  0.6759370000000  0.5812980000000  0.6455030000000 1.0
C      1  0.5871630000000  0.6437370000000  0.6776580000000 1.0
C      1  0.6499030000000  0.6752600000000  0.5891100000000 1.0
C      1  0.6811150000000  0.4138080000000  0.3539770000000 1.0
C      1  0.3188840000000  0.5861880000000  0.3539740000000 1.0
C      1  0.3240640000000  0.4187070000000  0.6455050000000 1.0
C      1  0.5933930000000  0.3498910000000  0.3211230000000 1.0
C      1  0.4066070000000  0.6501040000000  0.3211190000000 1.0
C      1  0.4128370000000  0.3562680000000  0.6776630000000 1.0
C      1  0.6547760000000  0.3196900000000  0.4108660000000 1.0
C      1  0.3452230000000  0.6803070000000  0.4108610000000 1.0
C      1  0.3500970000000  0.3247430000000  0.5891150000000 1.0
C      1  0.3211790000000  0.5941510000000  0.6505320000000 1.0
C      1  0.4123540000000  0.6538050000000  0.6790280000000 1.0
C      1  0.3536470000000  0.6821470000000  0.5867020000000 1.0
C      1  0.3250370000000  0.4104460000000  0.3494180000000 1.0
C      1  0.6749630000000  0.5895500000000  0.3494150000000 1.0
C      1  0.6788210000000  0.4058540000000  0.6505350000000 1.0
C      1  0.4181460000000  0.3531400000000  0.3225120000000 1.0
C      1  0.5818530000000  0.6468550000000  0.3225080000000 1.0
C      1  0.5876460000000  0.3462010000000  0.6790320000000 1.0
C      1  0.3581380000000  0.3231510000000  0.4135700000000 1.0
C      1  0.6418620000000  0.6768470000000  0.4135650000000 1.0
C      1  0.6463530000000  0.3178560000000  0.5867070000000 1.0
C      1  0.5548440000000  0.3111280000000  0.4425910000000 1.0
C      1  0.3133160000000  0.4571290000000  0.5481650000000 1.0
C      1  0.4408630000000  0.5508600000000  0.3138710000000 1.0
C      1  0.5502940000000  0.6870520000000  0.5572620000000 1.0
C      1  0.4497060000000  0.3129490000000  0.5572670000000 1.0
C      1  0.4451560000000  0.6888690000000  0.4425850000000 1.0
C      1  0.3104020000000  0.5476000000000  0.4515370000000 1.0
C      1  0.6895980000000  0.4523990000000  0.4515390000000 1.0
C      1  0.6866850000000  0.5428730000000  0.5481630000000 1.0
C      1  0.4534400000000  0.4530080000000  0.6873810000000 1.0
C      1  0.5465600000000  0.5469970000000  0.6873800000000 1.0
C      1  0.5591360000000  0.4491340000000  0.3138730000000 1.0
C      1  0.4547670000000  0.3112970000000  0.4536680000000 1.0
C      1  0.6878260000000  0.4393280000000  0.5513200000000 1.0
C      1  0.5447060000000  0.5487660000000  0.3129070000000 1.0
C      1  0.4504040000000  0.6906070000000  0.5460430000000 1.0
C      1  0.5495960000000  0.3093940000000  0.5460480000000 1.0
C      1  0.5452330000000  0.6887010000000  0.4536620000000 1.0
C      1  0.6851100000000  0.5558930000000  0.4485120000000 1.0
C      1  0.3148900000000  0.4441060000000  0.4485140000000 1.0
C      1  0.3121740000000  0.5606740000000  0.5513180000000 1.0
C      1  0.5572320000000  0.4468280000000  0.6864520000000 1.0
C      1  0.4427680000000  0.5531780000000  0.6864510000000 1.0
C      1  0.4552940000000  0.4512290000000  0.3129080000000 1.0
C      1  0.2949370000000  0.6969000000000  0.5009980000000 1.0
C      1  0.7050630000000  0.3031000000000  0.5010030000000 1.0
C      1  0.6934860000000  0.5010470000000  0.2970530000000 1.0
C      1  0.4971600000000  0.2966250000000  0.6942240000000 1.0
C      1  0.2993260000000  0.3090050000000  0.4991800000000 1.0
C      1  0.7006730000000  0.6909950000000  0.4991740000000 1.0
C      1  0.6925900000000  0.4953220000000  0.7028000000000 1.0
C      1  0.3074100000000  0.5046840000000  0.7028000000000 1.0
C      1  0.3065130000000  0.4989470000000  0.2970530000000 1.0
C      1  0.4952990000000  0.7031670000000  0.3060360000000 1.0
C      1  0.5047000000000  0.2968270000000  0.3060420000000 1.0
C      1  0.5028400000000  0.7033800000000  0.6942180000000 1.0
END
