TITL C-3036485-3770-910 -0.743175693409808 3375 -373.867440579111 0 0 60 (Td) n - 1
REM
REM in /home/bkarasulu/work/CARBON/AIRSS/Generating-Clusters/REBO/Higher-Symm/Only-C60
REM
REM
REM
REM
REM
REM ./C.cell (a2850807a9bf4ad07a5b6933b78d9264)
REM AIRSS Version 0.9.1 bugfix July 2018 build 013d7b7c2542+ Fri, 06 Jul 2018 19:26:36 +0100
REM compiler GCC version 9.2.1 20190827 (Red Hat 9.2.1-1)
REM options -cpp -mtune=generic -march=x86-64 -g -O0 -fpre-include=/usr/include/finclude/math-vector-fortran.h
REM seed -13118071 -1353956291 -1464646689 1141181841 1043217346 1411236098 1629738454 -528805380 840215092 -1703499581 833575271 1043345664 1282108060 -492539023 112811886 1324785913 -1494537713 -2012400763 736817115 1727101936 -744304313 -1906924647 -992520085 -1475919088 2089242959 1344455959 -768251572 1218569056 -1457859653 -2063756279 -1452678075 310482491 -1570868917
REM
CELL 1.54180   15.00000   15.00000   15.00000   90.00000   90.00000   90.00000
LATT -1
SFAC C  
C      1  0.4532850000000  0.6241850000000  0.3023700000000 1.0
C      1  0.6241600000000  0.3023880000000  0.4532900000000 1.0
C      1  0.3024010000000  0.4532950000000  0.6241450000000 1.0
C      1  0.5467150000000  0.3758130000000  0.3023680000000 1.0
C      1  0.4532840000000  0.3758120000000  0.6976330000000 1.0
C      1  0.5467150000000  0.6241900000000  0.6976350000000 1.0
C      1  0.3758360000000  0.6976160000000  0.4532900000000 1.0
C      1  0.6241660000000  0.6976170000000  0.5467100000000 1.0
C      1  0.3758230000000  0.3023740000000  0.5467120000000 1.0
C      1  0.6976000000000  0.5467060000000  0.6241460000000 1.0
C      1  0.3023980000000  0.5467060000000  0.3758500000000 1.0
C      1  0.6976080000000  0.4532920000000  0.3758430000000 1.0
C      1  0.6241490000000  0.4532930000000  0.3023980000000 1.0
C      1  0.3023680000000  0.6241860000000  0.4532850000000 1.0
C      1  0.4532920000000  0.3023920000000  0.6241550000000 1.0
C      1  0.3758460000000  0.5467070000000  0.3023950000000 1.0
C      1  0.3758370000000  0.4532910000000  0.6976120000000 1.0
C      1  0.6241540000000  0.5467070000000  0.6976050000000 1.0
C      1  0.6976320000000  0.3758130000000  0.4532840000000 1.0
C      1  0.6976380000000  0.6241930000000  0.5467160000000 1.0
C      1  0.3023620000000  0.3758080000000  0.5467160000000 1.0
C      1  0.5467080000000  0.6976090000000  0.6241560000000 1.0
C      1  0.5467100000000  0.3023810000000  0.3758310000000 1.0
C      1  0.4532910000000  0.6976110000000  0.3758410000000 1.0
C      1  0.4650730000000  0.4064290000000  0.2481990000000 1.0
C      1  0.4064280000000  0.2482010000000  0.4650760000000 1.0
C      1  0.2482030000000  0.4650770000000  0.4064280000000 1.0
C      1  0.5349260000000  0.5935710000000  0.2482000000000 1.0
C      1  0.4650730000000  0.5935700000000  0.7518000000000 1.0
C      1  0.5349260000000  0.4064300000000  0.7518010000000 1.0
C      1  0.5935740000000  0.7517990000000  0.4650780000000 1.0
C      1  0.4064260000000  0.7517980000000  0.5349210000000 1.0
C      1  0.5935740000000  0.2482010000000  0.5349210000000 1.0
C      1  0.7517980000000  0.5349240000000  0.4064280000000 1.0
C      1  0.2482020000000  0.5349220000000  0.5935730000000 1.0
C      1  0.7517980000000  0.4650780000000  0.5935720000000 1.0
C      1  0.4064280000000  0.4650760000000  0.2482020000000 1.0
C      1  0.2481990000000  0.4064290000000  0.4650730000000 1.0
C      1  0.4650770000000  0.2482010000000  0.4064270000000 1.0
C      1  0.5935720000000  0.5349230000000  0.2482020000000 1.0
C      1  0.5935720000000  0.4650770000000  0.7517980000000 1.0
C      1  0.4064280000000  0.5349250000000  0.7517980000000 1.0
C      1  0.7518000000000  0.5935700000000  0.4650730000000 1.0
C      1  0.7518010000000  0.4064290000000  0.5349260000000 1.0
C      1  0.2482000000000  0.5935710000000  0.5349260000000 1.0
C      1  0.5349210000000  0.7517980000000  0.4064260000000 1.0
C      1  0.5349210000000  0.2482010000000  0.5935740000000 1.0
C      1  0.4650790000000  0.7517980000000  0.5935750000000 1.0
C      1  0.5336010000000  0.3819660000000  0.4664020000000 1.0
C      1  0.4664090000000  0.6180560000000  0.4664030000000 1.0
C      1  0.4664190000000  0.3819500000000  0.5335980000000 1.0
C      1  0.3819590000000  0.5335700000000  0.4663920000000 1.0
C      1  0.5336180000000  0.4664170000000  0.3819770000000 1.0
C      1  0.5335880000000  0.6180690000000  0.5335970000000 1.0
C      1  0.6180200000000  0.4664240000000  0.4663920000000 1.0
C      1  0.3819590000000  0.4664320000000  0.5336110000000 1.0
C      1  0.6180490000000  0.5335600000000  0.5336040000000 1.0
C      1  0.4663950000000  0.5335730000000  0.3819630000000 1.0
C      1  0.5335970000000  0.5335620000000  0.6180460000000 1.0
C      1  0.4664070000000  0.4664340000000  0.6180320000000 1.0
END
