TITL C-3036482-790-951 2.84833607973592e-06 3375 -366.696290354616 0 0 60 (C5) n - 1
REM
REM in /home/bkarasulu/work/CARBON/AIRSS/Generating-Clusters/REBO/Higher-Symm/Only-C60
REM
REM
REM
REM
REM
REM ./C.cell (a2850807a9bf4ad07a5b6933b78d9264)
REM AIRSS Version 0.9.1 bugfix July 2018 build 013d7b7c2542+ Fri, 06 Jul 2018 19:26:36 +0100
REM compiler GCC version 9.2.1 20190827 (Red Hat 9.2.1-1)
REM options -cpp -mtune=generic -march=x86-64 -g -O0 -fpre-include=/usr/include/finclude/math-vector-fortran.h
REM seed 2020695306 980299633 -304889757 102063517 -1525070731 1389691395 -1591756118 -1749779784 1646995454 731024639 -28039770 -2077519471 -863654461 -436156183 -551234195 998193476 -937950572 902658170 1870501927 75652481 1603611356 451992079 -517875559 321971134 2144447906 892033688 -1344260569 -265280671 1183717332 -1825685582 -993755921 1109774445 1926298468
REM
CELL 1.54180   15.00000   15.00000   15.00000   90.00000   90.00000   90.00000
LATT -1
SFAC C  
C      1  0.5455790000000  0.6024680000000  0.7102370000000 1.0
C      1  0.7140490000000  0.6024360000000  0.5216030000000 1.0
C      1  0.5867080000000  0.6023920000000  0.3030880000000 1.0
C      1  0.3395370000000  0.6023970000000  0.3566710000000 1.0
C      1  0.3141180000000  0.6024450000000  0.6083030000000 1.0
C      1  0.3397070000000  0.5576520000000  0.4414980000000 1.0
C      1  0.3948380000000  0.5576900000000  0.6343610000000 1.0
C      1  0.5952970000000  0.5576950000000  0.6415260000000 1.0
C      1  0.6640580000000  0.5576610000000  0.4530920000000 1.0
C      1  0.5060940000000  0.5576340000000  0.3294680000000 1.0
C      1  0.5720650000000  0.2688770000000  0.5610730000000 1.0
C      1  0.5803140000000  0.2688570000000  0.4503700000000 1.0
C      1  0.4775780000000  0.2688470000000  0.4083140000000 1.0
C      1  0.4058340000000  0.2688610000000  0.4930270000000 1.0
C      1  0.4642300000000  0.2688800000000  0.5874370000000 1.0
C      1  0.5545850000000  0.4000050000000  0.6935820000000 1.0
C      1  0.7009590000000  0.3999720000000  0.5079220000000 1.0
C      1  0.5696170000000  0.3999330000000  0.3113400000000 1.0
C      1  0.3420700000000  0.3999410000000  0.3755060000000 1.0
C      1  0.3327790000000  0.3999850000000  0.6117450000000 1.0
C      1  0.5039500000000  0.5378850000000  0.7674380000000 1.0
C      1  0.7555760000000  0.5378540000000  0.5788800000000 1.0
C      1  0.6540030000000  0.5377960000000  0.2813020000000 1.0
C      1  0.3396020000000  0.5377910000000  0.2859470000000 1.0
C      1  0.2468640000000  0.5378460000000  0.5863960000000 1.0
C      1  0.4073990000000  0.7170990000000  0.4770630000000 1.0
C      1  0.4496070000000  0.7171190000000  0.5809480000000 1.0
C      1  0.5614510000000  0.7171200000000  0.5729090000000 1.0
C      1  0.5883660000000  0.7171000000000  0.4640540000000 1.0
C      1  0.4931570000000  0.7170870000000  0.4048190000000 1.0
C      1  0.4573040000000  0.4201290000000  0.5690910000000 1.0
C      1  0.5525020000000  0.4201300000000  0.5619690000000 1.0
C      1  0.5751470000000  0.4201130000000  0.4692290000000 1.0
C      1  0.4939430000000  0.4201020000000  0.4190340000000 1.0
C      1  0.4211120000000  0.4201120000000  0.4807530000000 1.0
C      1  0.4820180000000  0.4526800000000  0.7281540000000 1.0
C      1  0.7114230000000  0.4526580000000  0.5876120000000 1.0
C      1  0.6486500000000  0.4526070000000  0.3260050000000 1.0
C      1  0.3804490000000  0.4525980000000  0.3048660000000 1.0
C      1  0.2774650000000  0.4526430000000  0.5534070000000 1.0
C      1  0.6217910000000  0.4596300000000  0.6360070000000 1.0
C      1  0.6669790000000  0.4595910000000  0.4262050000000 1.0
C      1  0.4814090000000  0.4595670000000  0.3183960000000 1.0
C      1  0.3215320000000  0.4595910000000  0.4615680000000 1.0
C      1  0.4082930000000  0.4596300000000  0.6578630000000 1.0
C      1  0.5121670000000  0.6825210000000  0.6690630000000 1.0
C      1  0.6645790000000  0.6824990000000  0.5406440000000 1.0
C      1  0.5895440000000  0.6824630000000  0.3560090000000 1.0
C      1  0.3907580000000  0.6824620000000  0.3703160000000 1.0
C      1  0.3429360000000  0.6824980000000  0.5637940000000 1.0
C      1  0.4574130000000  0.5846610000000  0.5687330000000 1.0
C      1  0.5522230000000  0.5846610000000  0.5617290000000 1.0
C      1  0.5748600000000  0.5846440000000  0.4693960000000 1.0
C      1  0.4940410000000  0.5846330000000  0.4193340000000 1.0
C      1  0.4214550000000  0.5846440000000  0.4807280000000 1.0
C      1  0.6589640000000  0.3166470000000  0.5118160000000 1.0
C      1  0.5603290000000  0.3166150000000  0.3524950000000 1.0
C      1  0.3783260000000  0.3166200000000  0.3970700000000 1.0
C      1  0.3644770000000  0.3166550000000  0.5839380000000 1.0
C      1  0.5379210000000  0.3166720000000  0.6548560000000 1.0
END
