TITL C-3036480-97-1065 -1.81087975021454e-06 3375 -331.873710224347 0 0 60 (C2) n - 1
REM
REM in /home/bkarasulu/work/CARBON/AIRSS/Generating-Clusters/REBO/Higher-Symm/Only-C60
REM
REM
REM
REM
REM
REM ./C.cell (a2850807a9bf4ad07a5b6933b78d9264)
REM AIRSS Version 0.9.1 bugfix July 2018 build 013d7b7c2542+ Fri, 06 Jul 2018 19:26:36 +0100
REM compiler GCC version 9.2.1 20190827 (Red Hat 9.2.1-1)
REM options -cpp -mtune=generic -march=x86-64 -g -O0 -fpre-include=/usr/include/finclude/math-vector-fortran.h
REM seed 1696373676 1099809848 2039608613 -1326656570 1852382266 -636611396 -130904806 -1450737474 -1863649107 995464876 -819432246 1964511379 -466547347 255828140 566145113 409888313 -155203784 -824543715 -1943119903 -560826096 754876074 1750198886 170439542 1080226285 1383120240 -1681491294 -611258358 906379702 -1744060062 -1603554909 661333348 -193729749 -2099172275
REM
CELL 1.54180   15.00000   15.00000   15.00000   90.00000   90.00000   90.00000
LATT -1
SFAC C  
C      1  0.6522200000000  0.3554410000000  0.5017420000000 1.0
C      1  0.5015160000000  0.3543660000000  0.3524910000000 1.0
C      1  0.3477800000000  0.3554410000000  0.4982580000000 1.0
C      1  0.4984840000000  0.3543660000000  0.6475090000000 1.0
C      1  0.4146330000000  0.5583370000000  0.4974680000000 1.0
C      1  0.4965610000000  0.5529970000000  0.5701910000000 1.0
C      1  0.5853670000000  0.5583370000000  0.5025320000000 1.0
C      1  0.5034390000000  0.5529970000000  0.4298090000000 1.0
C      1  0.4047720000000  0.4501770000000  0.5174450000000 1.0
C      1  0.5164380000000  0.4490540000000  0.5897050000000 1.0
C      1  0.5952280000000  0.4501770000000  0.4825550000000 1.0
C      1  0.4835620000000  0.4490540000000  0.4102950000000 1.0
C      1  0.3411140000000  0.3786870000000  0.6719850000000 1.0
C      1  0.6761320000000  0.3795200000000  0.6590640000000 1.0
C      1  0.6588860000000  0.3786870000000  0.3280150000000 1.0
C      1  0.3238680000000  0.3795200000000  0.3409360000000 1.0
C      1  0.3128490000000  0.6859830000000  0.5376130000000 1.0
C      1  0.5346900000000  0.6882850000000  0.6702660000000 1.0
C      1  0.6871510000000  0.6859830000000  0.4623870000000 1.0
C      1  0.4653100000000  0.6882850000000  0.3297340000000 1.0
C      1  0.6659810000000  0.4754370000000  0.5674600000000 1.0
C      1  0.5700990000000  0.4768630000000  0.3433500000000 1.0
C      1  0.3340190000000  0.4754370000000  0.4325400000000 1.0
C      1  0.4299010000000  0.4768630000000  0.6566500000000 1.0
C      1  0.6066020000000  0.6205070000000  0.6230780000000 1.0
C      1  0.6387230000000  0.6186340000000  0.3902450000000 1.0
C      1  0.3933980000000  0.6205070000000  0.3769220000000 1.0
C      1  0.3612770000000  0.6186340000000  0.6097550000000 1.0
C      1  0.7473850000000  0.3982430000000  0.5843250000000 1.0
C      1  0.5833170000000  0.4020940000000  0.2589400000000 1.0
C      1  0.2526150000000  0.3982430000000  0.4156750000000 1.0
C      1  0.4166830000000  0.4020940000000  0.7410600000000 1.0
C      1  0.5349990000000  0.6797660000000  0.5565890000000 1.0
C      1  0.5736410000000  0.6831900000000  0.4574010000000 1.0
C      1  0.4650010000000  0.6797660000000  0.4434110000000 1.0
C      1  0.4263590000000  0.6831900000000  0.5425990000000 1.0
C      1  0.4805330000000  0.5295730000000  0.7409720000000 1.0
C      1  0.7530790000000  0.5244750000000  0.5180290000000 1.0
C      1  0.5194670000000  0.5295730000000  0.2590280000000 1.0
C      1  0.2469210000000  0.5244750000000  0.4819710000000 1.0
C      1  0.5275240000000  0.4266330000000  0.7309930000000 1.0
C      1  0.7409940000000  0.4209360000000  0.4727650000000 1.0
C      1  0.4724760000000  0.4266330000000  0.2690070000000 1.0
C      1  0.2590060000000  0.4209360000000  0.5272350000000 1.0
C      1  0.4059420000000  0.3657620000000  0.4090670000000 1.0
C      1  0.4085360000000  0.3630920000000  0.5909060000000 1.0
C      1  0.5940580000000  0.3657620000000  0.5909330000000 1.0
C      1  0.5914640000000  0.3630920000000  0.4090940000000 1.0
C      1  0.3200960000000  0.5966140000000  0.4856100000000 1.0
C      1  0.4826300000000  0.5984500000000  0.6642290000000 1.0
C      1  0.6799040000000  0.5966140000000  0.5143900000000 1.0
C      1  0.5173700000000  0.5984500000000  0.3357710000000 1.0
C      1  0.6297920000000  0.5344850000000  0.6438370000000 1.0
C      1  0.6528620000000  0.5302930000000  0.3720440000000 1.0
C      1  0.3702080000000  0.5344850000000  0.3561630000000 1.0
C      1  0.3471380000000  0.5302930000000  0.6279560000000 1.0
C      1  0.3769710000000  0.4531110000000  0.2999460000000 1.0
C      1  0.2915010000000  0.4489970000000  0.6232740000000 1.0
C      1  0.6230290000000  0.4531110000000  0.7000540000000 1.0
C      1  0.7084990000000  0.4489970000000  0.3767260000000 1.0
END
