TITL C-3036480-97-554 -1.00589291749521e-06 3375 -267.423899875179 0 0 60 (Th) n - 1
REM
REM in /home/bkarasulu/work/CARBON/AIRSS/Generating-Clusters/REBO/Higher-Symm/Only-C60
REM
REM
REM
REM
REM
REM ./C.cell (a2850807a9bf4ad07a5b6933b78d9264)
REM AIRSS Version 0.9.1 bugfix July 2018 build 013d7b7c2542+ Fri, 06 Jul 2018 19:26:36 +0100
REM compiler GCC version 9.2.1 20190827 (Red Hat 9.2.1-1)
REM options -cpp -mtune=generic -march=x86-64 -g -O0 -fpre-include=/usr/include/finclude/math-vector-fortran.h
REM seed 1776237511 2071010554 -715349330 409431966 1661948678 -585472163 -124516980 -1093351598 1953799294 54743624 -1489112942 -53359287 -1963336904 -116827126 851253100 -1650313232 -1096971021 -334755647 709390151 -704724449 710682055 -1289319672 -1183946461 -1807674943 661245303 1288838390 -405850361 379120434 -1627245178 1131499914 930831770 -260021891 -1023823141
REM
CELL 1.54180   15.00000   15.00000   15.00000   90.00000   90.00000   90.00000
LATT -1
SFAC C  
C      1  0.2991450000000  0.6086570000000  0.3370530000000 1.0
C      1  0.3370530000000  0.2991450000000  0.6086570000000 1.0
C      1  0.6086570000000  0.3370530000000  0.2991450000000 1.0
C      1  0.7008550000000  0.6086570000000  0.6629470000000 1.0
C      1  0.2991450000000  0.3913430000000  0.6629470000000 1.0
C      1  0.7008550000000  0.3913430000000  0.3370530000000 1.0
C      1  0.6629470000000  0.2991450000000  0.3913430000000 1.0
C      1  0.3370530000000  0.7008550000000  0.3913430000000 1.0
C      1  0.6629470000000  0.7008550000000  0.6086570000000 1.0
C      1  0.3913430000000  0.3370530000000  0.7008550000000 1.0
C      1  0.6086570000000  0.6629470000000  0.7008550000000 1.0
C      1  0.3913430000000  0.6629470000000  0.2991450000000 1.0
C      1  0.2991450000000  0.3913430000000  0.3370530000000 1.0
C      1  0.3370530000000  0.7008550000000  0.6086570000000 1.0
C      1  0.6086570000000  0.6629470000000  0.2991450000000 1.0
C      1  0.7008550000000  0.3913430000000  0.6629470000000 1.0
C      1  0.2991450000000  0.6086570000000  0.6629470000000 1.0
C      1  0.7008550000000  0.6086570000000  0.3370530000000 1.0
C      1  0.6629470000000  0.7008550000000  0.3913430000000 1.0
C      1  0.3370530000000  0.2991450000000  0.3913430000000 1.0
C      1  0.6629470000000  0.2991450000000  0.6086570000000 1.0
C      1  0.3913430000000  0.6629470000000  0.7008550000000 1.0
C      1  0.6086570000000  0.3370530000000  0.7008550000000 1.0
C      1  0.3913430000000  0.3370530000000  0.2991450000000 1.0
C      1  0.3114740000000  0.4201790000000  0.5534390000000 1.0
C      1  0.5534390000000  0.3114740000000  0.4201790000000 1.0
C      1  0.4201790000000  0.5534390000000  0.3114740000000 1.0
C      1  0.6885260000000  0.4201790000000  0.4465610000000 1.0
C      1  0.3114740000000  0.5798210000000  0.4465610000000 1.0
C      1  0.6885260000000  0.5798210000000  0.5534390000000 1.0
C      1  0.4465610000000  0.3114740000000  0.5798210000000 1.0
C      1  0.5534390000000  0.6885260000000  0.5798210000000 1.0
C      1  0.4465610000000  0.6885260000000  0.4201790000000 1.0
C      1  0.5798210000000  0.5534390000000  0.6885260000000 1.0
C      1  0.4201790000000  0.4465610000000  0.6885260000000 1.0
C      1  0.5798210000000  0.4465610000000  0.3114740000000 1.0
C      1  0.3114740000000  0.5798210000000  0.5534390000000 1.0
C      1  0.5534390000000  0.6885260000000  0.4201790000000 1.0
C      1  0.4201790000000  0.4465610000000  0.3114740000000 1.0
C      1  0.6885260000000  0.5798210000000  0.4465610000000 1.0
C      1  0.3114740000000  0.4201790000000  0.4465610000000 1.0
C      1  0.6885260000000  0.4201790000000  0.5534390000000 1.0
C      1  0.4465610000000  0.6885260000000  0.5798210000000 1.0
C      1  0.5534390000000  0.3114740000000  0.5798210000000 1.0
C      1  0.4465610000000  0.3114740000000  0.4201790000000 1.0
C      1  0.5798210000000  0.4465610000000  0.6885260000000 1.0
C      1  0.4201790000000  0.5534390000000  0.6885260000000 1.0
C      1  0.5798210000000  0.5534390000000  0.3114740000000 1.0
C      1  0.3302210000000  0.5000000000000  0.6340390000000 1.0
C      1  0.6697790000000  0.5000000000000  0.3659610000000 1.0
C      1  0.3302210000000  0.5000000000000  0.3659610000000 1.0
C      1  0.6697790000000  0.5000000000000  0.6340390000000 1.0
C      1  0.6340390000000  0.3302210000000  0.5000000000000 1.0
C      1  0.3659610000000  0.6697790000000  0.5000000000000 1.0
C      1  0.6340390000000  0.6697790000000  0.5000000000000 1.0
C      1  0.5000000000000  0.3659610000000  0.6697790000000 1.0
C      1  0.5000000000000  0.6340390000000  0.3302210000000 1.0
C      1  0.3659610000000  0.3302210000000  0.5000000000000 1.0
C      1  0.5000000000000  0.3659610000000  0.3302210000000 1.0
C      1  0.5000000000000  0.6340390000000  0.6697790000000 1.0
END
