TITL C-3036483-1610-922 -8.626738652904e-06 3375 -346.611754560388 0 0 60 (C1) n - 1
REM
REM in /home/bkarasulu/work/CARBON/AIRSS/Generating-Clusters/REBO/Higher-Symm/Only-C60
REM
REM
REM
REM
REM
REM ./C.cell (a2850807a9bf4ad07a5b6933b78d9264)
REM AIRSS Version 0.9.1 bugfix July 2018 build 013d7b7c2542+ Fri, 06 Jul 2018 19:26:36 +0100
REM compiler GCC version 9.2.1 20190827 (Red Hat 9.2.1-1)
REM options -cpp -mtune=generic -march=x86-64 -g -O0 -fpre-include=/usr/include/finclude/math-vector-fortran.h
REM seed -1807836140 -1026499066 -2095827260 -531759389 516294585 -2033835692 566445062 -382172674 -1304066246 -1936825016 830931962 1740502748 -1550832053 639336608 -1033132712 -1933063633 -623764604 -1229689262 -1009091148 1685938117 1991132626 829506684 -424221126 -2121476253 5376183 1750305468 -974802658 -243574753 228700156 1407163452 -301000278 -1531951494 -53219
REM
CELL 1.54180   15.00000   15.00000   15.00000   90.00000   90.00000   90.00000
LATT -1
SFAC C  
C      1  0.3164100000000  0.5384380000000  0.6433270000000 1.0
C      1  0.5099810000000  0.4434120000000  0.6381850000000 1.0
C      1  0.2548800000000  0.5194120000000  0.4346970000000 1.0
C      1  0.4948690000000  0.2799320000000  0.6310100000000 1.0
C      1  0.4527360000000  0.5591070000000  0.2729490000000 1.0
C      1  0.3031090000000  0.3544600000000  0.5444290000000 1.0
C      1  0.6308730000000  0.4159490000000  0.3687220000000 1.0
C      1  0.5505280000000  0.5330180000000  0.7730350000000 1.0
C      1  0.5514060000000  0.7051570000000  0.5878580000000 1.0
C      1  0.3846210000000  0.3221160000000  0.4877470000000 1.0
C      1  0.6703440000000  0.4990500000000  0.3097000000000 1.0
C      1  0.4538310000000  0.4592970000000  0.2661400000000 1.0
C      1  0.1942300000000  0.4346200000000  0.4361020000000 1.0
C      1  0.5526820000000  0.4982360000000  0.4766180000000 1.0
C      1  0.6651820000000  0.6749650000000  0.3741090000000 1.0
C      1  0.5337530000000  0.4770300000000  0.3757280000000 1.0
C      1  0.4754900000000  0.7119610000000  0.6373450000000 1.0
C      1  0.5369510000000  0.6191880000000  0.2528460000000 1.0
C      1  0.3884610000000  0.5969290000000  0.3339160000000 1.0
C      1  0.6574480000000  0.6802350000000  0.4718390000000 1.0
C      1  0.5598690000000  0.3818940000000  0.5752690000000 1.0
C      1  0.4172730000000  0.3793620000000  0.6706250000000 1.0
C      1  0.5485290000000  0.3497820000000  0.2179980000000 1.0
C      1  0.4173640000000  0.5629130000000  0.4595220000000 1.0
C      1  0.5274160000000  0.2753790000000  0.4523640000000 1.0
C      1  0.6925700000000  0.3971770000000  0.6290660000000 1.0
C      1  0.4741450000000  0.3977550000000  0.7593920000000 1.0
C      1  0.5790370000000  0.5742460000000  0.3706290000000 1.0
C      1  0.5771760000000  0.6909830000000  0.3099280000000 1.0
C      1  0.6026780000000  0.4314030000000  0.5119790000000 1.0
C      1  0.3882890000000  0.5502340000000  0.7317870000000 1.0
C      1  0.5798740000000  0.5222740000000  0.2595770000000 1.0
C      1  0.5376040000000  0.3316670000000  0.7048400000000 1.0
C      1  0.5039900000000  0.5825860000000  0.6075960000000 1.0
C      1  0.6835960000000  0.6150570000000  0.5421580000000 1.0
C      1  0.4168460000000  0.6238120000000  0.6501760000000 1.0
C      1  0.7358320000000  0.5360030000000  0.5451610000000 1.0
C      1  0.5683540000000  0.7158060000000  0.4952670000000 1.0
C      1  0.6115480000000  0.6199740000000  0.6166640000000 1.0
C      1  0.3219500000000  0.5320290000000  0.3723410000000 1.0
C      1  0.3906880000000  0.3091650000000  0.6005950000000 1.0
C      1  0.6837820000000  0.4018910000000  0.4591020000000 1.0
C      1  0.5284560000000  0.6694020000000  0.4079610000000 1.0
C      1  0.4426910000000  0.3848640000000  0.3493130000000 1.0
C      1  0.4067420000000  0.4809440000000  0.6463050000000 1.0
C      1  0.4682400000000  0.4908870000000  0.7839020000000 1.0
C      1  0.7299760000000  0.4393470000000  0.5483590000000 1.0
C      1  0.4211660000000  0.4821020000000  0.3920660000000 1.0
C      1  0.3599070000000  0.6770910000000  0.4958170000000 1.0
C      1  0.6934330000000  0.5799870000000  0.3582730000000 1.0
C      1  0.4884100000000  0.5473400000000  0.5187700000000 1.0
C      1  0.3375940000000  0.6220280000000  0.5694120000000 1.0
C      1  0.4264790000000  0.6592740000000  0.4107470000000 1.0
C      1  0.6296100000000  0.3611380000000  0.6866550000000 1.0
C      1  0.2751690000000  0.5307310000000  0.5433890000000 1.0
C      1  0.5791530000000  0.4142800000000  0.2677240000000 1.0
C      1  0.4476100000000  0.3176980000000  0.4186900000000 1.0
C      1  0.5475000000000  0.2864240000000  0.5456670000000 1.0
C      1  0.5748440000000  0.5286710000000  0.6729730000000 1.0
C      1  0.2468250000000  0.4238830000000  0.5256380000000 1.0
END
