TITL C-3036484-3770-502 -0.00955411694198222 3375 -342.312830735279 0 0 60 (C1) n - 1
REM
REM in /home/bkarasulu/work/CARBON/AIRSS/Generating-Clusters/REBO/Higher-Symm/Only-C60
REM
REM
REM
REM
REM
REM ./C.cell (a2850807a9bf4ad07a5b6933b78d9264)
REM AIRSS Version 0.9.1 bugfix July 2018 build 013d7b7c2542+ Fri, 06 Jul 2018 19:26:36 +0100
REM compiler GCC version 9.2.1 20190827 (Red Hat 9.2.1-1)
REM options -cpp -mtune=generic -march=x86-64 -g -O0 -fpre-include=/usr/include/finclude/math-vector-fortran.h
REM seed -1131130734 -931218632 2035412917 -2127436261 -803454453 1060149186 351575781 -986743743 -836350064 -204179607 1652218459 1626746304 1236615465 869655549 -126333375 -1610650575 1224608445 491062184 1626979046 -590942994 -2363735 1827312208 -1955471675 2137896281 -2049693543 1703742514 -756770811 -253694064 -1313232611 -640655754 243734000 1573677559 978051940
REM
CELL 1.54180   15.00000   15.00000   15.00000   90.00000   90.00000   90.00000
LATT -1
SFAC C  
C      1  0.3615340000000  0.5762970000000  0.6873120000000 1.0
C      1  0.6328520000000  0.5762550000000  0.6833180000000 1.0
C      1  0.4384310000000  0.5587870000000  0.7946210000000 1.0
C      1  0.5501630000000  0.5591540000000  0.7858050000000 1.0
C      1  0.4538530000000  0.3907660000000  0.3691790000000 1.0
C      1  0.5461730000000  0.3901920000000  0.3692420000000 1.0
C      1  0.4419730000000  0.4971030000000  0.6996250000000 1.0
C      1  0.5554240000000  0.4930740000000  0.6931590000000 1.0
C      1  0.5394530000000  0.5832670000000  0.5898070000000 1.0
C      1  0.4594930000000  0.5812730000000  0.5981910000000 1.0
C      1  0.4425310000000  0.2512080000000  0.2976100000000 1.0
C      1  0.5450860000000  0.2566620000000  0.3130280000000 1.0
C      1  0.6985950000000  0.4306980000000  0.4480490000000 1.0
C      1  0.3018940000000  0.4309190000000  0.4493160000000 1.0
C      1  0.5472690000000  0.4348910000000  0.5237500000000 1.0
C      1  0.4536290000000  0.4357640000000  0.5238740000000 1.0
C      1  0.3218230000000  0.3894350000000  0.3512040000000 1.0
C      1  0.6778320000000  0.3885940000000  0.3504890000000 1.0
C      1  0.4523240000000  0.6996250000000  0.3912050000000 1.0
C      1  0.5557440000000  0.6990280000000  0.3799020000000 1.0
C      1  0.5413160000000  0.5154550000000  0.4141380000000 1.0
C      1  0.4590540000000  0.5159640000000  0.4150610000000 1.0
C      1  0.5516830000000  0.6488510000000  0.7158140000000 1.0
C      1  0.4386120000000  0.6475480000000  0.7265000000000 1.0
C      1  0.6684040000000  0.6056560000000  0.5823110000000 1.0
C      1  0.3310650000000  0.6045860000000  0.5861880000000 1.0
C      1  0.6246450000000  0.4976000000000  0.3601160000000 1.0
C      1  0.3755370000000  0.4981170000000  0.3609600000000 1.0
C      1  0.6307030000000  0.6629200000000  0.3400930000000 1.0
C      1  0.3782600000000  0.6637000000000  0.3457720000000 1.0
C      1  0.3970130000000  0.6954580000000  0.5721160000000 1.0
C      1  0.6034700000000  0.6957010000000  0.5599840000000 1.0
C      1  0.4002190000000  0.5070580000000  0.5661870000000 1.0
C      1  0.6004910000000  0.5069720000000  0.5646530000000 1.0
C      1  0.3320330000000  0.5856060000000  0.3380220000000 1.0
C      1  0.6716200000000  0.5820490000000  0.3372980000000 1.0
C      1  0.4535770000000  0.4032960000000  0.6539760000000 1.0
C      1  0.5525050000000  0.3952600000000  0.6509100000000 1.0
C      1  0.5571540000000  0.2647610000000  0.4248660000000 1.0
C      1  0.4541440000000  0.2636790000000  0.4092580000000 1.0
C      1  0.6012210000000  0.4272880000000  0.2782110000000 1.0
C      1  0.3985410000000  0.4281840000000  0.2786710000000 1.0
C      1  0.4420070000000  0.7111330000000  0.4920080000000 1.0
C      1  0.5487880000000  0.7083740000000  0.4818910000000 1.0
C      1  0.5548620000000  0.7213770000000  0.6376220000000 1.0
C      1  0.4546220000000  0.7118920000000  0.6469250000000 1.0
C      1  0.5415130000000  0.4469170000000  0.2006410000000 1.0
C      1  0.4581110000000  0.4472150000000  0.2008150000000 1.0
C      1  0.6384680000000  0.2949210000000  0.3579330000000 1.0
C      1  0.3615990000000  0.2953100000000  0.3565340000000 1.0
C      1  0.6883000000000  0.4067810000000  0.5570430000000 1.0
C      1  0.3141590000000  0.4057670000000  0.5582280000000 1.0
C      1  0.7043290000000  0.5146840000000  0.5246120000000 1.0
C      1  0.2964170000000  0.5139500000000  0.5268660000000 1.0
C      1  0.5918110000000  0.3976760000000  0.4509090000000 1.0
C      1  0.4088230000000  0.3985570000000  0.4513660000000 1.0
C      1  0.3765430000000  0.3714200000000  0.6115520000000 1.0
C      1  0.6300290000000  0.3668540000000  0.6101540000000 1.0
C      1  0.6547820000000  0.5258190000000  0.7768310000000 1.0
C      1  0.3374950000000  0.5226520000000  0.7782790000000 1.0
END
