TITL C-3036485-3770-680 -0.00336468197250568 3375 -334.706675232824 0 0 60 (S4) n - 1
REM
REM in /home/bkarasulu/work/CARBON/AIRSS/Generating-Clusters/REBO/Higher-Symm/Only-C60
REM
REM
REM
REM
REM
REM ./C.cell (a2850807a9bf4ad07a5b6933b78d9264)
REM AIRSS Version 0.9.1 bugfix July 2018 build 013d7b7c2542+ Fri, 06 Jul 2018 19:26:36 +0100
REM compiler GCC version 9.2.1 20190827 (Red Hat 9.2.1-1)
REM options -cpp -mtune=generic -march=x86-64 -g -O0 -fpre-include=/usr/include/finclude/math-vector-fortran.h
REM seed 289734130 97966413 459905118 -1865352784 1142930937 -1697582495 -2016418309 -261849375 1905267569 -1614440807 -402813442 338771135 1789960025 -2093200956 -1030434185 239171490 -43777478 -966540458 -1247964443 -1383103609 -1231018547 1597372391 -1419981541 -1654077209 2126576859 -1063649203 -1972088128 1750891601 -388386333 -1974155152 1640433802 -1945912179 -1428742533
REM
CELL 1.54180   15.00000   15.00000   15.00000   90.00000   90.00000   90.00000
LATT -1
SFAC C  
C      1  0.4657950000000  0.4429640000000  0.2188750000000 1.0
C      1  0.5742750000000  0.4535660000000  0.2145940000000 1.0
C      1  0.5341280000000  0.5570500000000  0.2188530000000 1.0
C      1  0.4256460000000  0.5464510000000  0.2146410000000 1.0
C      1  0.4534340000000  0.4255370000000  0.7907030000000 1.0
C      1  0.5571290000000  0.4657540000000  0.7862720000000 1.0
C      1  0.5465410000000  0.5743960000000  0.7907060000000 1.0
C      1  0.4428290000000  0.5341970000000  0.7863780000000 1.0
C      1  0.6636490000000  0.5728340000000  0.4529070000000 1.0
C      1  0.4249490000000  0.6722690000000  0.4560280000000 1.0
C      1  0.3364140000000  0.4271880000000  0.4529910000000 1.0
C      1  0.5750600000000  0.3277550000000  0.4560570000000 1.0
C      1  0.6722850000000  0.5750510000000  0.5491830000000 1.0
C      1  0.4271590000000  0.6636110000000  0.5522970000000 1.0
C      1  0.3277840000000  0.4249780000000  0.5492570000000 1.0
C      1  0.5728070000000  0.3363860000000  0.5523210000000 1.0
C      1  0.5580240000000  0.6375840000000  0.2954520000000 1.0
C      1  0.3578920000000  0.5575310000000  0.3049280000000 1.0
C      1  0.4419510000000  0.3624390000000  0.2954990000000 1.0
C      1  0.6421040000000  0.4424860000000  0.3048250000000 1.0
C      1  0.5575490000000  0.6421500000000  0.7003980000000 1.0
C      1  0.3624440000000  0.5579800000000  0.7098940000000 1.0
C      1  0.4423650000000  0.3577960000000  0.7003890000000 1.0
C      1  0.6374270000000  0.4419920000000  0.7096910000000 1.0
C      1  0.3308470000000  0.4941690000000  0.6214900000000 1.0
C      1  0.5194670000000  0.3206120000000  0.6278730000000 1.0
C      1  0.6692700000000  0.5059440000000  0.6214780000000 1.0
C      1  0.4804430000000  0.6792970000000  0.6278950000000 1.0
C      1  0.3206330000000  0.4804700000000  0.3774100000000 1.0
C      1  0.5059110000000  0.3307940000000  0.3838100000000 1.0
C      1  0.6793880000000  0.5195480000000  0.3773090000000 1.0
C      1  0.4941050000000  0.6692910000000  0.3837700000000 1.0
C      1  0.3464420000000  0.6141540000000  0.4251800000000 1.0
C      1  0.4094640000000  0.3484200000000  0.4270030000000 1.0
C      1  0.6536340000000  0.3858000000000  0.4253010000000 1.0
C      1  0.5905520000000  0.6515940000000  0.4269340000000 1.0
C      1  0.3484200000000  0.5905310000000  0.5781430000000 1.0
C      1  0.3858890000000  0.3464440000000  0.5800170000000 1.0
C      1  0.6515620000000  0.4094810000000  0.5783530000000 1.0
C      1  0.6141930000000  0.6535910000000  0.5799500000000 1.0
C      1  0.4410950000000  0.5311900000000  0.5494460000000 1.0
C      1  0.4593490000000  0.4229030000000  0.5677310000000 1.0
C      1  0.5589540000000  0.4688170000000  0.5494600000000 1.0
C      1  0.5407290000000  0.5771140000000  0.5677350000000 1.0
C      1  0.4229430000000  0.5407240000000  0.4373840000000 1.0
C      1  0.4688470000000  0.4410760000000  0.4556690000000 1.0
C      1  0.5771510000000  0.4592960000000  0.4374080000000 1.0
C      1  0.5312220000000  0.5589300000000  0.4556760000000 1.0
C      1  0.6264160000000  0.5530860000000  0.2853720000000 1.0
C      1  0.4468820000000  0.6235870000000  0.2943220000000 1.0
C      1  0.3735440000000  0.4469290000000  0.2854440000000 1.0
C      1  0.5530890000000  0.3764510000000  0.2943110000000 1.0
C      1  0.6236310000000  0.5531700000000  0.7109670000000 1.0
C      1  0.4469710000000  0.6263610000000  0.7198620000000 1.0
C      1  0.3763590000000  0.4468330000000  0.7109870000000 1.0
C      1  0.5529540000000  0.3735680000000  0.7197950000000 1.0
C      1  0.2831330000000  0.6071110000000  0.4950350000000 1.0
C      1  0.3928040000000  0.2831700000000  0.5101280000000 1.0
C      1  0.7168170000000  0.3927600000000  0.4952500000000 1.0
C      1  0.6072490000000  0.7168370000000  0.5100500000000 1.0
END
