TITL C-3036482-790-39 -0.0545647928968874 3375 -342.8928661443 0 0 60 (C1) n - 1
REM
REM in /home/bkarasulu/work/CARBON/AIRSS/Generating-Clusters/REBO/Higher-Symm/Only-C60
REM
REM
REM
REM
REM
REM ./C.cell (a2850807a9bf4ad07a5b6933b78d9264)
REM AIRSS Version 0.9.1 bugfix July 2018 build 013d7b7c2542+ Fri, 06 Jul 2018 19:26:36 +0100
REM compiler GCC version 9.2.1 20190827 (Red Hat 9.2.1-1)
REM options -cpp -mtune=generic -march=x86-64 -g -O0 -fpre-include=/usr/include/finclude/math-vector-fortran.h
REM seed 2105413138 -1286001226 231146509 -1650317562 1769629947 -2111042518 -1274044203 -1986894804 37947885 -1172016219 1989250660 1979387906 1362749779 -928138312 -1090419077 -857957693 473197442 1288830240 859471237 1757534914 1274545045 -538945916 157347516 -1594316203 -801343061 473408436 -1655052979 -1467954615 -1990951602 -285001514 -437980653 2048759217 230549077
REM
CELL 1.54180   15.00000   15.00000   15.00000   90.00000   90.00000   90.00000
LATT -1
SFAC C  
C      1  0.5245590000000  0.5285340000000  0.3721600000000 1.0
C      1  0.5324660000000  0.6447370000000  0.4733540000000 1.0
C      1  0.5072130000000  0.5214970000000  0.6146360000000 1.0
C      1  0.5222530000000  0.3878640000000  0.5308020000000 1.0
C      1  0.5350460000000  0.3771380000000  0.3999650000000 1.0
C      1  0.4739400000000  0.2982840000000  0.6516830000000 1.0
C      1  0.5188030000000  0.2845540000000  0.3386420000000 1.0
C      1  0.5147380000000  0.5930120000000  0.2759530000000 1.0
C      1  0.4925210000000  0.7657320000000  0.5123650000000 1.0
C      1  0.5084050000000  0.5622490000000  0.7526250000000 1.0
C      1  0.6667680000000  0.6360330000000  0.5558690000000 1.0
C      1  0.6588400000000  0.4725830000000  0.6490570000000 1.0
C      1  0.6803120000000  0.3462240000000  0.5167330000000 1.0
C      1  0.6919710000000  0.4295400000000  0.3595560000000 1.0
C      1  0.6789010000000  0.5924460000000  0.3894150000000 1.0
C      1  0.5685630000000  0.4767540000000  0.6711200000000 1.0
C      1  0.5930580000000  0.3179750000000  0.5274210000000 1.0
C      1  0.6161410000000  0.3831860000000  0.3282530000000 1.0
C      1  0.5832700000000  0.6167000000000  0.3864470000000 1.0
C      1  0.5807840000000  0.6724210000000  0.5479500000000 1.0
C      1  0.5052440000000  0.6620500000000  0.7127910000000 1.0
C      1  0.4688750000000  0.3440740000000  0.7337240000000 1.0
C      1  0.5136370000000  0.2333050000000  0.4401640000000 1.0
C      1  0.4921490000000  0.4842780000000  0.2508790000000 1.0
C      1  0.4766220000000  0.7546850000000  0.4230380000000 1.0
C      1  0.4171690000000  0.6621400000000  0.6383610000000 1.0
C      1  0.3992120000000  0.4257350000000  0.7354820000000 1.0
C      1  0.4176700000000  0.2726370000000  0.4881200000000 1.0
C      1  0.4121000000000  0.4108160000000  0.2730740000000 1.0
C      1  0.4051500000000  0.6933170000000  0.3662640000000 1.0
C      1  0.3540400000000  0.3416490000000  0.5393940000000 1.0
C      1  0.3681920000000  0.3916630000000  0.3559760000000 1.0
C      1  0.3614650000000  0.6090580000000  0.3625760000000 1.0
C      1  0.3716670000000  0.6511060000000  0.5494590000000 1.0
C      1  0.3580740000000  0.4914010000000  0.6800870000000 1.0
C      1  0.3113550000000  0.4401430000000  0.4064950000000 1.0
C      1  0.2914030000000  0.5759500000000  0.4100150000000 1.0
C      1  0.2901420000000  0.6112320000000  0.5398310000000 1.0
C      1  0.2953520000000  0.4912130000000  0.6139900000000 1.0
C      1  0.2814870000000  0.3917440000000  0.5269570000000 1.0
C      1  0.4292320000000  0.5624890000000  0.6712760000000 1.0
C      1  0.4445810000000  0.3649050000000  0.5800070000000 1.0
C      1  0.4336010000000  0.3297050000000  0.4001510000000 1.0
C      1  0.4235560000000  0.5426560000000  0.3217980000000 1.0
C      1  0.4394070000000  0.6426390000000  0.4840650000000 1.0
C      1  0.7221760000000  0.4119160000000  0.4479730000000 1.0
C      1  0.7043660000000  0.5204950000000  0.3327080000000 1.0
C      1  0.7167840000000  0.5933800000000  0.4745470000000 1.0
C      1  0.7043760000000  0.5495690000000  0.5981380000000 1.0
C      1  0.7132910000000  0.4194690000000  0.5795740000000 1.0
C      1  0.5140710000000  0.6885260000000  0.3378430000000 1.0
C      1  0.5110480000000  0.7183310000000  0.6140570000000 1.0
C      1  0.5086710000000  0.4484840000000  0.7560720000000 1.0
C      1  0.5084510000000  0.2517500000000  0.5531560000000 1.0
C      1  0.5200330000000  0.3752160000000  0.2683430000000 1.0
C      1  0.5299860000000  0.4667130000000  0.4495980000000 1.0
C      1  0.7572040000000  0.4983500000000  0.5105060000000 1.0
C      1  0.4819450000000  0.5141690000000  0.5270270000000 1.0
C      1  0.2833820000000  0.5032240000000  0.4991560000000 1.0
C      1  0.3948010000000  0.5203960000000  0.5114480000000 1.0
END
