TITL C-3036479-9801-425 -5.48930709051035e-06 3375 -352.53642101235 0 0 60 (C2) n - 1
REM
REM in /home/bkarasulu/work/CARBON/AIRSS/Generating-Clusters/REBO/Higher-Symm/Only-C60
REM
REM
REM
REM
REM
REM ./C.cell (a2850807a9bf4ad07a5b6933b78d9264)
REM AIRSS Version 0.9.1 bugfix July 2018 build 013d7b7c2542+ Fri, 06 Jul 2018 19:26:36 +0100
REM compiler GCC version 9.2.1 20190827 (Red Hat 9.2.1-1)
REM options -cpp -mtune=generic -march=x86-64 -g -O0 -fpre-include=/usr/include/finclude/math-vector-fortran.h
REM seed -320589194 1154824918 392353978 1106475484 1999808858 -305846097 -715886000 1940647998 -2017827509 -218458677 -1307050305 5130965 -1761326520 1469433460 -522915420 -1305125855 -322873487 -2121819562 1133383086 1911010593 1817192756 1687167362 -1835208825 1286014427 1705585493 1780567906 600317742 92286424 -644324240 -285816480 -723318376 -2137330501 -596257504
REM
CELL 1.54180   15.00000   15.00000   15.00000   90.00000   90.00000   90.00000
LATT -1
SFAC C  
C      1  0.4384470000000  0.4498740000000  0.3029470000000 1.0
C      1  0.6956070000000  0.4516760000000  0.4282480000000 1.0
C      1  0.5615530000000  0.4498740000000  0.6970530000000 1.0
C      1  0.3043930000000  0.4516760000000  0.5717520000000 1.0
C      1  0.4657970000000  0.6066540000000  0.3841360000000 1.0
C      1  0.6293820000000  0.6134910000000  0.4655560000000 1.0
C      1  0.5342030000000  0.6066540000000  0.6158640000000 1.0
C      1  0.3706180000000  0.6134910000000  0.5344440000000 1.0
C      1  0.6643220000000  0.6096860000000  0.6689440000000 1.0
C      1  0.3326190000000  0.6207090000000  0.6617750000000 1.0
C      1  0.3356780000000  0.6096860000000  0.3310560000000 1.0
C      1  0.6673810000000  0.6207090000000  0.3382250000000 1.0
C      1  0.4854500000000  0.5959190000000  0.7048730000000 1.0
C      1  0.2853240000000  0.5905650000000  0.4834550000000 1.0
C      1  0.5145500000000  0.5959190000000  0.2951270000000 1.0
C      1  0.7146760000000  0.5905650000000  0.5165450000000 1.0
C      1  0.3447770000000  0.5031870000000  0.3310850000000 1.0
C      1  0.6756350000000  0.5119570000000  0.3357570000000 1.0
C      1  0.6552230000000  0.5031870000000  0.6689150000000 1.0
C      1  0.3243650000000  0.5119570000000  0.6642430000000 1.0
C      1  0.3157190000000  0.3261490000000  0.4991360000000 1.0
C      1  0.5094580000000  0.3344060000000  0.3045500000000 1.0
C      1  0.6842810000000  0.3261490000000  0.5008640000000 1.0
C      1  0.4905420000000  0.3344060000000  0.6954500000000 1.0
C      1  0.4176300000000  0.6548280000000  0.6537470000000 1.0
C      1  0.3329000000000  0.6498070000000  0.4132940000000 1.0
C      1  0.5823700000000  0.6548280000000  0.3462530000000 1.0
C      1  0.6671000000000  0.6498070000000  0.5867060000000 1.0
C      1  0.3929600000000  0.4706680000000  0.5012760000000 1.0
C      1  0.5123000000000  0.4672860000000  0.3898370000000 1.0
C      1  0.6070400000000  0.4706680000000  0.4987240000000 1.0
C      1  0.4877000000000  0.4672860000000  0.6101630000000 1.0
C      1  0.4051460000000  0.3695510000000  0.6946980000000 1.0
C      1  0.3221660000000  0.3625360000000  0.4148520000000 1.0
C      1  0.5948540000000  0.3695510000000  0.3053020000000 1.0
C      1  0.6778340000000  0.3625360000000  0.5851480000000 1.0
C      1  0.4183550000000  0.3555080000000  0.3612770000000 1.0
C      1  0.6487870000000  0.3548040000000  0.3999400000000 1.0
C      1  0.5816450000000  0.3555080000000  0.6387230000000 1.0
C      1  0.3512130000000  0.3548040000000  0.6000600000000 1.0
C      1  0.4791370000000  0.5061660000000  0.7368880000000 1.0
C      1  0.2642690000000  0.4976890000000  0.4824460000000 1.0
C      1  0.5208630000000  0.5061660000000  0.2631120000000 1.0
C      1  0.7357310000000  0.4976890000000  0.5175540000000 1.0
C      1  0.4169080000000  0.6924200000000  0.4720140000000 1.0
C      1  0.5223280000000  0.6866520000000  0.4372340000000 1.0
C      1  0.5830920000000  0.6924200000000  0.5279860000000 1.0
C      1  0.4776720000000  0.6866520000000  0.5627660000000 1.0
C      1  0.4442710000000  0.3798770000000  0.4639260000000 1.0
C      1  0.5475720000000  0.3743800000000  0.4291500000000 1.0
C      1  0.5557290000000  0.3798770000000  0.5360740000000 1.0
C      1  0.4524280000000  0.3743800000000  0.5708500000000 1.0
C      1  0.7126360000000  0.4500420000000  0.5970340000000 1.0
C      1  0.3961630000000  0.4601890000000  0.7232780000000 1.0
C      1  0.2873640000000  0.4500420000000  0.4029660000000 1.0
C      1  0.6038370000000  0.4601890000000  0.2767220000000 1.0
C      1  0.5819780000000  0.5192220000000  0.5858440000000 1.0
C      1  0.4064220000000  0.5341030000000  0.5924410000000 1.0
C      1  0.4180220000000  0.5192220000000  0.4141560000000 1.0
C      1  0.5935780000000  0.5341030000000  0.4075590000000 1.0
END
