TITL C-3036486-2224-1118 -4.34538770969131e-06 3375 -352.781683739764 0 0 60 (C2) n - 1
REM
REM in /home/bkarasulu/work/CARBON/AIRSS/Generating-Clusters/REBO/Higher-Symm/Only-C60
REM
REM
REM
REM
REM
REM ./C.cell (a2850807a9bf4ad07a5b6933b78d9264)
REM AIRSS Version 0.9.1 bugfix July 2018 build 013d7b7c2542+ Fri, 06 Jul 2018 19:26:36 +0100
REM compiler GCC version 9.2.1 20190827 (Red Hat 9.2.1-1)
REM options -cpp -mtune=generic -march=x86-64 -g -O0 -fpre-include=/usr/include/finclude/math-vector-fortran.h
REM seed -804115778 805996528 2037424951 62107424 815359905 848032916 1449535229 1902067307 -1050469423 907986661 -1502156520 -1903803979 1423516699 1736641173 248991935 811016821 -860790164 352076077 1174699601 -1625434988 1843299331 -2047236809 -1135992641 -384422682 -1047990861 -1350485024 -435997144 -1603052104 1993089543 367311904 1467421138 -2027301807 1839089168
REM
CELL 1.54180   15.00000   15.00000   15.00000   90.00000   90.00000   90.00000
LATT -1
SFAC C  
C      1  0.3346980000000  0.6749040000000  0.4149760000000 1.0
C      1  0.6653020000000  0.3250960000000  0.4149760000000 1.0
C      1  0.5641920000000  0.5800520000000  0.4435950000000 1.0
C      1  0.4358080000000  0.4199480000000  0.4435950000000 1.0
C      1  0.6634100000000  0.5596960000000  0.6047590000000 1.0
C      1  0.3365900000000  0.4403050000000  0.6047600000000 1.0
C      1  0.5952110000000  0.3012780000000  0.5584800000000 1.0
C      1  0.4047890000000  0.6987220000000  0.5584800000000 1.0
C      1  0.6349140000000  0.4736410000000  0.3645370000000 1.0
C      1  0.3650850000000  0.5263590000000  0.3645370000000 1.0
C      1  0.3700670000000  0.3392570000000  0.5900170000000 1.0
C      1  0.6299340000000  0.6607430000000  0.5900160000000 1.0
C      1  0.3079100000000  0.5517340000000  0.5381170000000 1.0
C      1  0.6920910000000  0.4482660000000  0.5381160000000 1.0
C      1  0.5170170000000  0.3603680000000  0.4077880000000 1.0
C      1  0.4829830000000  0.6396320000000  0.4077880000000 1.0
C      1  0.4535750000000  0.3834840000000  0.6318860000000 1.0
C      1  0.5464260000000  0.6165160000000  0.6318860000000 1.0
C      1  0.3108350000000  0.6038440000000  0.3572430000000 1.0
C      1  0.6891640000000  0.3961560000000  0.3572420000000 1.0
C      1  0.3170910000000  0.4484560000000  0.3900630000000 1.0
C      1  0.6829080000000  0.5515440000000  0.3900620000000 1.0
C      1  0.6004780000000  0.5113860000000  0.5194180000000 1.0
C      1  0.3995230000000  0.4886140000000  0.5194190000000 1.0
C      1  0.6531560000000  0.6298500000000  0.4931410000000 1.0
C      1  0.3468440000000  0.3701500000000  0.4931410000000 1.0
C      1  0.7230360000000  0.5438120000000  0.4841060000000 1.0
C      1  0.2769630000000  0.4561880000000  0.4841070000000 1.0
C      1  0.6338580000000  0.5053700000000  0.6884080000000 1.0
C      1  0.3661430000000  0.4946300000000  0.6884090000000 1.0
C      1  0.3341920000000  0.6522190000000  0.5077080000000 1.0
C      1  0.6658080000000  0.3477810000000  0.5077070000000 1.0
C      1  0.5182250000000  0.5426260000000  0.2700830000000 1.0
C      1  0.4817730000000  0.4573740000000  0.2700830000000 1.0
C      1  0.4563950000000  0.5286220000000  0.7160500000000 1.0
C      1  0.5436060000000  0.4713780000000  0.7160500000000 1.0
C      1  0.4709940000000  0.6270790000000  0.6913190000000 1.0
C      1  0.5290070000000  0.3729210000000  0.6913190000000 1.0
C      1  0.5774850000000  0.2960450000000  0.3929780000000 1.0
C      1  0.4225140000000  0.7039550000000  0.3929790000000 1.0
C      1  0.4167990000000  0.2842690000000  0.3661230000000 1.0
C      1  0.5832000000000  0.7157310000000  0.3661220000000 1.0
C      1  0.2994210000000  0.5605010000000  0.6442340000000 1.0
C      1  0.7005800000000  0.4394990000000  0.6442330000000 1.0
C      1  0.3510360000000  0.3682350000000  0.3546950000000 1.0
C      1  0.6489630000000  0.6317650000000  0.3546940000000 1.0
C      1  0.4591770000000  0.2459540000000  0.4429970000000 1.0
C      1  0.5408220000000  0.7540460000000  0.4429960000000 1.0
C      1  0.5352530000000  0.5284280000000  0.5958790000000 1.0
C      1  0.4647470000000  0.4715720000000  0.5958790000000 1.0
C      1  0.3990370000000  0.6811290000000  0.6544330000000 1.0
C      1  0.6009630000000  0.3188710000000  0.6544320000000 1.0
C      1  0.5364730000000  0.4613010000000  0.3914010000000 1.0
C      1  0.4635260000000  0.5386990000000  0.3914010000000 1.0
C      1  0.6878970000000  0.3513890000000  0.6772900000000 1.0
C      1  0.3121040000000  0.6486110000000  0.6772910000000 1.0
C      1  0.5218660000000  0.2621920000000  0.5092380000000 1.0
C      1  0.4781340000000  0.7378080000000  0.5092380000000 1.0
C      1  0.4419530000000  0.3758470000000  0.2990410000000 1.0
C      1  0.5580450000000  0.6241530000000  0.2990410000000 1.0
END
