TITL C-3036481-494-142 -9.80567693200445e-08 3375 -342.062566047348 0 0 60 (C1) n - 1
REM
REM in /home/bkarasulu/work/CARBON/AIRSS/Generating-Clusters/REBO/Higher-Symm/Only-C60
REM
REM
REM
REM
REM
REM ./C.cell (a2850807a9bf4ad07a5b6933b78d9264)
REM AIRSS Version 0.9.1 bugfix July 2018 build 013d7b7c2542+ Fri, 06 Jul 2018 19:26:36 +0100
REM compiler GCC version 9.2.1 20190827 (Red Hat 9.2.1-1)
REM options -cpp -mtune=generic -march=x86-64 -g -O0 -fpre-include=/usr/include/finclude/math-vector-fortran.h
REM seed 397212933 641287363 115888504 -2144159039 -340413471 -1236210877 -2075759336 -562878358 -382612179 -2031843559 567161123 401623701 -925485125 1506563613 13025790 460431407 -2141341034 -1867467861 -1346420667 -325336349 1685697257 530598622 -457884504 788283249 -1632134598 1129641997 1006611215 417514030 -426946380 814675947 662552805 162386525 177000563
REM
CELL 1.54180   15.00000   15.00000   15.00000   90.00000   90.00000   90.00000
LATT -1
SFAC C  
C      1  0.5014500000000  0.3342170000000  0.6618380000000 1.0
C      1  0.4284770000000  0.3066430000000  0.5933570000000 1.0
C      1  0.7357330000000  0.4789570000000  0.4494250000000 1.0
C      1  0.6928210000000  0.5229240000000  0.3744830000000 1.0
C      1  0.4824040000000  0.7177710000000  0.4112510000000 1.0
C      1  0.3703580000000  0.6800080000000  0.4719330000000 1.0
C      1  0.3253250000000  0.3498040000000  0.4635260000000 1.0
C      1  0.3710940000000  0.3544210000000  0.3803370000000 1.0
C      1  0.4273680000000  0.5836470000000  0.4707200000000 1.0
C      1  0.5408570000000  0.4466240000000  0.2989390000000 1.0
C      1  0.6081250000000  0.3527260000000  0.6275850000000 1.0
C      1  0.6396880000000  0.6085830000000  0.3964580000000 1.0
C      1  0.3125910000000  0.5871660000000  0.4779880000000 1.0
C      1  0.3221970000000  0.6033610000000  0.6353360000000 1.0
C      1  0.6651920000000  0.6069350000000  0.5594580000000 1.0
C      1  0.6379160000000  0.3154200000000  0.4611020000000 1.0
C      1  0.4937870000000  0.5936580000000  0.3085590000000 1.0
C      1  0.2860780000000  0.5319450000000  0.5717000000000 1.0
C      1  0.5981660000000  0.5740350000000  0.7265240000000 1.0
C      1  0.5817710000000  0.6966170000000  0.4248180000000 1.0
C      1  0.3762650000000  0.4377340000000  0.6965080000000 1.0
C      1  0.7270350000000  0.3834860000000  0.4440010000000 1.0
C      1  0.3188530000000  0.4327930000000  0.6107160000000 1.0
C      1  0.4100500000000  0.4913230000000  0.4132580000000 1.0
C      1  0.3236760000000  0.5144980000000  0.3151350000000 1.0
C      1  0.3442330000000  0.6018130000000  0.3691280000000 1.0
C      1  0.5399560000000  0.4751710000000  0.7367480000000 1.0
C      1  0.4296150000000  0.6525060000000  0.3566780000000 1.0
C      1  0.3432720000000  0.3570970000000  0.5567640000000 1.0
C      1  0.3018380000000  0.4711800000000  0.4139320000000 1.0
C      1  0.4342010000000  0.7543730000000  0.5914730000000 1.0
C      1  0.5580300000000  0.3326260000000  0.5401170000000 1.0
C      1  0.5291600000000  0.6244610000000  0.2287950000000 1.0
C      1  0.6064830000000  0.4587220000000  0.6602590000000 1.0
C      1  0.7264890000000  0.5116780000000  0.5431040000000 1.0
C      1  0.6929960000000  0.4246010000000  0.5991650000000 1.0
C      1  0.5260380000000  0.5185860000000  0.5750970000000 1.0
C      1  0.4223870000000  0.5775150000000  0.6723740000000 1.0
C      1  0.5111430000000  0.5923390000000  0.5220290000000 1.0
C      1  0.7581300000000  0.5864800000000  0.6215220000000 1.0
C      1  0.4304420000000  0.7535680000000  0.4961060000000 1.0
C      1  0.4676090000000  0.3172340000000  0.3914070000000 1.0
C      1  0.4690070000000  0.4007660000000  0.5511910000000 1.0
C      1  0.4928020000000  0.5738270000000  0.7428180000000 1.0
C      1  0.6678800000000  0.3507520000000  0.3570350000000 1.0
C      1  0.5377490000000  0.2675430000000  0.4536500000000 1.0
C      1  0.4603180000000  0.4960900000000  0.3173440000000 1.0
C      1  0.5623190000000  0.5464120000000  0.3842780000000 1.0
C      1  0.5593680000000  0.3663160000000  0.3669410000000 1.0
C      1  0.3553900000000  0.4148810000000  0.3068040000000 1.0
C      1  0.2537230000000  0.4683800000000  0.4889430000000 1.0
C      1  0.4422340000000  0.4817850000000  0.6186160000000 1.0
C      1  0.5869320000000  0.6443170000000  0.5124800000000 1.0
C      1  0.4698420000000  0.4023470000000  0.7217480000000 1.0
C      1  0.6634510000000  0.6043550000000  0.6733180000000 1.0
C      1  0.4675390000000  0.4150950000000  0.4494390000000 1.0
C      1  0.6450460000000  0.4555510000000  0.3197120000000 1.0
C      1  0.6018650000000  0.4583510000000  0.5415020000000 1.0
C      1  0.3980880000000  0.6816820000000  0.6377850000000 1.0
C      1  0.5671500000000  0.4563040000000  0.4367420000000 1.0
END
