TITL C-3036483-1610-615 0.016876638469288 3375 -322.899095651743 0 0 60 (C2v) n - 1
REM
REM in /home/bkarasulu/work/CARBON/AIRSS/Generating-Clusters/REBO/Higher-Symm/Only-C60
REM
REM
REM
REM
REM
REM ./C.cell (a2850807a9bf4ad07a5b6933b78d9264)
REM AIRSS Version 0.9.1 bugfix July 2018 build 013d7b7c2542+ Fri, 06 Jul 2018 19:26:36 +0100
REM compiler GCC version 9.2.1 20190827 (Red Hat 9.2.1-1)
REM options -cpp -mtune=generic -march=x86-64 -g -O0 -fpre-include=/usr/include/finclude/math-vector-fortran.h
REM seed -383581396 1619466667 406106057 1579812802 892926499 2144822472 1293856844 912334939 -30373443 -1695936457 1309609947 148997431 -579044528 49940687 -282223486 -868174207 752616874 492099664 -1946422242 -1935152831 -2088577012 1941087696 -1624206755 2030350838 -1104138478 -567725282 -204736320 1878999467 -1851422271 -1950753648 -1797039826 -154264614 1298066338
REM
CELL 1.54180   15.00000   15.00000   15.00000   90.00000   90.00000   90.00000
LATT -1
SFAC C  
C      1  0.3603360000000  0.5449230000000  0.6412470000000 1.0
C      1  0.3601650000000  0.4465290000000  0.3639910000000 1.0
C      1  0.3601870000000  0.5449300000000  0.3639840000000 1.0
C      1  0.3603580000000  0.4465410000000  0.6412810000000 1.0
C      1  0.6694390000000  0.3280100000000  0.4475340000000 1.0
C      1  0.6693930000000  0.6634550000000  0.5576690000000 1.0
C      1  0.6693950000000  0.3279970000000  0.5576660000000 1.0
C      1  0.6694130000000  0.6634550000000  0.4475370000000 1.0
C      1  0.5234780000000  0.6667300000000  0.4365360000000 1.0
C      1  0.5233540000000  0.3247390000000  0.5687540000000 1.0
C      1  0.5233920000000  0.6667020000000  0.5687290000000 1.0
C      1  0.5235310000000  0.3247000000000  0.4365630000000 1.0
C      1  0.5047990000000  0.7433170000000  0.6506540000000 1.0
C      1  0.5046940000000  0.2481490000000  0.3546500000000 1.0
C      1  0.5047460000000  0.7433110000000  0.3546210000000 1.0
C      1  0.5047840000000  0.2481150000000  0.6506790000000 1.0
C      1  0.3736980000000  0.3247810000000  0.5900450000000 1.0
C      1  0.3736930000000  0.6667290000000  0.4150910000000 1.0
C      1  0.3736710000000  0.3247260000000  0.4150730000000 1.0
C      1  0.3737110000000  0.6666470000000  0.5900850000000 1.0
C      1  0.4271460000000  0.4191300000000  0.5573370000000 1.0
C      1  0.4272070000000  0.5722960000000  0.4477790000000 1.0
C      1  0.4272000000000  0.4191540000000  0.4477600000000 1.0
C      1  0.4271620000000  0.5723040000000  0.5573530000000 1.0
C      1  0.4299660000000  0.3965860000000  0.7081040000000 1.0
C      1  0.4299640000000  0.5948630000000  0.2971910000000 1.0
C      1  0.4299620000000  0.3965750000000  0.2972280000000 1.0
C      1  0.4299680000000  0.5948520000000  0.7080800000000 1.0
C      1  0.4208340000000  0.6999960000000  0.6777420000000 1.0
C      1  0.4207640000000  0.2913660000000  0.3274020000000 1.0
C      1  0.4208020000000  0.7000500000000  0.3274310000000 1.0
C      1  0.4208160000000  0.2914700000000  0.6777210000000 1.0
C      1  0.6041830000000  0.4517880000000  0.3250720000000 1.0
C      1  0.6041700000000  0.5396560000000  0.6801180000000 1.0
C      1  0.6041630000000  0.4517760000000  0.6801210000000 1.0
C      1  0.6041780000000  0.5396710000000  0.3250700000000 1.0
C      1  0.5246090000000  0.3780880000000  0.3376480000000 1.0
C      1  0.5245940000000  0.6133600000000  0.6676340000000 1.0
C      1  0.5245860000000  0.3780720000000  0.6676540000000 1.0
C      1  0.5245970000000  0.6133640000000  0.3376220000000 1.0
C      1  0.2958740000000  0.5898840000000  0.4458840000000 1.0
C      1  0.2958970000000  0.4014910000000  0.5593230000000 1.0
C      1  0.2959060000000  0.5899410000000  0.5593310000000 1.0
C      1  0.2958710000000  0.4015660000000  0.4458890000000 1.0
C      1  0.6334590000000  0.6286540000000  0.6328510000000 1.0
C      1  0.6335130000000  0.3628140000000  0.3723450000000 1.0
C      1  0.6334890000000  0.6286510000000  0.3723470000000 1.0
C      1  0.6334410000000  0.3627780000000  0.6328480000000 1.0
C      1  0.5675990000000  0.4052920000000  0.5026560000000 1.0
C      1  0.5675930000000  0.5861490000000  0.5026260000000 1.0
C      1  0.4192080000000  0.4957190000000  0.7500430000000 1.0
C      1  0.4192730000000  0.4957150000000  0.2551930000000 1.0
C      1  0.4351070000000  0.6931550000000  0.5025690000000 1.0
C      1  0.4351090000000  0.2982940000000  0.5025390000000 1.0
C      1  0.7297510000000  0.7342920000000  0.5026140000000 1.0
C      1  0.7297920000000  0.2571900000000  0.5026160000000 1.0
C      1  0.4965950000000  0.4957210000000  0.5025340000000 1.0
C      1  0.7169880000000  0.4957260000000  0.5026290000000 1.0
C      1  0.2678420000000  0.4957390000000  0.5026360000000 1.0
C      1  0.6292410000000  0.4957220000000  0.5026510000000 1.0
END
