TITL C-3036484-3770-1021 0.000161186228902 3375 -339.314914227308 0 0 60 (C1) n - 1
REM
REM in /home/bkarasulu/work/CARBON/AIRSS/Generating-Clusters/REBO/Higher-Symm/Only-C60
REM
REM
REM
REM
REM
REM ./C.cell (a2850807a9bf4ad07a5b6933b78d9264)
REM AIRSS Version 0.9.1 bugfix July 2018 build 013d7b7c2542+ Fri, 06 Jul 2018 19:26:36 +0100
REM compiler GCC version 9.2.1 20190827 (Red Hat 9.2.1-1)
REM options -cpp -mtune=generic -march=x86-64 -g -O0 -fpre-include=/usr/include/finclude/math-vector-fortran.h
REM seed 2031700056 1190266832 -1111323270 -595056723 -1643147162 -332768185 1700089323 -987343812 1333153192 1093433893 -542104671 350696860 -954327597 -1390086425 -1087019624 -4875162 -1303033331 -2045299565 -1673111996 1260643286 2131574030 -2103993943 -175436211 -664165504 -718817842 -2034235752 658356168 -296321136 924884251 505585115 1771720849 -1378356454 -678008377
REM
CELL 1.54180   15.00000   15.00000   15.00000   90.00000   90.00000   90.00000
LATT -1
SFAC C  
C      1  0.4566170000000  0.3712980000000  0.3937180000000 1.0
C      1  0.3013160000000  0.4911750000000  0.4690510000000 1.0
C      1  0.3804690000000  0.2878150000000  0.3978410000000 1.0
C      1  0.3249600000000  0.4550840000000  0.6372230000000 1.0
C      1  0.6538630000000  0.2981590000000  0.4210640000000 1.0
C      1  0.5950980000000  0.7381960000000  0.3728090000000 1.0
C      1  0.6530920000000  0.6313920000000  0.5794510000000 1.0
C      1  0.5509290000000  0.5422740000000  0.7845010000000 1.0
C      1  0.3673380000000  0.5245090000000  0.2783360000000 1.0
C      1  0.6146840000000  0.4485950000000  0.5482390000000 1.0
C      1  0.3178900000000  0.6000560000000  0.4370340000000 1.0
C      1  0.4994610000000  0.6567780000000  0.4126350000000 1.0
C      1  0.6796240000000  0.4738510000000  0.3907210000000 1.0
C      1  0.4308690000000  0.3369650000000  0.6711020000000 1.0
C      1  0.4399020000000  0.3867570000000  0.5191220000000 1.0
C      1  0.5325080000000  0.6675340000000  0.3066840000000 1.0
C      1  0.4628950000000  0.5163820000000  0.4984630000000 1.0
C      1  0.4197380000000  0.4643550000000  0.4141990000000 1.0
C      1  0.3347920000000  0.4211410000000  0.5359140000000 1.0
C      1  0.4142780000000  0.4212940000000  0.2779050000000 1.0
C      1  0.5112040000000  0.4486270000000  0.5654480000000 1.0
C      1  0.4065270000000  0.4413430000000  0.7030230000000 1.0
C      1  0.5869970000000  0.5526570000000  0.5308900000000 1.0
C      1  0.6693140000000  0.3654120000000  0.3597840000000 1.0
C      1  0.7123420000000  0.5840170000000  0.4995510000000 1.0
C      1  0.5755130000000  0.5103800000000  0.3642610000000 1.0
C      1  0.4113840000000  0.6658240000000  0.6781020000000 1.0
C      1  0.3928640000000  0.5543180000000  0.7010000000000 1.0
C      1  0.5049390000000  0.4468970000000  0.6667190000000 1.0
C      1  0.6880400000000  0.4101760000000  0.4841470000000 1.0
C      1  0.2941770000000  0.5530360000000  0.6421360000000 1.0
C      1  0.5723640000000  0.4675600000000  0.7384320000000 1.0
C      1  0.4954370000000  0.4997580000000  0.2927470000000 1.0
C      1  0.6316280000000  0.6394810000000  0.3572370000000 1.0
C      1  0.6035650000000  0.3402150000000  0.6246050000000 1.0
C      1  0.5824260000000  0.6415990000000  0.6692140000000 1.0
C      1  0.5513570000000  0.7412690000000  0.4659530000000 1.0
C      1  0.6374400000000  0.4352940000000  0.6582600000000 1.0
C      1  0.3590190000000  0.6279830000000  0.5955860000000 1.0
C      1  0.6226260000000  0.5425130000000  0.6407170000000 1.0
C      1  0.5926820000000  0.4116130000000  0.3133550000000 1.0
C      1  0.4544990000000  0.5998520000000  0.2834200000000 1.0
C      1  0.4807110000000  0.2730340000000  0.4377560000000 1.0
C      1  0.7446220000000  0.4994190000000  0.5228300000000 1.0
C      1  0.3991960000000  0.5655850000000  0.3755910000000 1.0
C      1  0.3396280000000  0.3563350000000  0.3324910000000 1.0
C      1  0.6385660000000  0.3191070000000  0.5315750000000 1.0
C      1  0.5032000000000  0.7012560000000  0.6354450000000 1.0
C      1  0.3185610000000  0.4616060000000  0.3609100000000 1.0
C      1  0.2767760000000  0.5799060000000  0.5356880000000 1.0
C      1  0.5381080000000  0.5675790000000  0.4410310000000 1.0
C      1  0.4908980000000  0.6070800000000  0.7282690000000 1.0
C      1  0.5099350000000  0.3690350000000  0.3015260000000 1.0
C      1  0.3952400000000  0.6802090000000  0.4312260000000 1.0
C      1  0.3819160000000  0.3303990000000  0.5875590000000 1.0
C      1  0.5648440000000  0.2614020000000  0.4681580000000 1.0
C      1  0.6794530000000  0.5808800000000  0.4087410000000 1.0
C      1  0.4287870000000  0.6197760000000  0.5191690000000 1.0
C      1  0.5238650000000  0.3149050000000  0.6624230000000 1.0
C      1  0.4990310000000  0.6990560000000  0.5390120000000 1.0
END
