TITL C-3036482-790-761 -4.04438948285801e-06 3375 -340.333621110508 0 0 60 (C2) n - 1
REM
REM in /home/bkarasulu/work/CARBON/AIRSS/Generating-Clusters/REBO/Higher-Symm/Only-C60
REM
REM
REM
REM
REM
REM ./C.cell (a2850807a9bf4ad07a5b6933b78d9264)
REM AIRSS Version 0.9.1 bugfix July 2018 build 013d7b7c2542+ Fri, 06 Jul 2018 19:26:36 +0100
REM compiler GCC version 9.2.1 20190827 (Red Hat 9.2.1-1)
REM options -cpp -mtune=generic -march=x86-64 -g -O0 -fpre-include=/usr/include/finclude/math-vector-fortran.h
REM seed -94797892 -1129948967 -117407929 1263407244 930980354 -1562259048 -1479227701 180241592 1547845512 -2112719433 -1689366604 1316438859 961026236 489395196 -1554474687 696954942 195378112 253043027 10579418 1755657142 490449952 -1687373891 -1380348689 -772116311 -609971387 1185109129 1942849599 -796107400 -1092095147 1790420671 -1095877095 -1929863074 -229170705
REM
CELL 1.54180   15.00000   15.00000   15.00000   90.00000   90.00000   90.00000
LATT -1
SFAC C  
C      1  0.5855510000000  0.2648020000000  0.4483010000000 1.0
C      1  0.7249380000000  0.5819710000000  0.4448230000000 1.0
C      1  0.4144490000000  0.7351980000000  0.4483010000000 1.0
C      1  0.2750620000000  0.4180290000000  0.4448230000000 1.0
C      1  0.5214770000000  0.3491080000000  0.4342070000000 1.0
C      1  0.6403410000000  0.5171420000000  0.4345230000000 1.0
C      1  0.4785230000000  0.6508920000000  0.4342070000000 1.0
C      1  0.3596590000000  0.4828580000000  0.4345230000000 1.0
C      1  0.4655220000000  0.6186820000000  0.6042980000000 1.0
C      1  0.3900020000000  0.4655700000000  0.6008500000000 1.0
C      1  0.5344780000000  0.3813180000000  0.6042980000000 1.0
C      1  0.6099980000000  0.5344300000000  0.6008500000000 1.0
C      1  0.4593720000000  0.4301310000000  0.7453310000000 1.0
C      1  0.5572520000000  0.4667790000000  0.7438940000000 1.0
C      1  0.5406280000000  0.5698690000000  0.7453310000000 1.0
C      1  0.4427480000000  0.5332210000000  0.7438940000000 1.0
C      1  0.6120550000000  0.6015930000000  0.3656700000000 1.0
C      1  0.3965520000000  0.6248490000000  0.3632010000000 1.0
C      1  0.3879450000000  0.3984070000000  0.3656700000000 1.0
C      1  0.6034480000000  0.3751510000000  0.3632010000000 1.0
C      1  0.6940230000000  0.3603760000000  0.5216630000000 1.0
C      1  0.6389230000000  0.6984090000000  0.5163030000000 1.0
C      1  0.3059770000000  0.6396240000000  0.5216630000000 1.0
C      1  0.3610770000000  0.3015910000000  0.5163030000000 1.0
C      1  0.3976350000000  0.5608030000000  0.6550300000000 1.0
C      1  0.4373050000000  0.3904950000000  0.6532410000000 1.0
C      1  0.6023650000000  0.4391970000000  0.6550300000000 1.0
C      1  0.5626950000000  0.6095050000000  0.6532410000000 1.0
C      1  0.4203410000000  0.3207610000000  0.4209640000000 1.0
C      1  0.6736070000000  0.4158360000000  0.4243210000000 1.0
C      1  0.5796590000000  0.6792390000000  0.4209640000000 1.0
C      1  0.3263930000000  0.5841640000000  0.4243210000000 1.0
C      1  0.3586770000000  0.7235870000000  0.5285010000000 1.0
C      1  0.2815870000000  0.3598470000000  0.5234750000000 1.0
C      1  0.6413230000000  0.2764130000000  0.5285010000000 1.0
C      1  0.7184130000000  0.6401530000000  0.5234750000000 1.0
C      1  0.5664400000000  0.7044370000000  0.6033210000000 1.0
C      1  0.3016450000000  0.5640320000000  0.6062660000000 1.0
C      1  0.4335600000000  0.2955630000000  0.6033210000000 1.0
C      1  0.6983550000000  0.4359680000000  0.6062660000000 1.0
C      1  0.4792920000000  0.6556240000000  0.3012900000000 1.0
C      1  0.3422930000000  0.4704190000000  0.3030490000000 1.0
C      1  0.5207080000000  0.3443760000000  0.3012900000000 1.0
C      1  0.6577070000000  0.5295810000000  0.3030490000000 1.0
C      1  0.5198080000000  0.4188540000000  0.5079380000000 1.0
C      1  0.5656490000000  0.5155790000000  0.5071620000000 1.0
C      1  0.4801920000000  0.5811460000000  0.5079380000000 1.0
C      1  0.4343510000000  0.4844210000000  0.5071620000000 1.0
C      1  0.4704710000000  0.4381620000000  0.2972590000000 1.0
C      1  0.5820570000000  0.4609170000000  0.2936560000000 1.0
C      1  0.5295290000000  0.5618380000000  0.2972590000000 1.0
C      1  0.4179430000000  0.5390830000000  0.2936560000000 1.0
C      1  0.2595300000000  0.5375200000000  0.5035010000000 1.0
C      1  0.4616520000000  0.2513830000000  0.5017730000000 1.0
C      1  0.7404700000000  0.4624800000000  0.5035010000000 1.0
C      1  0.5383480000000  0.7486170000000  0.5017730000000 1.0
C      1  0.4562970000000  0.7216070000000  0.5739230000000 1.0
C      1  0.2875010000000  0.4546040000000  0.5722660000000 1.0
C      1  0.5437030000000  0.2783930000000  0.5739230000000 1.0
C      1  0.7124990000000  0.5453960000000  0.5722660000000 1.0
END
