TITL C-3036484-3770-77 0.000111984606916705 3375 -358.408258264667 0 0 60 (C1) n - 1
REM
REM in /home/bkarasulu/work/CARBON/AIRSS/Generating-Clusters/REBO/Higher-Symm/Only-C60
REM
REM
REM
REM
REM
REM ./C.cell (a2850807a9bf4ad07a5b6933b78d9264)
REM AIRSS Version 0.9.1 bugfix July 2018 build 013d7b7c2542+ Fri, 06 Jul 2018 19:26:36 +0100
REM compiler GCC version 9.2.1 20190827 (Red Hat 9.2.1-1)
REM options -cpp -mtune=generic -march=x86-64 -g -O0 -fpre-include=/usr/include/finclude/math-vector-fortran.h
REM seed 893704356 -800402824 -795886169 1792036060 196989786 -44219745 1584458549 204773380 1995012098 -386327916 -1254732817 -552816702 -49731053 891443925 474295860 2091293942 1950523966 -1715643773 1380486430 1313682124 2038604241 -882734317 1700184169 1313594948 -568794027 1934648522 1906717954 -470123223 -1569955853 1307657309 -2066112047 237292820 -1165694068
REM
CELL 1.54180   15.00000   15.00000   15.00000   90.00000   90.00000   90.00000
LATT -1
SFAC C  
C      1  0.4580600000000  0.6202470000000  0.6949920000000 1.0
C      1  0.5651980000000  0.6124890000000  0.6838340000000 1.0
C      1  0.6256360000000  0.5186250000000  0.7048140000000 1.0
C      1  0.5899940000000  0.4159020000000  0.6823090000000 1.0
C      1  0.4873290000000  0.3750200000000  0.6990810000000 1.0
C      1  0.3964290000000  0.4367720000000  0.6974500000000 1.0
C      1  0.3792920000000  0.5434670000000  0.6818900000000 1.0
C      1  0.3272200000000  0.5046750000000  0.3720100000000 1.0
C      1  0.3939960000000  0.6521820000000  0.3698460000000 1.0
C      1  0.5497760000000  0.6877950000000  0.3684770000000 1.0
C      1  0.6739510000000  0.5811750000000  0.3672210000000 1.0
C      1  0.6709340000000  0.4191180000000  0.3669640000000 1.0
C      1  0.5444370000000  0.3160630000000  0.3609830000000 1.0
C      1  0.3888620000000  0.3563510000000  0.3705540000000 1.0
C      1  0.5952780000000  0.5507520000000  0.4702850000000 1.0
C      1  0.5938620000000  0.4552160000000  0.4692500000000 1.0
C      1  0.5253340000000  0.3919670000000  0.4750920000000 1.0
C      1  0.4329330000000  0.3986990000000  0.4882800000000 1.0
C      1  0.3903420000000  0.5042730000000  0.4892960000000 1.0
C      1  0.4318680000000  0.6093880000000  0.4899680000000 1.0
C      1  0.5269030000000  0.6164810000000  0.4786960000000 1.0
C      1  0.5597510000000  0.2869450000000  0.5489310000000 1.0
C      1  0.3825730000000  0.3283330000000  0.5543650000000 1.0
C      1  0.2732340000000  0.5170270000000  0.5379060000000 1.0
C      1  0.3698270000000  0.6739480000000  0.5515660000000 1.0
C      1  0.5765110000000  0.7219160000000  0.5426190000000 1.0
C      1  0.6872800000000  0.6007490000000  0.5530750000000 1.0
C      1  0.6888380000000  0.3910350000000  0.5387120000000 1.0
C      1  0.6699190000000  0.4620500000000  0.6170830000000 1.0
C      1  0.5588800000000  0.3182840000000  0.6374050000000 1.0
C      1  0.3938440000000  0.3338050000000  0.6540320000000 1.0
C      1  0.3261880000000  0.4690980000000  0.6181680000000 1.0
C      1  0.3628950000000  0.6498160000000  0.6488380000000 1.0
C      1  0.5090570000000  0.6871280000000  0.6199460000000 1.0
C      1  0.6689830000000  0.6028280000000  0.6455440000000 1.0
C      1  0.5251020000000  0.3813300000000  0.2911930000000 1.0
C      1  0.4346930000000  0.4124000000000  0.2992520000000 1.0
C      1  0.3982910000000  0.5039100000000  0.3018730000000 1.0
C      1  0.4391100000000  0.5947780000000  0.3004550000000 1.0
C      1  0.5299520000000  0.6251150000000  0.2950870000000 1.0
C      1  0.6083090000000  0.5557810000000  0.2905280000000 1.0
C      1  0.6061920000000  0.4479250000000  0.2891320000000 1.0
C      1  0.3230120000000  0.5959060000000  0.4082240000000 1.0
C      1  0.4633320000000  0.7127280000000  0.4125540000000 1.0
C      1  0.6369640000000  0.6612330000000  0.4086300000000 1.0
C      1  0.7046570000000  0.5004390000000  0.4112540000000 1.0
C      1  0.6291270000000  0.3373430000000  0.4043050000000 1.0
C      1  0.4615500000000  0.2948620000000  0.4097830000000 1.0
C      1  0.3229630000000  0.4160030000000  0.4156460000000 1.0
C      1  0.2996530000000  0.6036530000000  0.4989550000000 1.0
C      1  0.4646380000000  0.7321450000000  0.5242570000000 1.0
C      1  0.6459000000000  0.6713530000000  0.5027060000000 1.0
C      1  0.7094110000000  0.5008020000000  0.5166880000000 1.0
C      1  0.6372150000000  0.3236490000000  0.4982570000000 1.0
C      1  0.4698310000000  0.2731590000000  0.5057310000000 1.0
C      1  0.3062190000000  0.4078420000000  0.5238260000000 1.0
C      1  0.5237130000000  0.5024860000000  0.3462610000000 1.0
C      1  0.5358520000000  0.5094560000000  0.6150200000000 1.0
C      1  0.4920600000000  0.5036830000000  0.5395400000000 1.0
C      1  0.4790730000000  0.5052970000000  0.4246280000000 1.0
END
