TITL C-3036482-790-1033 1.14125538456891e-05 3375 -370.191197313999 0 0 60 (Th) n - 1
REM
REM in /home/bkarasulu/work/CARBON/AIRSS/Generating-Clusters/REBO/Higher-Symm/Only-C60
REM
REM
REM
REM
REM
REM ./C.cell (a2850807a9bf4ad07a5b6933b78d9264)
REM AIRSS Version 0.9.1 bugfix July 2018 build 013d7b7c2542+ Fri, 06 Jul 2018 19:26:36 +0100
REM compiler GCC version 9.2.1 20190827 (Red Hat 9.2.1-1)
REM options -cpp -mtune=generic -march=x86-64 -g -O0 -fpre-include=/usr/include/finclude/math-vector-fortran.h
REM seed 1171284244 2035501082 -1205582043 309353056 1159808080 -1720760599 1320447033 1395088344 -503267335 1253089693 -2000494669 -1729615957 -34146080 1784086735 -1117612071 1207506484 330573395 1697482038 1988818557 2041802803 599046325 -1450464069 -117267523 -186296806 -1849999826 -1661976048 119840642 -1232318461 -1688357792 692005029 -2066790387 712114314 708045409
REM
CELL 1.54180   15.00000   15.00000   15.00000   90.00000   90.00000   90.00000
LATT -1
SFAC C  
C      1  0.5483300000000  0.2507070000000  0.4179800000000 1.0
C      1  0.2507080000000  0.4179780000000  0.5483310000000 1.0
C      1  0.4179770000000  0.5483270000000  0.2507080000000 1.0
C      1  0.4516690000000  0.7492920000000  0.4179770000000 1.0
C      1  0.5483290000000  0.7492930000000  0.5820200000000 1.0
C      1  0.4516720000000  0.2507080000000  0.5820230000000 1.0
C      1  0.7492920000000  0.5820230000000  0.5483270000000 1.0
C      1  0.2507070000000  0.5820200000000  0.4516720000000 1.0
C      1  0.7492920000000  0.4179790000000  0.4516700000000 1.0
C      1  0.5820200000000  0.4516700000000  0.2507080000000 1.0
C      1  0.4179800000000  0.4516720000000  0.7492930000000 1.0
C      1  0.5820220000000  0.5483310000000  0.7492910000000 1.0
C      1  0.5483310000000  0.2507080000000  0.5820230000000 1.0
C      1  0.2507080000000  0.4179770000000  0.4516730000000 1.0
C      1  0.4179800000000  0.5483310000000  0.7492920000000 1.0
C      1  0.4516700000000  0.7492930000000  0.5820200000000 1.0
C      1  0.5483280000000  0.7492920000000  0.4179770000000 1.0
C      1  0.4516710000000  0.2507070000000  0.4179810000000 1.0
C      1  0.7492920000000  0.5820220000000  0.4516690000000 1.0
C      1  0.2507080000000  0.5820210000000  0.5483300000000 1.0
C      1  0.7492930000000  0.4179800000000  0.5483280000000 1.0
C      1  0.5820230000000  0.4516730000000  0.7492920000000 1.0
C      1  0.4179770000000  0.4516690000000  0.2507090000000 1.0
C      1  0.5820200000000  0.5483280000000  0.2507070000000 1.0
C      1  0.6864820000000  0.3752930000000  0.6014220000000 1.0
C      1  0.3752930000000  0.6014230000000  0.6864810000000 1.0
C      1  0.6014210000000  0.6864810000000  0.3752900000000 1.0
C      1  0.3135190000000  0.6247080000000  0.6014220000000 1.0
C      1  0.6864800000000  0.6247080000000  0.3985760000000 1.0
C      1  0.3135190000000  0.3752900000000  0.3985800000000 1.0
C      1  0.6247090000000  0.3985790000000  0.6864810000000 1.0
C      1  0.3752920000000  0.3985760000000  0.3135210000000 1.0
C      1  0.6247060000000  0.6014220000000  0.3135180000000 1.0
C      1  0.3985780000000  0.3135180000000  0.3752940000000 1.0
C      1  0.6014240000000  0.3135200000000  0.6247080000000 1.0
C      1  0.3985780000000  0.6864820000000  0.6247070000000 1.0
C      1  0.6864810000000  0.3752920000000  0.3985770000000 1.0
C      1  0.3752910000000  0.6014210000000  0.3135200000000 1.0
C      1  0.6014220000000  0.6864820000000  0.6247060000000 1.0
C      1  0.3135180000000  0.6247070000000  0.3985780000000 1.0
C      1  0.6864810000000  0.6247090000000  0.6014200000000 1.0
C      1  0.3135200000000  0.3752920000000  0.6014240000000 1.0
C      1  0.6247070000000  0.3985770000000  0.3135190000000 1.0
C      1  0.3752940000000  0.3985780000000  0.6864820000000 1.0
C      1  0.6247080000000  0.6014240000000  0.6864790000000 1.0
C      1  0.3985790000000  0.3135190000000  0.6247100000000 1.0
C      1  0.6014220000000  0.3135190000000  0.3752930000000 1.0
C      1  0.3985760000000  0.6864800000000  0.3752920000000 1.0
C      1  0.7847350000000  0.5000010000000  0.4166170000000 1.0
C      1  0.2152650000000  0.4999990000000  0.5833830000000 1.0
C      1  0.4166200000000  0.2152630000000  0.5000020000000 1.0
C      1  0.5833800000000  0.7847360000000  0.4999980000000 1.0
C      1  0.4166180000000  0.7847360000000  0.4999990000000 1.0
C      1  0.5833820000000  0.2152640000000  0.5000010000000 1.0
C      1  0.2152640000000  0.4999980000000  0.4166210000000 1.0
C      1  0.4999990000000  0.4166170000000  0.2152650000000 1.0
C      1  0.7847360000000  0.5000020000000  0.5833790000000 1.0
C      1  0.4999980000000  0.5833790000000  0.2152640000000 1.0
C      1  0.5000010000000  0.5833830000000  0.7847350000000 1.0
C      1  0.5000020000000  0.4166210000000  0.7847360000000 1.0
END
