TITL C-3036479-9801-473 -1.10827156228619e-05 3375 -342.541884529056 0 0 60 (C1) n - 1
REM
REM in /home/bkarasulu/work/CARBON/AIRSS/Generating-Clusters/REBO/Higher-Symm/Only-C60
REM
REM
REM
REM
REM
REM ./C.cell (a2850807a9bf4ad07a5b6933b78d9264)
REM AIRSS Version 0.9.1 bugfix July 2018 build 013d7b7c2542+ Fri, 06 Jul 2018 19:26:36 +0100
REM compiler GCC version 9.2.1 20190827 (Red Hat 9.2.1-1)
REM options -cpp -mtune=generic -march=x86-64 -g -O0 -fpre-include=/usr/include/finclude/math-vector-fortran.h
REM seed -918220410 -539189988 825008952 -112021267 -965796981 615764826 -1364979384 -535586720 -1166216858 1184240511 1250588871 396856400 -152528415 -1570137304 1008777982 -534387927 2048913415 600854049 -1599564513 1812989643 1426369157 -1131920320 481716696 212095827 1455369683 830476594 1080068472 -169905924 -839089771 -752572387 393866483 -1606516559 -750885592
REM
CELL 1.54180   15.00000   15.00000   15.00000   90.00000   90.00000   90.00000
LATT -1
SFAC C  
C      1  0.6326670000000  0.3478290000000  0.4195890000000 1.0
C      1  0.2536730000000  0.5152450000000  0.4646930000000 1.0
C      1  0.5576600000000  0.2739060000000  0.5746620000000 1.0
C      1  0.4265140000000  0.5680590000000  0.7158380000000 1.0
C      1  0.3939190000000  0.3728950000000  0.6206370000000 1.0
C      1  0.5325430000000  0.4105370000000  0.2989640000000 1.0
C      1  0.5756190000000  0.5656660000000  0.3153220000000 1.0
C      1  0.3053040000000  0.4083810000000  0.5243880000000 1.0
C      1  0.5501650000000  0.3132060000000  0.3545040000000 1.0
C      1  0.3880050000000  0.6664460000000  0.6744370000000 1.0
C      1  0.3759720000000  0.7904470000000  0.3566560000000 1.0
C      1  0.4290800000000  0.7070480000000  0.6007280000000 1.0
C      1  0.6663150000000  0.6399060000000  0.7437970000000 1.0
C      1  0.4810400000000  0.5683020000000  0.2950160000000 1.0
C      1  0.5584000000000  0.4284200000000  0.4334810000000 1.0
C      1  0.3851530000000  0.3054830000000  0.5507450000000 1.0
C      1  0.3542930000000  0.3280480000000  0.3407520000000 1.0
C      1  0.4760620000000  0.4051540000000  0.4811210000000 1.0
C      1  0.5272200000000  0.5722670000000  0.4978330000000 1.0
C      1  0.4421680000000  0.2763060000000  0.4793530000000 1.0
C      1  0.7007530000000  0.4689060000000  0.5419670000000 1.0
C      1  0.3669250000000  0.6130440000000  0.5307890000000 1.0
C      1  0.6023550000000  0.5501070000000  0.5799310000000 1.0
C      1  0.6414310000000  0.4256280000000  0.6012390000000 1.0
C      1  0.5878540000000  0.5173370000000  0.4382730000000 1.0
C      1  0.6596000000000  0.5492130000000  0.7509750000000 1.0
C      1  0.4957820000000  0.4791370000000  0.6995640000000 1.0
C      1  0.6064590000000  0.4969100000000  0.6816740000000 1.0
C      1  0.7446150000000  0.5925550000000  0.4399140000000 1.0
C      1  0.6782170000000  0.4401860000000  0.3779960000000 1.0
C      1  0.4957670000000  0.5977880000000  0.6413620000000 1.0
C      1  0.6927850000000  0.6691340000000  0.4961860000000 1.0
C      1  0.3537880000000  0.4207370000000  0.3281750000000 1.0
C      1  0.5287710000000  0.3035680000000  0.6633020000000 1.0
C      1  0.5530310000000  0.6662610000000  0.6228620000000 1.0
C      1  0.3949980000000  0.2694670000000  0.3969920000000 1.0
C      1  0.4066310000000  0.5217700000000  0.3948370000000 1.0
C      1  0.6127050000000  0.4751690000000  0.3146050000000 1.0
C      1  0.5559320000000  0.3788960000000  0.5568970000000 1.0
C      1  0.6986950000000  0.5782960000000  0.5524000000000 1.0
C      1  0.2927980000000  0.5398560000000  0.5445730000000 1.0
C      1  0.5298300000000  0.3082150000000  0.2498090000000 1.0
C      1  0.5238130000000  0.7093030000000  0.5326400000000 1.0
C      1  0.5478800000000  0.2846690000000  0.4636430000000 1.0
C      1  0.6206090000000  0.6897960000000  0.6823820000000 1.0
C      1  0.4204390000000  0.7010270000000  0.4879670000000 1.0
C      1  0.3987120000000  0.4468490000000  0.5095910000000 1.0
C      1  0.7199440000000  0.4949150000000  0.4449430000000 1.0
C      1  0.5181010000000  0.4739700000000  0.5869780000000 1.0
C      1  0.4096380000000  0.7109710000000  0.3896320000000 1.0
C      1  0.4333480000000  0.6406450000000  0.3317370000000 1.0
C      1  0.4406510000000  0.5718720000000  0.4643240000000 1.0
C      1  0.2875360000000  0.3097940000000  0.5187780000000 1.0
C      1  0.4182440000000  0.5296640000000  0.5885090000000 1.0
C      1  0.3278860000000  0.4642130000000  0.6207940000000 1.0
C      1  0.3086850000000  0.4868730000000  0.3937000000000 1.0
C      1  0.4488700000000  0.4670780000000  0.3045150000000 1.0
C      1  0.4703980000000  0.3783170000000  0.6726380000000 1.0
C      1  0.5905070000000  0.6266460000000  0.3940360000000 1.0
C      1  0.6032440000000  0.6876650000000  0.4663540000000 1.0
END
