TITL C-3036483-1610-1040 4.00525036786535e-07 3375 -347.669269483376 0 0 60 (C1) n - 1
REM
REM in /home/bkarasulu/work/CARBON/AIRSS/Generating-Clusters/REBO/Higher-Symm/Only-C60
REM
REM
REM
REM
REM
REM ./C.cell (a2850807a9bf4ad07a5b6933b78d9264)
REM AIRSS Version 0.9.1 bugfix July 2018 build 013d7b7c2542+ Fri, 06 Jul 2018 19:26:36 +0100
REM compiler GCC version 9.2.1 20190827 (Red Hat 9.2.1-1)
REM options -cpp -mtune=generic -march=x86-64 -g -O0 -fpre-include=/usr/include/finclude/math-vector-fortran.h
REM seed -403856904 -1393401882 1164558036 -953123743 -1896816659 -1563102462 1939487520 571184791 -378776564 617644992 298866929 1976078153 -1300803177 277546102 1111394875 -1172189310 -179244458 -1076331144 -506822830 -1840685866 -1772650030 1241810400 -427615689 -1508770037 -855261620 -868345222 -1272781585 1043244693 -454053144 642682655 -230495806 297177987 213757543
REM
CELL 1.54180   15.00000   15.00000   15.00000   90.00000   90.00000   90.00000
LATT -1
SFAC C  
C      1  0.3843980000000  0.2842210000000  0.5549600000000 1.0
C      1  0.3132860000000  0.4666690000000  0.5302380000000 1.0
C      1  0.6550060000000  0.6240390000000  0.5729170000000 1.0
C      1  0.5495570000000  0.6580250000000  0.3364210000000 1.0
C      1  0.5585980000000  0.3439410000000  0.3388580000000 1.0
C      1  0.3580700000000  0.6723170000000  0.5982880000000 1.0
C      1  0.5157000000000  0.5029520000000  0.7379400000000 1.0
C      1  0.3886890000000  0.6515880000000  0.3501350000000 1.0
C      1  0.5760730000000  0.5896110000000  0.7198560000000 1.0
C      1  0.6477140000000  0.3563720000000  0.6176260000000 1.0
C      1  0.5088510000000  0.2485450000000  0.4575520000000 1.0
C      1  0.4746770000000  0.5960150000000  0.4463240000000 1.0
C      1  0.6853200000000  0.3989790000000  0.4429810000000 1.0
C      1  0.4949440000000  0.3449600000000  0.5164390000000 1.0
C      1  0.5810800000000  0.2758270000000  0.5359720000000 1.0
C      1  0.5436330000000  0.8116040000000  0.5806470000000 1.0
C      1  0.4254070000000  0.4600560000000  0.6000670000000 1.0
C      1  0.5803140000000  0.4100680000000  0.2746150000000 1.0
C      1  0.4932860000000  0.6083780000000  0.5588070000000 1.0
C      1  0.6300850000000  0.3212330000000  0.3915950000000 1.0
C      1  0.2774810000000  0.6467920000000  0.6398850000000 1.0
C      1  0.5683050000000  0.5153730000000  0.2537380000000 1.0
C      1  0.5770180000000  0.5530000000000  0.4273100000000 1.0
C      1  0.6752460000000  0.3116080000000  0.5158480000000 1.0
C      1  0.4379330000000  0.2881930000000  0.6382550000000 1.0
C      1  0.4039740000000  0.2812190000000  0.4429910000000 1.0
C      1  0.5562550000000  0.5348270000000  0.5302350000000 1.0
C      1  0.6368980000000  0.5735730000000  0.6483210000000 1.0
C      1  0.6418020000000  0.4664940000000  0.6374000000000 1.0
C      1  0.7199450000000  0.4086290000000  0.5468460000000 1.0
C      1  0.6243660000000  0.6890070000000  0.5055340000000 1.0
C      1  0.4714030000000  0.3547340000000  0.3862180000000 1.0
C      1  0.3714000000000  0.3363100000000  0.3490820000000 1.0
C      1  0.3215750000000  0.5341500000000  0.4657050000000 1.0
C      1  0.4677300000000  0.7080330000000  0.4744750000000 1.0
C      1  0.4388620000000  0.6327920000000  0.6300230000000 1.0
C      1  0.3884060000000  0.3881190000000  0.5203880000000 1.0
C      1  0.5481870000000  0.7416190000000  0.5212230000000 1.0
C      1  0.5055950000000  0.4497340000000  0.5328380000000 1.0
C      1  0.3407340000000  0.4059670000000  0.3002190000000 1.0
C      1  0.5457400000000  0.3137230000000  0.6354470000000 1.0
C      1  0.6349470000000  0.6441770000000  0.4084700000000 1.0
C      1  0.4694590000000  0.4444120000000  0.4328870000000 1.0
C      1  0.4714610000000  0.7044750000000  0.3701010000000 1.0
C      1  0.3725720000000  0.4941690000000  0.3060300000000 1.0
C      1  0.3678500000000  0.6909980000000  0.5056540000000 1.0
C      1  0.5152420000000  0.5885370000000  0.2767320000000 1.0
C      1  0.4689320000000  0.5992270000000  0.7130380000000 1.0
C      1  0.2503120000000  0.5602760000000  0.6516000000000 1.0
C      1  0.5499150000000  0.4171720000000  0.6834920000000 1.0
C      1  0.4171520000000  0.5821460000000  0.2871250000000 1.0
C      1  0.3709350000000  0.4441950000000  0.6859860000000 1.0
C      1  0.6566790000000  0.4820300000000  0.3034850000000 1.0
C      1  0.7197250000000  0.5097500000000  0.5661760000000 1.0
C      1  0.4457320000000  0.3733950000000  0.6976810000000 1.0
C      1  0.2963680000000  0.4823240000000  0.6246430000000 1.0
C      1  0.4082910000000  0.5238780000000  0.4063550000000 1.0
C      1  0.6967070000000  0.5748900000000  0.4782320000000 1.0
C      1  0.3358160000000  0.6322550000000  0.4338030000000 1.0
C      1  0.6683600000000  0.4923980000000  0.4042910000000 1.0
END
