TITL C-3036479-9801-75 2.15598881659594e-06 3375 -361.312894248607 0 0 60 (C1) n - 1
REM
REM in /home/bkarasulu/work/CARBON/AIRSS/Generating-Clusters/REBO/Higher-Symm/Only-C60
REM
REM
REM
REM
REM
REM ./C.cell (a2850807a9bf4ad07a5b6933b78d9264)
REM AIRSS Version 0.9.1 bugfix July 2018 build 013d7b7c2542+ Fri, 06 Jul 2018 19:26:36 +0100
REM compiler GCC version 9.2.1 20190827 (Red Hat 9.2.1-1)
REM options -cpp -mtune=generic -march=x86-64 -g -O0 -fpre-include=/usr/include/finclude/math-vector-fortran.h
REM seed -930494285 -1502266164 1488992533 1984338652 -358980050 1027486652 804081878 1872307722 -1145083122 -327132930 -1928297391 -1311410186 241340290 -701326368 -1809455771 1279928300 -954273797 -1567852110 1633563785 616050147 -2096356612 1339461628 2014020975 719687297 320617386 1146618495 -1095901234 228622716 391241132 2037226058 1850382537 -1753837824 -2097476419
REM
CELL 1.54180   15.00000   15.00000   15.00000   90.00000   90.00000   90.00000
LATT -1
SFAC C  
C      1  0.3001470000000  0.5137770000000  0.6740060000000 1.0
C      1  0.5647410000000  0.3589870000000  0.6611970000000 1.0
C      1  0.6263030000000  0.6583340000000  0.6911680000000 1.0
C      1  0.3018770000000  0.5042210000000  0.3478630000000 1.0
C      1  0.5748770000000  0.3694080000000  0.3433550000000 1.0
C      1  0.6213800000000  0.6738940000000  0.3129170000000 1.0
C      1  0.7453940000000  0.5248940000000  0.3742810000000 1.0
C      1  0.3988710000000  0.6738910000000  0.3698230000000 1.0
C      1  0.3845610000000  0.3024490000000  0.3790350000000 1.0
C      1  0.7381940000000  0.5075050000000  0.6140610000000 1.0
C      1  0.4042440000000  0.6706950000000  0.6109060000000 1.0
C      1  0.3706420000000  0.3104930000000  0.6171100000000 1.0
C      1  0.3365230000000  0.4624750000000  0.5589610000000 1.0
C      1  0.6199790000000  0.4053870000000  0.5512000000000 1.0
C      1  0.5403310000000  0.6062590000000  0.5573010000000 1.0
C      1  0.3509450000000  0.4481560000000  0.4543600000000 1.0
C      1  0.6325970000000  0.4265230000000  0.4462740000000 1.0
C      1  0.5354840000000  0.6150050000000  0.4442480000000 1.0
C      1  0.6495530000000  0.6008110000000  0.2643980000000 1.0
C      1  0.3532250000000  0.5514490000000  0.2811720000000 1.0
C      1  0.5056890000000  0.3503570000000  0.2883020000000 1.0
C      1  0.6538440000000  0.5816370000000  0.7340790000000 1.0
C      1  0.3612650000000  0.5679380000000  0.7248800000000 1.0
C      1  0.4925730000000  0.3454170000000  0.7141630000000 1.0
C      1  0.6674780000000  0.5057860000000  0.6796550000000 1.0
C      1  0.4312040000000  0.6021950000000  0.6722530000000 1.0
C      1  0.4104700000000  0.3722580000000  0.6781840000000 1.0
C      1  0.6692920000000  0.5227340000000  0.3137230000000 1.0
C      1  0.4265930000000  0.5969680000000  0.3193180000000 1.0
C      1  0.4211380000000  0.3707710000000  0.3227210000000 1.0
C      1  0.3119670000000  0.6857970000000  0.5955430000000 1.0
C      1  0.4210200000000  0.2319020000000  0.5993870000000 1.0
C      1  0.7676410000000  0.5946180000000  0.5880970000000 1.0
C      1  0.3056460000000  0.6844150000000  0.3852040000000 1.0
C      1  0.4464780000000  0.2341330000000  0.4020340000000 1.0
C      1  0.7686000000000  0.6126070000000  0.4043740000000 1.0
C      1  0.5841820000000  0.4624590000000  0.6398520000000 1.0
C      1  0.5012080000000  0.5254960000000  0.6265490000000 1.0
C      1  0.4031400000000  0.4706780000000  0.6441090000000 1.0
C      1  0.5895400000000  0.4756190000000  0.3584980000000 1.0
C      1  0.5019270000000  0.5322390000000  0.3742940000000 1.0
C      1  0.4101190000000  0.4657900000000  0.3656100000000 1.0
C      1  0.2568340000000  0.6343770000000  0.4469950000000 1.0
C      1  0.5192980000000  0.2465980000000  0.4606930000000 1.0
C      1  0.7004900000000  0.6585970000000  0.4533310000000 1.0
C      1  0.2570760000000  0.6282980000000  0.5448020000000 1.0
C      1  0.5041700000000  0.2304260000000  0.5566300000000 1.0
C      1  0.7019240000000  0.6514080000000  0.5480450000000 1.0
C      1  0.5859450000000  0.3237410000000  0.4450070000000 1.0
C      1  0.6176810000000  0.6646330000000  0.4072080000000 1.0
C      1  0.2694240000000  0.5272230000000  0.4540430000000 1.0
C      1  0.5757360000000  0.3072440000000  0.5649590000000 1.0
C      1  0.6204620000000  0.6551590000000  0.5967330000000 1.0
C      1  0.2556620000000  0.5309270000000  0.5746270000000 1.0
C      1  0.3269160000000  0.3556940000000  0.5465350000000 1.0
C      1  0.7211870000000  0.4467400000000  0.5427540000000 1.0
C      1  0.4624700000000  0.6740520000000  0.5384630000000 1.0
C      1  0.3341110000000  0.3402590000000  0.4485820000000 1.0
C      1  0.7348000000000  0.4610040000000  0.4436630000000 1.0
C      1  0.4549330000000  0.6871920000000  0.4424670000000 1.0
END
