TITL C-3036483-1610-784 -6.03845847505277e-06 3375 -344.224006441563 0 0 60 (C1) n - 1
REM
REM in /home/bkarasulu/work/CARBON/AIRSS/Generating-Clusters/REBO/Higher-Symm/Only-C60
REM
REM
REM
REM
REM
REM ./C.cell (a2850807a9bf4ad07a5b6933b78d9264)
REM AIRSS Version 0.9.1 bugfix July 2018 build 013d7b7c2542+ Fri, 06 Jul 2018 19:26:36 +0100
REM compiler GCC version 9.2.1 20190827 (Red Hat 9.2.1-1)
REM options -cpp -mtune=generic -march=x86-64 -g -O0 -fpre-include=/usr/include/finclude/math-vector-fortran.h
REM seed -101251920 323907022 335930952 2088956529 -333302687 -563146980 -2058210442 988881528 -1466268652 -783591343 -334919165 -722281737 525817225 -809035080 -1958953239 -1122837373 1988200782 648063232 943644166 -1862980756 1230295288 -1395536435 802205848 339451913 1628145670 100807129 -213884875 1943766001 312561743 -1871408753 -13812777 -530900508 -201029082
REM
CELL 1.54180   15.00000   15.00000   15.00000   90.00000   90.00000   90.00000
LATT -1
SFAC C  
C      1  0.5118620000000  0.2764470000000  0.4831680000000 1.0
C      1  0.5125840000000  0.4163240000000  0.7080670000000 1.0
C      1  0.5107460000000  0.6730180000000  0.6446160000000 1.0
C      1  0.5092210000000  0.6919980000000  0.3807460000000 1.0
C      1  0.5098480000000  0.4469370000000  0.2806400000000 1.0
C      1  0.7309060000000  0.4395230000000  0.5631250000000 1.0
C      1  0.7290130000000  0.5364430000000  0.5755890000000 1.0
C      1  0.7266590000000  0.5781600000000  0.4874370000000 1.0
C      1  0.7269540000000  0.5073770000000  0.4204940000000 1.0
C      1  0.7295510000000  0.4216940000000  0.4670500000000 1.0
C      1  0.5857410000000  0.6933870000000  0.4643450000000 1.0
C      1  0.5859090000000  0.5270580000000  0.3052520000000 1.0
C      1  0.5877720000000  0.3250860000000  0.4146540000000 1.0
C      1  0.5890030000000  0.3672520000000  0.6402090000000 1.0
C      1  0.5872430000000  0.5935420000000  0.6707270000000 1.0
C      1  0.5767500000000  0.5574420000000  0.5716320000000 1.0
C      1  0.5768260000000  0.5873510000000  0.4678830000000 1.0
C      1  0.5769710000000  0.4980510000000  0.4073650000000 1.0
C      1  0.5769700000000  0.4127590000000  0.4734710000000 1.0
C      1  0.5767830000000  0.4494860000000  0.5750590000000 1.0
C      1  0.3054200000000  0.5316360000000  0.4131850000000 1.0
C      1  0.3061100000000  0.4267620000000  0.4430080000000 1.0
C      1  0.3062640000000  0.4227420000000  0.5521330000000 1.0
C      1  0.3055770000000  0.5253200000000  0.5894460000000 1.0
C      1  0.3050630000000  0.5924040000000  0.5035490000000 1.0
C      1  0.5286390000000  0.6233990000000  0.3092800000000 1.0
C      1  0.5301210000000  0.3580790000000  0.3240280000000 1.0
C      1  0.5318510000000  0.2905300000000  0.5810290000000 1.0
C      1  0.5309550000000  0.5139620000000  0.7257010000000 1.0
C      1  0.5291700000000  0.7199910000000  0.5571700000000 1.0
C      1  0.3989220000000  0.6747610000000  0.6646180000000 1.0
C      1  0.3973440000000  0.7114960000000  0.3848360000000 1.0
C      1  0.3979410000000  0.4563310000000  0.2631900000000 1.0
C      1  0.4000880000000  0.2619770000000  0.4685860000000 1.0
C      1  0.4008600000000  0.3974260000000  0.7165560000000 1.0
C      1  0.3510780000000  0.5471720000000  0.3104060000000 1.0
C      1  0.3528980000000  0.3343940000000  0.3963890000000 1.0
C      1  0.3542920000000  0.3505780000000  0.6255250000000 1.0
C      1  0.3529450000000  0.5735060000000  0.6807130000000 1.0
C      1  0.3510150000000  0.6947160000000  0.4859290000000 1.0
C      1  0.4592790000000  0.5502590000000  0.2743490000000 1.0
C      1  0.4613750000000  0.3017380000000  0.3827850000000 1.0
C      1  0.4629320000000  0.3284720000000  0.6526570000000 1.0
C      1  0.4611410000000  0.5932150000000  0.7112250000000 1.0
C      1  0.4591720000000  0.7300610000000  0.4772730000000 1.0
C      1  0.4685520000000  0.5788220000000  0.5436330000000 1.0
C      1  0.4685670000000  0.5673820000000  0.4385650000000 1.0
C      1  0.4687180000000  0.4638590000000  0.4169490000000 1.0
C      1  0.4687840000000  0.4113840000000  0.5087120000000 1.0
C      1  0.4686830000000  0.4824870000000  0.5869170000000 1.0
C      1  0.3897800000000  0.4326740000000  0.3664370000000 1.0
C      1  0.3906850000000  0.3527880000000  0.5227820000000 1.0
C      1  0.3906110000000  0.4769320000000  0.6469580000000 1.0
C      1  0.3896390000000  0.6332110000000  0.5673830000000 1.0
C      1  0.3891890000000  0.6059720000000  0.3941560000000 1.0
C      1  0.6909490000000  0.3445940000000  0.4289100000000 1.0
C      1  0.6929750000000  0.3799060000000  0.6260060000000 1.0
C      1  0.6902610000000  0.5786890000000  0.6503950000000 1.0
C      1  0.6872820000000  0.6619040000000  0.4711150000000 1.0
C      1  0.6875580000000  0.5191360000000  0.3359850000000 1.0
END
