TITL C-3036485-3770-440 -2.9022049051494e-06 3375 -343.762721542083 0 0 60 (C2) n - 1
REM
REM in /home/bkarasulu/work/CARBON/AIRSS/Generating-Clusters/REBO/Higher-Symm/Only-C60
REM
REM
REM
REM
REM
REM ./C.cell (a2850807a9bf4ad07a5b6933b78d9264)
REM AIRSS Version 0.9.1 bugfix July 2018 build 013d7b7c2542+ Fri, 06 Jul 2018 19:26:36 +0100
REM compiler GCC version 9.2.1 20190827 (Red Hat 9.2.1-1)
REM options -cpp -mtune=generic -march=x86-64 -g -O0 -fpre-include=/usr/include/finclude/math-vector-fortran.h
REM seed -134974895 -1130353548 1345194236 -981406210 585711935 -626778367 -1907081292 1486172782 257543134 -1077597505 -1220407827 1339029561 1502255629 1512085303 -2115233238 491989694 2069068655 -1688617810 -23496737 -1266606797 -2139188583 -1000354125 2014207104 2074183572 -1955724089 580003237 -554176065 -1118432582 1003214758 -1276790138 2095598696 -2012399502 740846663
REM
CELL 1.54180   15.00000   15.00000   15.00000   90.00000   90.00000   90.00000
LATT -1
SFAC C  
C      1  0.4372930000000  0.5803660000000  0.3431000000000 1.0
C      1  0.5627070000000  0.5803670000000  0.6569000000000 1.0
C      1  0.4671890000000  0.5716280000000  0.6656520000000 1.0
C      1  0.5328110000000  0.5716280000000  0.3343480000000 1.0
C      1  0.2691940000000  0.4539680000000  0.4412800000000 1.0
C      1  0.7308070000000  0.4539690000000  0.5587200000000 1.0
C      1  0.2686280000000  0.4345550000000  0.5537280000000 1.0
C      1  0.7313730000000  0.4345560000000  0.4462720000000 1.0
C      1  0.6383510000000  0.5901640000000  0.5480360000000 1.0
C      1  0.3616480000000  0.5901630000000  0.4519630000000 1.0
C      1  0.6165660000000  0.5723230000000  0.4380500000000 1.0
C      1  0.3834340000000  0.5723220000000  0.5619500000000 1.0
C      1  0.5510310000000  0.4677430000000  0.6676130000000 1.0
C      1  0.4489690000000  0.4677420000000  0.3323870000000 1.0
C      1  0.5627560000000  0.4627600000000  0.3228330000000 1.0
C      1  0.4372440000000  0.4627600000000  0.6771670000000 1.0
C      1  0.4516310000000  0.7306930000000  0.4552440000000 1.0
C      1  0.5483680000000  0.7306930000000  0.5447550000000 1.0
C      1  0.4471230000000  0.7279690000000  0.5612570000000 1.0
C      1  0.5528760000000  0.7279700000000  0.4387420000000 1.0
C      1  0.6423780000000  0.3768830000000  0.4444260000000 1.0
C      1  0.3576230000000  0.3768830000000  0.5555740000000 1.0
C      1  0.6453310000000  0.3965350000000  0.5402800000000 1.0
C      1  0.3546700000000  0.3965340000000  0.4597200000000 1.0
C      1  0.4471100000000  0.2921690000000  0.3936590000000 1.0
C      1  0.5528910000000  0.2921690000000  0.6063410000000 1.0
C      1  0.4592570000000  0.2847110000000  0.6174440000000 1.0
C      1  0.5407440000000  0.2847110000000  0.3825570000000 1.0
C      1  0.3325550000000  0.6564590000000  0.3129770000000 1.0
C      1  0.6674450000000  0.6564600000000  0.6870230000000 1.0
C      1  0.3189600000000  0.6477360000000  0.6701620000000 1.0
C      1  0.6810390000000  0.6477370000000  0.3298370000000 1.0
C      1  0.4179270000000  0.2266050000000  0.5528100000000 1.0
C      1  0.5820740000000  0.2266050000000  0.4471910000000 1.0
C      1  0.4107130000000  0.2351800000000  0.4615210000000 1.0
C      1  0.5892880000000  0.2351810000000  0.5384790000000 1.0
C      1  0.2907630000000  0.5759050000000  0.3260360000000 1.0
C      1  0.7092370000000  0.5759070000000  0.6739640000000 1.0
C      1  0.2810450000000  0.5679160000000  0.6496850000000 1.0
C      1  0.7189550000000  0.5679170000000  0.3503150000000 1.0
C      1  0.4316270000000  0.5095820000000  0.4555650000000 1.0
C      1  0.5683730000000  0.5095830000000  0.5444350000000 1.0
C      1  0.4642860000000  0.4987730000000  0.5550370000000 1.0
C      1  0.5357140000000  0.4987730000000  0.4449630000000 1.0
C      1  0.5862300000000  0.3668760000000  0.3726230000000 1.0
C      1  0.4137710000000  0.3668750000000  0.6273770000000 1.0
C      1  0.5877410000000  0.3797220000000  0.6108110000000 1.0
C      1  0.4122590000000  0.3797210000000  0.3891890000000 1.0
C      1  0.4117050000000  0.6564510000000  0.6220660000000 1.0
C      1  0.5882940000000  0.6564510000000  0.3779330000000 1.0
C      1  0.3993060000000  0.6723760000000  0.3963380000000 1.0
C      1  0.6006930000000  0.6723770000000  0.6036620000000 1.0
C      1  0.7239810000000  0.5419070000000  0.4590000000000 1.0
C      1  0.2760180000000  0.5419060000000  0.5410000000000 1.0
C      1  0.7415830000000  0.5615220000000  0.5689740000000 1.0
C      1  0.2584170000000  0.5615210000000  0.4310260000000 1.0
C      1  0.3391040000000  0.4864450000000  0.3570210000000 1.0
C      1  0.6608960000000  0.4864460000000  0.6429790000000 1.0
C      1  0.3295860000000  0.4740750000000  0.6419570000000 1.0
C      1  0.6704140000000  0.4740750000000  0.3580430000000 1.0
END
