TITL C-3036485-3770-908 -3.57111480474326e-07 3375 -351.474625704084 0 0 60 (C1) n - 1
REM
REM in /home/bkarasulu/work/CARBON/AIRSS/Generating-Clusters/REBO/Higher-Symm/Only-C60
REM
REM
REM
REM
REM
REM ./C.cell (a2850807a9bf4ad07a5b6933b78d9264)
REM AIRSS Version 0.9.1 bugfix July 2018 build 013d7b7c2542+ Fri, 06 Jul 2018 19:26:36 +0100
REM compiler GCC version 9.2.1 20190827 (Red Hat 9.2.1-1)
REM options -cpp -mtune=generic -march=x86-64 -g -O0 -fpre-include=/usr/include/finclude/math-vector-fortran.h
REM seed 1886055379 2025935647 -248735290 -1879218459 -603553204 1552307346 1672996520 706981575 -1170551719 1222142160 1082894031 17547323 -760069145 -1327026508 -1236930039 844881024 -1597470195 -340412298 1606723706 -1246139390 -783888127 1307445683 -523953915 -462937433 2062520812 -735352261 -1891626255 649131093 -1825621832 -1727216597 -931646888 1101338664 717871101
REM
CELL 1.54180   15.00000   15.00000   15.00000   90.00000   90.00000   90.00000
LATT -1
SFAC C  
C      1  0.4408660000000  0.3730260000000  0.6483920000000 1.0
C      1  0.5465910000000  0.3800770000000  0.6540420000000 1.0
C      1  0.4539880000000  0.6343760000000  0.6904140000000 1.0
C      1  0.5475800000000  0.6373610000000  0.6962220000000 1.0
C      1  0.5894960000000  0.4803360000000  0.6235450000000 1.0
C      1  0.4051330000000  0.4743740000000  0.6165020000000 1.0
C      1  0.3178890000000  0.4978540000000  0.3804370000000 1.0
C      1  0.6877500000000  0.4918310000000  0.3987840000000 1.0
C      1  0.4514630000000  0.2784610000000  0.4831480000000 1.0
C      1  0.5518020000000  0.2884320000000  0.4806790000000 1.0
C      1  0.5995190000000  0.4227400000000  0.4026570000000 1.0
C      1  0.3658050000000  0.4078030000000  0.3986030000000 1.0
C      1  0.3203900000000  0.5815740000000  0.4084800000000 1.0
C      1  0.6919470000000  0.5811000000000  0.4119930000000 1.0
C      1  0.3994450000000  0.7131960000000  0.4654630000000 1.0
C      1  0.6193420000000  0.7202950000000  0.4689080000000 1.0
C      1  0.3129910000000  0.4082050000000  0.6208850000000 1.0
C      1  0.6833170000000  0.4204020000000  0.6207970000000 1.0
C      1  0.6244840000000  0.6543940000000  0.3885790000000 1.0
C      1  0.3892650000000  0.6515960000000  0.3857490000000 1.0
C      1  0.4654540000000  0.3022040000000  0.3813580000000 1.0
C      1  0.5732960000000  0.2948950000000  0.3786180000000 1.0
C      1  0.4601740000000  0.7405830000000  0.5353940000000 1.0
C      1  0.5578140000000  0.7463030000000  0.5400330000000 1.0
C      1  0.5461120000000  0.3886240000000  0.3202710000000 1.0
C      1  0.4321330000000  0.3859140000000  0.3193690000000 1.0
C      1  0.5495800000000  0.5148630000000  0.5403000000000 1.0
C      1  0.4431100000000  0.5006600000000  0.5304400000000 1.0
C      1  0.5428180000000  0.5434910000000  0.2658100000000 1.0
C      1  0.4367420000000  0.5393550000000  0.2613530000000 1.0
C      1  0.2876120000000  0.3557960000000  0.4515860000000 1.0
C      1  0.7003890000000  0.3992770000000  0.4483180000000 1.0
C      1  0.4559320000000  0.6079400000000  0.5235000000000 1.0
C      1  0.5685650000000  0.6143150000000  0.5301940000000 1.0
C      1  0.5578270000000  0.6279780000000  0.3277200000000 1.0
C      1  0.4534970000000  0.6239290000000  0.3217240000000 1.0
C      1  0.5572690000000  0.4460840000000  0.7471430000000 1.0
C      1  0.4441300000000  0.4427050000000  0.7391120000000 1.0
C      1  0.4460500000000  0.4176170000000  0.1572450000000 1.0
C      1  0.5393550000000  0.4209930000000  0.1582690000000 1.0
C      1  0.3310790000000  0.4435740000000  0.7211090000000 1.0
C      1  0.6686910000000  0.4446400000000  0.7235620000000 1.0
C      1  0.3049010000000  0.5419240000000  0.6707660000000 1.0
C      1  0.6962580000000  0.5421370000000  0.6729750000000 1.0
C      1  0.5724910000000  0.4524190000000  0.2430230000000 1.0
C      1  0.4093690000000  0.4489950000000  0.2404520000000 1.0
C      1  0.5821900000000  0.6821180000000  0.6200730000000 1.0
C      1  0.4270250000000  0.6753170000000  0.6101730000000 1.0
C      1  0.3017160000000  0.3491050000000  0.5422100000000 1.0
C      1  0.6920640000000  0.3709880000000  0.5373450000000 1.0
C      1  0.5405180000000  0.4229860000000  0.4841940000000 1.0
C      1  0.4331640000000  0.4099230000000  0.4773810000000 1.0
C      1  0.2910740000000  0.5849400000000  0.5911110000000 1.0
C      1  0.7179080000000  0.5867490000000  0.5970370000000 1.0
C      1  0.5877750000000  0.3526770000000  0.5571820000000 1.0
C      1  0.4056760000000  0.3360980000000  0.5578740000000 1.0
C      1  0.5900090000000  0.5493510000000  0.7116920000000 1.0
C      1  0.4117460000000  0.5459710000000  0.7042980000000 1.0
C      1  0.3439700000000  0.6212400000000  0.5071160000000 1.0
C      1  0.6754550000000  0.6278910000000  0.5083910000000 1.0
END
