TITL C-3036481-494-522 0.0172700446658405 3375 -334.500035860145 0 0 60 (C1) n - 1
REM
REM in /home/bkarasulu/work/CARBON/AIRSS/Generating-Clusters/REBO/Higher-Symm/Only-C60
REM
REM
REM
REM
REM
REM ./C.cell (a2850807a9bf4ad07a5b6933b78d9264)
REM AIRSS Version 0.9.1 bugfix July 2018 build 013d7b7c2542+ Fri, 06 Jul 2018 19:26:36 +0100
REM compiler GCC version 9.2.1 20190827 (Red Hat 9.2.1-1)
REM options -cpp -mtune=generic -march=x86-64 -g -O0 -fpre-include=/usr/include/finclude/math-vector-fortran.h
REM seed -646087093 183339297 -754991235 -397234270 1139888836 -504850116 -1609237190 -570016137 420527243 1669075124 -1033327164 -997793061 492587978 1643015499 -898173226 -1775436530 1377153586 453836613 1945159915 823202674 -1854679199 -174758832 -53941078 531290278 -820512687 -1265327536 -142894396 -803403209 764518506 1001386511 -612470785 -1241346465 270656040
REM
CELL 1.54180   15.00000   15.00000   15.00000   90.00000   90.00000   90.00000
LATT -1
SFAC C  
C      1  0.3620670000000  0.6914860000000  0.4017270000000 1.0
C      1  0.6179140000000  0.6604170000000  0.4361200000000 1.0
C      1  0.6380650000000  0.5367960000000  0.5627110000000 1.0
C      1  0.2977320000000  0.5606390000000  0.5035300000000 1.0
C      1  0.3123070000000  0.4427750000000  0.6230400000000 1.0
C      1  0.7289400000000  0.4295840000000  0.6387030000000 1.0
C      1  0.7395580000000  0.4248480000000  0.4806910000000 1.0
C      1  0.2402110000000  0.3990120000000  0.4851230000000 1.0
C      1  0.7340490000000  0.4792560000000  0.5551780000000 1.0
C      1  0.2657550000000  0.4685750000000  0.5486810000000 1.0
C      1  0.6175010000000  0.4032110000000  0.6465550000000 1.0
C      1  0.4246650000000  0.4516410000000  0.6372420000000 1.0
C      1  0.4163790000000  0.2734890000000  0.6080430000000 1.0
C      1  0.5766100000000  0.2405530000000  0.5960770000000 1.0
C      1  0.4275730000000  0.7755050000000  0.4143700000000 1.0
C      1  0.5858450000000  0.7520590000000  0.4511860000000 1.0
C      1  0.4095420000000  0.3767610000000  0.5609160000000 1.0
C      1  0.6049910000000  0.3431900000000  0.5662200000000 1.0
C      1  0.6229190000000  0.4854660000000  0.4626540000000 1.0
C      1  0.3398570000000  0.4958470000000  0.4282180000000 1.0
C      1  0.5977240000000  0.2899540000000  0.4420430000000 1.0
C      1  0.3903900000000  0.3053990000000  0.4501010000000 1.0
C      1  0.6788260000000  0.4747560000000  0.7166780000000 1.0
C      1  0.3851280000000  0.5510060000000  0.6488660000000 1.0
C      1  0.6153260000000  0.5349410000000  0.6648790000000 1.0
C      1  0.3309770000000  0.5929810000000  0.6021430000000 1.0
C      1  0.5768730000000  0.6023720000000  0.5057050000000 1.0
C      1  0.3720740000000  0.6352710000000  0.4835290000000 1.0
C      1  0.6428700000000  0.3803830000000  0.4674310000000 1.0
C      1  0.3503890000000  0.4004600000000  0.4672120000000 1.0
C      1  0.3661500000000  0.2524790000000  0.5236910000000 1.0
C      1  0.6203920000000  0.2252880000000  0.5060250000000 1.0
C      1  0.5918040000000  0.6177980000000  0.3379990000000 1.0
C      1  0.3914350000000  0.6240920000000  0.3269280000000 1.0
C      1  0.6149050000000  0.5346390000000  0.3879870000000 1.0
C      1  0.3640730000000  0.5357570000000  0.3506500000000 1.0
C      1  0.5210890000000  0.3386690000000  0.7119000000000 1.0
C      1  0.4820780000000  0.6329390000000  0.6891800000000 1.0
C      1  0.4952390000000  0.6333270000000  0.2804360000000 1.0
C      1  0.4926550000000  0.3025910000000  0.4006450000000 1.0
C      1  0.4886560000000  0.6575430000000  0.4107960000000 1.0
C      1  0.4713300000000  0.6742500000000  0.6102250000000 1.0
C      1  0.5042980000000  0.4980930000000  0.1760850000000 1.0
C      1  0.4781310000000  0.7625250000000  0.5756580000000 1.0
C      1  0.4983510000000  0.7817330000000  0.4835470000000 1.0
C      1  0.5178440000000  0.4456480000000  0.6810900000000 1.0
C      1  0.4901840000000  0.2278320000000  0.4868560000000 1.0
C      1  0.5061640000000  0.3319400000000  0.5293020000000 1.0
C      1  0.4938090000000  0.4178740000000  0.4666950000000 1.0
C      1  0.5004060000000  0.5893460000000  0.1868490000000 1.0
C      1  0.5015190000000  0.4469500000000  0.2538210000000 1.0
C      1  0.5299470000000  0.5484660000000  0.7237230000000 1.0
C      1  0.4668990000000  0.6100810000000  0.5323930000000 1.0
C      1  0.4714020000000  0.7291770000000  0.3315410000000 1.0
C      1  0.5402020000000  0.5482450000000  0.8169010000000 1.0
C      1  0.4935880000000  0.5073670000000  0.3376920000000 1.0
C      1  0.5003890000000  0.2639390000000  0.6536200000000 1.0
C      1  0.4864900000000  0.5636120000000  0.4092730000000 1.0
C      1  0.4969270000000  0.3968740000000  0.3554410000000 1.0
C      1  0.4823570000000  0.5076560000000  0.4906260000000 1.0
END
