TITL C-3036485-3770-883 -0.00954220969260169 3375 -342.525103693438 0 0 60 (C1) n - 1
REM
REM in /home/bkarasulu/work/CARBON/AIRSS/Generating-Clusters/REBO/Higher-Symm/Only-C60
REM
REM
REM
REM
REM
REM ./C.cell (a2850807a9bf4ad07a5b6933b78d9264)
REM AIRSS Version 0.9.1 bugfix July 2018 build 013d7b7c2542+ Fri, 06 Jul 2018 19:26:36 +0100
REM compiler GCC version 9.2.1 20190827 (Red Hat 9.2.1-1)
REM options -cpp -mtune=generic -march=x86-64 -g -O0 -fpre-include=/usr/include/finclude/math-vector-fortran.h
REM seed -2009929624 1978158066 1978370983 621559873 1844476780 -1848080548 -1591035872 -560257632 1667547009 -157573621 1424514584 1389001329 1292349254 1785879980 -1987468254 671995317 2036587361 -2100251584 -1120155114 1806908015 1482944251 -1485108187 -1558492002 -2096173798 429253464 -81506441 -1967257651 -1446447665 -913937540 -1118038323 -1142828505 -1422536588 1173424768
REM
CELL 1.54180   15.00000   15.00000   15.00000   90.00000   90.00000   90.00000
LATT -1
SFAC C  
C      1  0.7372980000000  0.4218480000000  0.5758140000000 1.0
C      1  0.4037930000000  0.6416900000000  0.6114680000000 1.0
C      1  0.2741380000000  0.5499870000000  0.5478570000000 1.0
C      1  0.6194070000000  0.5891610000000  0.3424100000000 1.0
C      1  0.4185100000000  0.7102350000000  0.4537370000000 1.0
C      1  0.3642580000000  0.4949010000000  0.6894190000000 1.0
C      1  0.6857030000000  0.3364700000000  0.5891210000000 1.0
C      1  0.6281470000000  0.3267760000000  0.4985510000000 1.0
C      1  0.4039430000000  0.3250130000000  0.6656410000000 1.0
C      1  0.2823220000000  0.4474540000000  0.5957820000000 1.0
C      1  0.5016530000000  0.4842170000000  0.3809150000000 1.0
C      1  0.4867140000000  0.5454290000000  0.5588200000000 1.0
C      1  0.4328110000000  0.4301300000000  0.4173190000000 1.0
C      1  0.2665040000000  0.4508140000000  0.3544010000000 1.0
C      1  0.6075780000000  0.4151230000000  0.6630260000000 1.0
C      1  0.3702130000000  0.6348000000000  0.5111030000000 1.0
C      1  0.4774510000000  0.4833000000000  0.2501940000000 1.0
C      1  0.6518710000000  0.5651330000000  0.5319990000000 1.0
C      1  0.3262680000000  0.4375650000000  0.5011140000000 1.0
C      1  0.5201310000000  0.5873920000000  0.3665400000000 1.0
C      1  0.3957220000000  0.5277270000000  0.4989780000000 1.0
C      1  0.4260870000000  0.3990100000000  0.5145090000000 1.0
C      1  0.5742990000000  0.4746990000000  0.7248280000000 1.0
C      1  0.5900070000000  0.3131060000000  0.6458360000000 1.0
C      1  0.4756610000000  0.5985210000000  0.7519260000000 1.0
C      1  0.5825080000000  0.4129610000000  0.5579760000000 1.0
C      1  0.6703710000000  0.6098550000000  0.4313740000000 1.0
C      1  0.3354710000000  0.5334360000000  0.3509650000000 1.0
C      1  0.4894750000000  0.2992410000000  0.6292530000000 1.0
C      1  0.4131780000000  0.4726900000000  0.5956820000000 1.0
C      1  0.5114290000000  0.6570750000000  0.4306750000000 1.0
C      1  0.6388040000000  0.5253640000000  0.2744650000000 1.0
C      1  0.5762080000000  0.5805160000000  0.7030300000000 1.0
C      1  0.5699430000000  0.5042530000000  0.5255870000000 1.0
C      1  0.2929150000000  0.5873220000000  0.4420340000000 1.0
C      1  0.5100420000000  0.3402340000000  0.3566590000000 1.0
C      1  0.7121750000000  0.5084080000000  0.6086620000000 1.0
C      1  0.5188610000000  0.7565050000000  0.4808360000000 1.0
C      1  0.5017890000000  0.3410260000000  0.5339900000000 1.0
C      1  0.7261230000000  0.4402290000000  0.3840090000000 1.0
C      1  0.3845700000000  0.4469280000000  0.2946420000000 1.0
C      1  0.5578450000000  0.4247590000000  0.3071980000000 1.0
C      1  0.3322480000000  0.5737180000000  0.6268080000000 1.0
C      1  0.2662230000000  0.4069840000000  0.4260170000000 1.0
C      1  0.6060240000000  0.6491660000000  0.5929000000000 1.0
C      1  0.4334000000000  0.5684150000000  0.3037140000000 1.0
C      1  0.5060510000000  0.6239970000000  0.6253070000000 1.0
C      1  0.4964630000000  0.4520280000000  0.7760100000000 1.0
C      1  0.6744670000000  0.5896630000000  0.6599610000000 1.0
C      1  0.3395470000000  0.6753340000000  0.3888370000000 1.0
C      1  0.7420200000000  0.5315420000000  0.4398570000000 1.0
C      1  0.4056810000000  0.3589670000000  0.3459600000000 1.0
C      1  0.4281250000000  0.5180530000000  0.7626210000000 1.0
C      1  0.6042620000000  0.6816460000000  0.4901610000000 1.0
C      1  0.3686500000000  0.6531110000000  0.3030220000000 1.0
C      1  0.6654390000000  0.4373240000000  0.3145790000000 1.0
C      1  0.5705960000000  0.5137350000000  0.2087030000000 1.0
C      1  0.3346500000000  0.3913690000000  0.6655640000000 1.0
C      1  0.5475020000000  0.3085220000000  0.4371970000000 1.0
C      1  0.7664540000000  0.4351300000000  0.4844420000000 1.0
END
