TITL C-3036486-2224-479 0.0865892885039888 3375 -352.812575834102 0 0 60 (S12) n - 1
REM
REM in /home/bkarasulu/work/CARBON/AIRSS/Generating-Clusters/REBO/Higher-Symm/Only-C60
REM
REM
REM
REM
REM
REM ./C.cell (a2850807a9bf4ad07a5b6933b78d9264)
REM AIRSS Version 0.9.1 bugfix July 2018 build 013d7b7c2542+ Fri, 06 Jul 2018 19:26:36 +0100
REM compiler GCC version 9.2.1 20190827 (Red Hat 9.2.1-1)
REM options -cpp -mtune=generic -march=x86-64 -g -O0 -fpre-include=/usr/include/finclude/math-vector-fortran.h
REM seed -807520729 -808162292 1989143747 -279131250 -2091296369 11849086 963777451 935799706 -825599104 -1680469520 -1193681495 -1183646277 -873133685 655443632 -880886735 1363340449 -734082073 2101652809 1864376097 1752452637 -1870580358 -562440714 1695243066 184924390 1389806146 -1518184354 731026567 1600012617 130122434 -115238758 -1874225627 -455154875 -1479651037
REM
CELL 1.54180   15.00000   15.00000   15.00000   90.00000   90.00000   90.00000
LATT -1
SFAC C  
C      1  0.6496190000000  0.6032300000000  0.3329600000000 1.0
C      1  0.5459170000000  0.3967340000000  0.2806140000000 1.0
C      1  0.4300950000000  0.6032580000000  0.2868960000000 1.0
C      1  0.3328830000000  0.3967880000000  0.3503750000000 1.0
C      1  0.2804820000000  0.6032070000000  0.4541220000000 1.0
C      1  0.2869400000000  0.3967670000000  0.5699860000000 1.0
C      1  0.3504550000000  0.6032530000000  0.6671430000000 1.0
C      1  0.4541400000000  0.3967260000000  0.7195570000000 1.0
C      1  0.5699340000000  0.6032840000000  0.7130120000000 1.0
C      1  0.6670790000000  0.3967170000000  0.6496540000000 1.0
C      1  0.7194810000000  0.6032510000000  0.5459330000000 1.0
C      1  0.7130740000000  0.3967270000000  0.4301150000000 1.0
C      1  0.5764180000000  0.3753440000000  0.5545970000000 1.0
C      1  0.5934830000000  0.6246210000000  0.5090030000000 1.0
C      1  0.5854220000000  0.3753640000000  0.4610970000000 1.0
C      1  0.5545860000000  0.6246490000000  0.4235790000000 1.0
C      1  0.5090880000000  0.3753810000000  0.4063210000000 1.0
C      1  0.4610730000000  0.6246360000000  0.4144960000000 1.0
C      1  0.4235650000000  0.3752570000000  0.4454180000000 1.0
C      1  0.4065320000000  0.6246630000000  0.4908770000000 1.0
C      1  0.4145470000000  0.3753440000000  0.5388290000000 1.0
C      1  0.4453820000000  0.6246600000000  0.5764190000000 1.0
C      1  0.4909640000000  0.3753490000000  0.5934930000000 1.0
C      1  0.5388150000000  0.6246570000000  0.5854390000000 1.0
C      1  0.6631070000000  0.3099460000000  0.4279490000000 1.0
C      1  0.6052160000000  0.6899790000000  0.3560510000000 1.0
C      1  0.5191350000000  0.3100540000000  0.3227510000000 1.0
C      1  0.4279330000000  0.6900460000000  0.3368980000000 1.0
C      1  0.3560830000000  0.3100790000000  0.3947790000000 1.0
C      1  0.3227380000000  0.6900030000000  0.4808500000000 1.0
C      1  0.3368710000000  0.3099720000000  0.5720100000000 1.0
C      1  0.3947930000000  0.6900270000000  0.6439480000000 1.0
C      1  0.4808470000000  0.3099320000000  0.6772350000000 1.0
C      1  0.5720620000000  0.6900770000000  0.6630960000000 1.0
C      1  0.6439150000000  0.3099470000000  0.6052010000000 1.0
C      1  0.6772610000000  0.6900250000000  0.5191180000000 1.0
C      1  0.4028300000000  0.7577760000000  0.4894040000000 1.0
C      1  0.4106170000000  0.2422610000000  0.5394360000000 1.0
C      1  0.4423110000000  0.7577490000000  0.5787900000000 1.0
C      1  0.4894560000000  0.2422400000000  0.5970990000000 1.0
C      1  0.5394310000000  0.7577670000000  0.5893540000000 1.0
C      1  0.5787990000000  0.2422520000000  0.5576510000000 1.0
C      1  0.5971070000000  0.7577280000000  0.5105140000000 1.0
C      1  0.5894210000000  0.2422470000000  0.4605680000000 1.0
C      1  0.5576910000000  0.7577530000000  0.4211150000000 1.0
C      1  0.5105720000000  0.2422420000000  0.4028840000000 1.0
C      1  0.4605590000000  0.7577450000000  0.4105830000000 1.0
C      1  0.4211300000000  0.2422890000000  0.4422890000000 1.0
C      1  0.3686120000000  0.4805600000000  0.3811430000000 1.0
C      1  0.3267990000000  0.5194310000000  0.4627740000000 1.0
C      1  0.3312590000000  0.4805780000000  0.5543790000000 1.0
C      1  0.3810960000000  0.5194640000000  0.6313860000000 1.0
C      1  0.4627500000000  0.4805620000000  0.6732790000000 1.0
C      1  0.5543790000000  0.5194040000000  0.6688340000000 1.0
C      1  0.6313730000000  0.4805470000000  0.6189770000000 1.0
C      1  0.6732050000000  0.5194480000000  0.5373050000000 1.0
C      1  0.6688230000000  0.4805960000000  0.4456770000000 1.0
C      1  0.6189200000000  0.5194280000000  0.3686810000000 1.0
C      1  0.5372880000000  0.4805490000000  0.3267420000000 1.0
C      1  0.4456360000000  0.5194260000000  0.3313130000000 1.0
END
