TITL C-3036484-3770-733 2.00862681081572e-05 3375 -355.863980983168 0 0 60 (C1) n - 1
REM
REM in /home/bkarasulu/work/CARBON/AIRSS/Generating-Clusters/REBO/Higher-Symm/Only-C60
REM
REM
REM
REM
REM
REM ./C.cell (a2850807a9bf4ad07a5b6933b78d9264)
REM AIRSS Version 0.9.1 bugfix July 2018 build 013d7b7c2542+ Fri, 06 Jul 2018 19:26:36 +0100
REM compiler GCC version 9.2.1 20190827 (Red Hat 9.2.1-1)
REM options -cpp -mtune=generic -march=x86-64 -g -O0 -fpre-include=/usr/include/finclude/math-vector-fortran.h
REM seed 1018095388 1362912346 1767974393 -910844577 686868739 -325017144 323464234 60955723 -2030732524 -980749210 1145428665 2146831501 -2096674013 -1440741365 812727436 1849659025 119164498 -1849814678 153811917 -168499733 -112833450 383060735 1597283298 -1813620762 1737068941 940356134 -2145598853 -1686813591 968573127 573262778 32505123 -482587427 815172416
REM
CELL 1.54180   15.00000   15.00000   15.00000   90.00000   90.00000   90.00000
LATT -1
SFAC C  
C      1  0.3490470000000  0.6908470000000  0.5288640000000 1.0
C      1  0.6540570000000  0.3028850000000  0.5300510000000 1.0
C      1  0.3319490000000  0.2927510000000  0.5167580000000 1.0
C      1  0.6667480000000  0.6998850000000  0.5140920000000 1.0
C      1  0.4408910000000  0.6140440000000  0.6041450000000 1.0
C      1  0.5569590000000  0.3910770000000  0.6084470000000 1.0
C      1  0.4477110000000  0.3697800000000  0.6058480000000 1.0
C      1  0.5515880000000  0.6348040000000  0.6053990000000 1.0
C      1  0.4093130000000  0.2628170000000  0.4388050000000 1.0
C      1  0.5927630000000  0.7415420000000  0.4389290000000 1.0
C      1  0.4166570000000  0.7304440000000  0.4485900000000 1.0
C      1  0.5813320000000  0.2720580000000  0.4487120000000 1.0
C      1  0.2546200000000  0.4300580000000  0.4142780000000 1.0
C      1  0.7305380000000  0.5385450000000  0.4233830000000 1.0
C      1  0.2727310000000  0.5391610000000  0.4259190000000 1.0
C      1  0.7394820000000  0.4281870000000  0.4211210000000 1.0
C      1  0.5470370000000  0.3097700000000  0.3682020000000 1.0
C      1  0.4532140000000  0.6965640000000  0.3683520000000 1.0
C      1  0.5508620000000  0.7007490000000  0.3635900000000 1.0
C      1  0.4490960000000  0.3047630000000  0.3618460000000 1.0
C      1  0.4442730000000  0.4128190000000  0.4386070000000 1.0
C      1  0.5502770000000  0.5891540000000  0.4357210000000 1.0
C      1  0.4514040000000  0.5819200000000  0.4358380000000 1.0
C      1  0.5457280000000  0.4205740000000  0.4416370000000 1.0
C      1  0.6434690000000  0.6130990000000  0.6491930000000 1.0
C      1  0.3535800000000  0.3923010000000  0.6449140000000 1.0
C      1  0.6462460000000  0.4006580000000  0.6587850000000 1.0
C      1  0.3593960000000  0.6041240000000  0.6698850000000 1.0
C      1  0.3399520000000  0.3747770000000  0.4489030000000 1.0
C      1  0.6557930000000  0.6106780000000  0.4555150000000 1.0
C      1  0.3485320000000  0.6113510000000  0.4569040000000 1.0
C      1  0.6492330000000  0.3847270000000  0.4608370000000 1.0
C      1  0.3311380000000  0.5550050000000  0.3293540000000 1.0
C      1  0.6722200000000  0.4536970000000  0.3387780000000 1.0
C      1  0.3245580000000  0.4539070000000  0.3332600000000 1.0
C      1  0.6699900000000  0.5547970000000  0.3285220000000 1.0
C      1  0.7426220000000  0.4495610000000  0.5294590000000 1.0
C      1  0.2679600000000  0.5459820000000  0.5395810000000 1.0
C      1  0.7424730000000  0.5501910000000  0.5360120000000 1.0
C      1  0.2572840000000  0.4476370000000  0.5232600000000 1.0
C      1  0.7033650000000  0.3815590000000  0.5825620000000 1.0
C      1  0.3069030000000  0.6156070000000  0.5865010000000 1.0
C      1  0.7061330000000  0.6247470000000  0.5779950000000 1.0
C      1  0.2928360000000  0.3757280000000  0.5733250000000 1.0
C      1  0.4394690000000  0.2746060000000  0.5476970000000 1.0
C      1  0.5621040000000  0.7295430000000  0.5472950000000 1.0
C      1  0.4581870000000  0.7136100000000  0.5527010000000 1.0
C      1  0.5429270000000  0.2926860000000  0.5536720000000 1.0
C      1  0.5653470000000  0.4648790000000  0.5358970000000 1.0
C      1  0.4315790000000  0.5406780000000  0.5331060000000 1.0
C      1  0.5641680000000  0.5537170000000  0.5338020000000 1.0
C      1  0.4328640000000  0.4516210000000  0.5346150000000 1.0
C      1  0.5962300000000  0.6115540000000  0.3372370000000 1.0
C      1  0.4026640000000  0.3973970000000  0.3356800000000 1.0
C      1  0.5927180000000  0.4013810000000  0.3424660000000 1.0
C      1  0.4071550000000  0.6087580000000  0.3381890000000 1.0
C      1  0.6538940000000  0.5545690000000  0.7203210000000 1.0
C      1  0.3441220000000  0.4480690000000  0.7182330000000 1.0
C      1  0.6571950000000  0.4641240000000  0.7254280000000 1.0
C      1  0.3474160000000  0.5374740000000  0.7329760000000 1.0
END
