TITL C-3036484-3770-801 0.00501883847249279 3375 -341.228989542156 0 0 60 (C1) n - 1
REM
REM in /home/bkarasulu/work/CARBON/AIRSS/Generating-Clusters/REBO/Higher-Symm/Only-C60
REM
REM
REM
REM
REM
REM ./C.cell (a2850807a9bf4ad07a5b6933b78d9264)
REM AIRSS Version 0.9.1 bugfix July 2018 build 013d7b7c2542+ Fri, 06 Jul 2018 19:26:36 +0100
REM compiler GCC version 9.2.1 20190827 (Red Hat 9.2.1-1)
REM options -cpp -mtune=generic -march=x86-64 -g -O0 -fpre-include=/usr/include/finclude/math-vector-fortran.h
REM seed 1267251394 160315762 -156006876 1315822353 -201419849 -1767794271 -288131685 698455678 -1777411102 -593582205 1309141435 -1931305914 -335258812 -479870523 -525901854 -430915043 1660486752 -1135552529 -1319025466 -527493906 -2132921337 -2093737810 -1058902802 -1140426268 816512599 -1301857675 -1400231732 -472894000 1466795617 -1106136741 -1119097207 -851471195 1807709304
REM
CELL 1.54180   15.00000   15.00000   15.00000   90.00000   90.00000   90.00000
LATT -1
SFAC C  
C      1  0.4999030000000  0.4078940000000  0.2474230000000 1.0
C      1  0.6875650000000  0.4790260000000  0.6121810000000 1.0
C      1  0.5966050000000  0.6960510000000  0.6861830000000 1.0
C      1  0.6488200000000  0.2902130000000  0.6291000000000 1.0
C      1  0.2542430000000  0.4430510000000  0.4544600000000 1.0
C      1  0.3090780000000  0.4501420000000  0.5751790000000 1.0
C      1  0.4221080000000  0.4391280000000  0.4275300000000 1.0
C      1  0.6756240000000  0.4066000000000  0.5257340000000 1.0
C      1  0.2895200000000  0.5149480000000  0.3737660000000 1.0
C      1  0.5131170000000  0.3204430000000  0.3909170000000 1.0
C      1  0.3932570000000  0.3452380000000  0.7029320000000 1.0
C      1  0.4009190000000  0.6495110000000  0.3565250000000 1.0
C      1  0.3461650000000  0.4826100000000  0.3010410000000 1.0
C      1  0.3707800000000  0.5741230000000  0.6498520000000 1.0
C      1  0.4384240000000  0.4985910000000  0.2365580000000 1.0
C      1  0.4002200000000  0.3287670000000  0.5296290000000 1.0
C      1  0.2373000000000  0.5120060000000  0.5439450000000 1.0
C      1  0.5405980000000  0.4428520000000  0.7085730000000 1.0
C      1  0.4979150000000  0.3526160000000  0.6207730000000 1.0
C      1  0.5746900000000  0.4396510000000  0.4976610000000 1.0
C      1  0.4649410000000  0.3464780000000  0.3126000000000 1.0
C      1  0.3424590000000  0.5888040000000  0.4164420000000 1.0
C      1  0.5268280000000  0.6162720000000  0.6766800000000 1.0
C      1  0.7625070000000  0.4476650000000  0.4759290000000 1.0
C      1  0.4469160000000  0.7075180000000  0.4204310000000 1.0
C      1  0.4178290000000  0.2895320000000  0.6212760000000 1.0
C      1  0.4263720000000  0.7238430000000  0.5953050000000 1.0
C      1  0.6389720000000  0.3361040000000  0.2968740000000 1.0
C      1  0.4543730000000  0.6012390000000  0.2829230000000 1.0
C      1  0.5935740000000  0.3924230000000  0.2375900000000 1.0
C      1  0.3276080000000  0.6422140000000  0.5030850000000 1.0
C      1  0.5687920000000  0.6329050000000  0.5724610000000 1.0
C      1  0.2944110000000  0.5896290000000  0.5732820000000 1.0
C      1  0.4887660000000  0.3749960000000  0.4754070000000 1.0
C      1  0.6185210000000  0.6313910000000  0.4156790000000 1.0
C      1  0.6123400000000  0.7363630000000  0.6051990000000 1.0
C      1  0.6992410000000  0.6747610000000  0.4794720000000 1.0
C      1  0.4580130000000  0.4865270000000  0.3459000000000 1.0
C      1  0.4332360000000  0.4228230000000  0.7252200000000 1.0
C      1  0.6397310000000  0.7451010000000  0.4256580000000 1.0
C      1  0.6053990000000  0.2982310000000  0.3787120000000 1.0
C      1  0.4764820000000  0.4438380000000  0.5928730000000 1.0
C      1  0.5391080000000  0.7130980000000  0.4110730000000 1.0
C      1  0.6720540000000  0.3083130000000  0.5385650000000 1.0
C      1  0.7333800000000  0.5571030000000  0.5832090000000 1.0
C      1  0.6525040000000  0.2666740000000  0.4556650000000 1.0
C      1  0.4646660000000  0.5277260000000  0.6957920000000 1.0
C      1  0.3978890000000  0.7081000000000  0.5063880000000 1.0
C      1  0.3400060000000  0.3954430000000  0.4010700000000 1.0
C      1  0.3128690000000  0.3679070000000  0.5254270000000 1.0
C      1  0.5852040000000  0.5266890000000  0.4435100000000 1.0
C      1  0.5062710000000  0.5717750000000  0.3798310000000 1.0
C      1  0.7932830000000  0.5270410000000  0.5135810000000 1.0
C      1  0.4168690000000  0.5389070000000  0.4815100000000 1.0
C      1  0.5137360000000  0.5970510000000  0.4911320000000 1.0
C      1  0.6784640000000  0.6302680000000  0.5612840000000 1.0
C      1  0.3974110000000  0.4997290000000  0.5758230000000 1.0
C      1  0.4323510000000  0.6574790000000  0.6580270000000 1.0
C      1  0.5841380000000  0.3439400000000  0.6716100000000 1.0
C      1  0.5856350000000  0.4606360000000  0.6075480000000 1.0
END
