TITL C-3036485-3770-858 0.113613508360304 3375 -330.716755366868 0 0 60 (C1) n - 1
REM
REM in /home/bkarasulu/work/CARBON/AIRSS/Generating-Clusters/REBO/Higher-Symm/Only-C60
REM
REM
REM
REM
REM
REM ./C.cell (a2850807a9bf4ad07a5b6933b78d9264)
REM AIRSS Version 0.9.1 bugfix July 2018 build 013d7b7c2542+ Fri, 06 Jul 2018 19:26:36 +0100
REM compiler GCC version 9.2.1 20190827 (Red Hat 9.2.1-1)
REM options -cpp -mtune=generic -march=x86-64 -g -O0 -fpre-include=/usr/include/finclude/math-vector-fortran.h
REM seed -2005346379 -1119754320 1878286425 -1811846801 2567724 -583051320 2076602521 2096695762 -1425813922 1099117969 -506506971 -133736875 -1386408726 -650707678 -1623896643 2038589537 -776971354 728938738 1878968448 1271563581 912939903 2091217856 498844571 466303676 1545657790 1014857282 -1482692929 -554647627 843210568 2090006286 493323066 -1438033136 330177264
REM
CELL 1.54180   15.00000   15.00000   15.00000   90.00000   90.00000   90.00000
LATT -1
SFAC C  
C      1  0.6061540000000  0.3722410000000  0.3751760000000 1.0
C      1  0.6573020000000  0.6140570000000  0.3718880000000 1.0
C      1  0.6895470000000  0.4254990000000  0.5303000000000 1.0
C      1  0.4168670000000  0.4823790000000  0.6580960000000 1.0
C      1  0.4121740000000  0.5942940000000  0.4719330000000 1.0
C      1  0.4810820000000  0.7152940000000  0.6279090000000 1.0
C      1  0.5629190000000  0.6342760000000  0.5384420000000 1.0
C      1  0.6985400000000  0.5630260000000  0.5884070000000 1.0
C      1  0.5968340000000  0.7202070000000  0.6113320000000 1.0
C      1  0.5750180000000  0.3187610000000  0.6270070000000 1.0
C      1  0.4363200000000  0.4761000000000  0.5265480000000 1.0
C      1  0.3540130000000  0.2691080000000  0.4775480000000 1.0
C      1  0.6599750000000  0.4417460000000  0.3388700000000 1.0
C      1  0.3158400000000  0.5019590000000  0.6274140000000 1.0
C      1  0.4880080000000  0.3890910000000  0.2546810000000 1.0
C      1  0.5276610000000  0.4670440000000  0.2212460000000 1.0
C      1  0.6319960000000  0.6201040000000  0.6615530000000 1.0
C      1  0.4555510000000  0.7219820000000  0.4501790000000 1.0
C      1  0.4945770000000  0.6608810000000  0.3839320000000 1.0
C      1  0.4456730000000  0.3278080000000  0.4023980000000 1.0
C      1  0.6117040000000  0.5009520000000  0.6068180000000 1.0
C      1  0.6760250000000  0.6675000000000  0.5493440000000 1.0
C      1  0.4281220000000  0.6116340000000  0.5632490000000 1.0
C      1  0.5761220000000  0.5009590000000  0.7058230000000 1.0
C      1  0.5600280000000  0.5660920000000  0.2561040000000 1.0
C      1  0.6416010000000  0.5950510000000  0.4727940000000 1.0
C      1  0.3589800000000  0.3958530000000  0.6130310000000 1.0
C      1  0.5432530000000  0.4013830000000  0.5064000000000 1.0
C      1  0.5011510000000  0.4281510000000  0.6089790000000 1.0
C      1  0.3727200000000  0.7002290000000  0.5972990000000 1.0
C      1  0.5126350000000  0.7483430000000  0.5239500000000 1.0
C      1  0.5646590000000  0.3036780000000  0.4555550000000 1.0
C      1  0.4368580000000  0.3133000000000  0.6136940000000 1.0
C      1  0.4629090000000  0.5709730000000  0.6416600000000 1.0
C      1  0.3039470000000  0.6126060000000  0.6172000000000 1.0
C      1  0.4389700000000  0.3634810000000  0.5115420000000 1.0
C      1  0.3545760000000  0.4989370000000  0.2817180000000 1.0
C      1  0.2821590000000  0.4643280000000  0.5282930000000 1.0
C      1  0.6341810000000  0.4871200000000  0.4611300000000 1.0
C      1  0.7550580000000  0.5136820000000  0.5032330000000 1.0
C      1  0.3627110000000  0.7159480000000  0.4860470000000 1.0
C      1  0.3809700000000  0.5086850000000  0.3644810000000 1.0
C      1  0.5079850000000  0.3326220000000  0.7001690000000 1.0
C      1  0.5747700000000  0.6301530000000  0.3258960000000 1.0
C      1  0.3550480000000  0.4564740000000  0.4494720000000 1.0
C      1  0.6331660000000  0.3891800000000  0.6034790000000 1.0
C      1  0.5228070000000  0.2685530000000  0.5528350000000 1.0
C      1  0.3029280000000  0.3523410000000  0.5317870000000 1.0
C      1  0.6272360000000  0.4807100000000  0.2574780000000 1.0
C      1  0.7188210000000  0.5206510000000  0.3950970000000 1.0
C      1  0.2684210000000  0.5744950000000  0.5270010000000 1.0
C      1  0.5166780000000  0.4284670000000  0.7249440000000 1.0
C      1  0.3145690000000  0.6252980000000  0.4546750000000 1.0
C      1  0.3461860000000  0.3608950000000  0.4134380000000 1.0
C      1  0.4691640000000  0.5530560000000  0.3940020000000 1.0
C      1  0.5350280000000  0.5329980000000  0.5368870000000 1.0
C      1  0.4637230000000  0.2410320000000  0.4664410000000 1.0
C      1  0.5140930000000  0.3541880000000  0.3382720000000 1.0
C      1  0.5314570000000  0.6275150000000  0.6799480000000 1.0
C      1  0.5325330000000  0.4866300000000  0.4349820000000 1.0
END
