TITL C-3036479-9801-785 -9.08355694968475e-06 3375 -368.504687043796 0 0 60 (C5) n - 1
REM
REM in /home/bkarasulu/work/CARBON/AIRSS/Generating-Clusters/REBO/Higher-Symm/Only-C60
REM
REM
REM
REM
REM
REM ./C.cell (a2850807a9bf4ad07a5b6933b78d9264)
REM AIRSS Version 0.9.1 bugfix July 2018 build 013d7b7c2542+ Fri, 06 Jul 2018 19:26:36 +0100
REM compiler GCC version 9.2.1 20190827 (Red Hat 9.2.1-1)
REM options -cpp -mtune=generic -march=x86-64 -g -O0 -fpre-include=/usr/include/finclude/math-vector-fortran.h
REM seed 1700793303 2063689178 -1926860544 1447865537 -1757295729 -1588919047 -775202042 702755340 -1121449791 2061622297 -76836751 -1832544766 -553967759 1811909238 -1007015106 1980369221 -273775771 -1134661207 958500482 -1780845089 -588618408 160161289 1559300970 -1868611356 -569860851 -580049527 -1044733534 690705897 1685825512 -359093633 -1003102350 271435632 -1693057759
REM
CELL 1.54180   15.00000   15.00000   15.00000   90.00000   90.00000   90.00000
LATT -1
SFAC C  
C      1  0.4677890000000  0.4370910000000  0.2833850000000 1.0
C      1  0.6960620000000  0.4370940000000  0.4024310000000 1.0
C      1  0.6533830000000  0.4371060000000  0.6563180000000 1.0
C      1  0.3987330000000  0.4371100000000  0.6941830000000 1.0
C      1  0.2840300000000  0.4371000000000  0.4636980000000 1.0
C      1  0.3372520000000  0.7108300000000  0.5272260000000 1.0
C      1  0.4238070000000  0.7108220000000  0.3536230000000 1.0
C      1  0.6156590000000  0.7108220000000  0.3822950000000 1.0
C      1  0.6476760000000  0.7108300000000  0.5736180000000 1.0
C      1  0.4756120000000  0.7108350000000  0.6631890000000 1.0
C      1  0.4869760000000  0.7577180000000  0.5821190000000 1.0
C      1  0.4178650000000  0.7577160000000  0.5129800000000 1.0
C      1  0.4622640000000  0.7577120000000  0.4258860000000 1.0
C      1  0.5588150000000  0.7577120000000  0.4411990000000 1.0
C      1  0.5740880000000  0.7577160000000  0.5377560000000 1.0
C      1  0.7032050000000  0.4357730000000  0.5771270000000 1.0
C      1  0.4894440000000  0.4357810000000  0.7170950000000 1.0
C      1  0.2902710000000  0.4357760000000  0.5570500000000 1.0
C      1  0.3809350000000  0.4357640000000  0.3181670000000 1.0
C      1  0.6361430000000  0.4357630000000  0.3305760000000 1.0
C      1  0.6143770000000  0.5572400000000  0.6137920000000 1.0
C      1  0.4271200000000  0.5572430000000  0.6439400000000 1.0
C      1  0.3405810000000  0.5572360000000  0.4751640000000 1.0
C      1  0.4743550000000  0.5572290000000  0.3407070000000 1.0
C      1  0.6435700000000  0.5572310000000  0.4263840000000 1.0
C      1  0.4637680000000  0.2532490000000  0.6342700000000 1.0
C      1  0.3611150000000  0.2532440000000  0.5070430000000 1.0
C      1  0.4503940000000  0.2532380000000  0.3700980000000 1.0
C      1  0.6082240000000  0.2532380000000  0.4126890000000 1.0
C      1  0.6164900000000  0.2532460000000  0.5759560000000 1.0
C      1  0.6384220000000  0.2909640000000  0.4930070000000 1.0
C      1  0.5494330000000  0.2909700000000  0.6294940000000 1.0
C      1  0.3921280000000  0.2909700000000  0.5870380000000 1.0
C      1  0.3838960000000  0.2909630000000  0.4243110000000 1.0
C      1  0.5361140000000  0.2909590000000  0.3661970000000 1.0
C      1  0.7374350000000  0.4870170000000  0.4898610000000 1.0
C      1  0.5830150000000  0.4870280000000  0.7226810000000 1.0
C      1  0.3138710000000  0.4870270000000  0.6477650000000 1.0
C      1  0.3019510000000  0.4870150000000  0.3686440000000 1.0
C      1  0.5637280000000  0.4870080000000  0.2710530000000 1.0
C      1  0.5386480000000  0.3890820000000  0.3556580000000 1.0
C      1  0.6492250000000  0.3890880000000  0.4921570000000 1.0
C      1  0.5535770000000  0.3890950000000  0.6395020000000 1.0
C      1  0.3838860000000  0.3890940000000  0.5940670000000 1.0
C      1  0.3746600000000  0.3890860000000  0.4186420000000 1.0
C      1  0.5727030000000  0.5845090000000  0.7002530000000 1.0
C      1  0.3320120000000  0.5845070000000  0.6310230000000 1.0
C      1  0.3234750000000  0.5844960000000  0.3807190000000 1.0
C      1  0.5588910000000  0.5844910000000  0.2952520000000 1.0
C      1  0.7129230000000  0.5844980000000  0.4927350000000 1.0
C      1  0.4851870000000  0.6194030000000  0.6854670000000 1.0
C      1  0.3190290000000  0.6193980000000  0.5432200000000 1.0
C      1  0.4029680000000  0.6193880000000  0.3412370000000 1.0
C      1  0.6210040000000  0.6193870000000  0.3586520000000 1.0
C      1  0.6718180000000  0.6193970000000  0.5713980000000 1.0
C      1  0.5627570000000  0.4771410000000  0.5676120000000 1.0
C      1  0.4550920000000  0.4771430000000  0.5805790000000 1.0
C      1  0.4094880000000  0.4771390000000  0.4821910000000 1.0
C      1  0.4889690000000  0.4771350000000  0.4084150000000 1.0
C      1  0.5836940000000  0.4771370000000  0.4612080000000 1.0
END
