TITL C-3036486-2224-699 -4.74342770189007e-06 3375 -365.769353245509 0 0 60 (C1) n - 1
REM
REM in /home/bkarasulu/work/CARBON/AIRSS/Generating-Clusters/REBO/Higher-Symm/Only-C60
REM
REM
REM
REM
REM
REM ./C.cell (a2850807a9bf4ad07a5b6933b78d9264)
REM AIRSS Version 0.9.1 bugfix July 2018 build 013d7b7c2542+ Fri, 06 Jul 2018 19:26:36 +0100
REM compiler GCC version 9.2.1 20190827 (Red Hat 9.2.1-1)
REM options -cpp -mtune=generic -march=x86-64 -g -O0 -fpre-include=/usr/include/finclude/math-vector-fortran.h
REM seed 1630849455 -1405242881 -630263426 -1996236148 -499981892 -431238532 1568529320 332325224 -1746352635 1805183550 -759717628 -697882504 2008639910 805740416 -1351832799 423138931 -1796488215 -1231844818 -58013699 1256597282 346202704 573363618 886261286 -1574821562 -39282519 1456567910 2024442095 1031059339 1195310419 1906919764 1046624535 -1497668973 -1379590574
REM
CELL 1.54180   15.00000   15.00000   15.00000   90.00000   90.00000   90.00000
LATT -1
SFAC C  
C      1  0.3804230000000  0.4462030000000  0.5117650000000 1.0
C      1  0.5460430000000  0.3779240000000  0.4890550000000 1.0
C      1  0.6228390000000  0.5469050000000  0.4893600000000 1.0
C      1  0.4431910000000  0.6231710000000  0.5068310000000 1.0
C      1  0.3784020000000  0.5473420000000  0.4851940000000 1.0
C      1  0.5538270000000  0.6190090000000  0.5157780000000 1.0
C      1  0.6168830000000  0.4454720000000  0.5165920000000 1.0
C      1  0.4539650000000  0.3795540000000  0.4873500000000 1.0
C      1  0.3201810000000  0.6081800000000  0.3557340000000 1.0
C      1  0.3900130000000  0.3230380000000  0.3575680000000 1.0
C      1  0.6729710000000  0.3988120000000  0.3621410000000 1.0
C      1  0.6011210000000  0.6733600000000  0.3625700000000 1.0
C      1  0.3135490000000  0.3923880000000  0.3637890000000 1.0
C      1  0.3887350000000  0.6874390000000  0.3610100000000 1.0
C      1  0.6861020000000  0.6136830000000  0.3609520000000 1.0
C      1  0.6160230000000  0.3127980000000  0.3612960000000 1.0
C      1  0.4175470000000  0.2919660000000  0.4448130000000 1.0
C      1  0.7076200000000  0.4231450000000  0.4462650000000 1.0
C      1  0.5770650000000  0.7084480000000  0.4465450000000 1.0
C      1  0.2904480000000  0.5798450000000  0.4433300000000 1.0
C      1  0.4188190000000  0.7164770000000  0.4451540000000 1.0
C      1  0.7129570000000  0.5816370000000  0.4470270000000 1.0
C      1  0.5837450000000  0.2867880000000  0.4473470000000 1.0
C      1  0.2851850000000  0.4207010000000  0.4480090000000 1.0
C      1  0.5551570000000  0.6153850000000  0.6304200000000 1.0
C      1  0.3777100000000  0.5497770000000  0.6460900000000 1.0
C      1  0.4537710000000  0.3766000000000  0.6456550000000 1.0
C      1  0.6153380000000  0.4529910000000  0.6278050000000 1.0
C      1  0.5460610000000  0.3757500000000  0.6471330000000 1.0
C      1  0.3866900000000  0.4533690000000  0.6229570000000 1.0
C      1  0.4537140000000  0.6142970000000  0.6198760000000 1.0
C      1  0.6292020000000  0.5488510000000  0.6531330000000 1.0
C      1  0.3765050000000  0.5371490000000  0.2988540000000 1.0
C      1  0.4626280000000  0.3761920000000  0.3000310000000 1.0
C      1  0.6191920000000  0.4640590000000  0.3013320000000 1.0
C      1  0.5343550000000  0.6200080000000  0.3020140000000 1.0
C      1  0.3817030000000  0.4436960000000  0.3029440000000 1.0
C      1  0.4412200000000  0.6185290000000  0.3024590000000 1.0
C      1  0.6185170000000  0.5572590000000  0.3011090000000 1.0
C      1  0.5565500000000  0.3788620000000  0.3017000000000 1.0
C      1  0.5473570000000  0.2544000000000  0.5383900000000 1.0
C      1  0.7464470000000  0.5470490000000  0.5386970000000 1.0
C      1  0.4522100000000  0.7528220000000  0.5346470000000 1.0
C      1  0.2500220000000  0.4523890000000  0.5365500000000 1.0
C      1  0.5500700000000  0.7503670000000  0.5350210000000 1.0
C      1  0.7484770000000  0.4499820000000  0.5345880000000 1.0
C      1  0.4501280000000  0.2558590000000  0.5364800000000 1.0
C      1  0.2554320000000  0.5496220000000  0.5363800000000 1.0
C      1  0.7096420000000  0.5919070000000  0.6165540000000 1.0
C      1  0.4068780000000  0.7086690000000  0.6053630000000 1.0
C      1  0.2930430000000  0.4058720000000  0.6070990000000 1.0
C      1  0.5907610000000  0.2941720000000  0.6152000000000 1.0
C      1  0.7067680000000  0.4027760000000  0.6057680000000 1.0
C      1  0.4073080000000  0.2954730000000  0.6138390000000 1.0
C      1  0.2958640000000  0.5936320000000  0.6135660000000 1.0
C      1  0.5990930000000  0.7096560000000  0.6062370000000 1.0
C      1  0.3123850000000  0.6892670000000  0.6122870000000 1.0
C      1  0.3121140000000  0.3118970000000  0.6140120000000 1.0
C      1  0.6861540000000  0.3092750000000  0.6129320000000 1.0
C      1  0.6938790000000  0.6878550000000  0.6119180000000 1.0
END
