TITL C-3036482-790-61 -1.35511492203063e-05 3375 -348.911487297014 0 0 60 (D2) n - 1
REM
REM in /home/bkarasulu/work/CARBON/AIRSS/Generating-Clusters/REBO/Higher-Symm/Only-C60
REM
REM
REM
REM
REM
REM ./C.cell (a2850807a9bf4ad07a5b6933b78d9264)
REM AIRSS Version 0.9.1 bugfix July 2018 build 013d7b7c2542+ Fri, 06 Jul 2018 19:26:36 +0100
REM compiler GCC version 9.2.1 20190827 (Red Hat 9.2.1-1)
REM options -cpp -mtune=generic -march=x86-64 -g -O0 -fpre-include=/usr/include/finclude/math-vector-fortran.h
REM seed -1911857163 898372916 1878905955 -1126047755 1572011434 1656198292 -1234077865 -624946568 -1745239714 -868285474 575147410 971034809 -601567431 224942736 1850337740 -482568707 -663809696 -731068698 334396427 1207605510 -250012448 -1775570471 916589874 -959072007 280577086 -96397215 1164119179 -162135143 -111170572 1875219175 -344341664 -448702266 -872564479
REM
CELL 1.54180   15.00000   15.00000   15.00000   90.00000   90.00000   90.00000
LATT -1
SFAC C  
C      1  0.7279200000000  0.6105040000000  0.5769070000000 1.0
C      1  0.3906350000000  0.7178780000000  0.5793120000000 1.0
C      1  0.2720800000000  0.3894970000000  0.5769070000000 1.0
C      1  0.6093650000000  0.2821230000000  0.5793160000000 1.0
C      1  0.2821370000000  0.6093930000000  0.4344090000000 1.0
C      1  0.6105330000000  0.7279050000000  0.4368160000000 1.0
C      1  0.7178640000000  0.3906060000000  0.4344120000000 1.0
C      1  0.3894680000000  0.2720940000000  0.4368190000000 1.0
C      1  0.4300690000000  0.4540230000000  0.3826490000000 1.0
C      1  0.5371510000000  0.4447830000000  0.3816150000000 1.0
C      1  0.5699320000000  0.5459750000000  0.3826490000000 1.0
C      1  0.4628500000000  0.5552160000000  0.3816140000000 1.0
C      1  0.5552110000000  0.4628430000000  0.6321110000000 1.0
C      1  0.4540140000000  0.4300750000000  0.6310760000000 1.0
C      1  0.4447880000000  0.5371590000000  0.6321100000000 1.0
C      1  0.5459850000000  0.5699260000000  0.6310760000000 1.0
C      1  0.3947580000000  0.4526240000000  0.4808530000000 1.0
C      1  0.5468620000000  0.3961220000000  0.4781390000000 1.0
C      1  0.6052420000000  0.5473750000000  0.4808540000000 1.0
C      1  0.4531380000000  0.6038770000000  0.4781370000000 1.0
C      1  0.6038720000000  0.4531250000000  0.5355870000000 1.0
C      1  0.4526110000000  0.3947650000000  0.5328720000000 1.0
C      1  0.3961280000000  0.5468750000000  0.5355860000000 1.0
C      1  0.5473890000000  0.6052360000000  0.5328710000000 1.0
C      1  0.6881650000000  0.4766080000000  0.3763300000000 1.0
C      1  0.5248240000000  0.7021710000000  0.3762800000000 1.0
C      1  0.3118360000000  0.5233900000000  0.3763280000000 1.0
C      1  0.4751770000000  0.2978270000000  0.3762820000000 1.0
C      1  0.2978250000000  0.4752030000000  0.6374430000000 1.0
C      1  0.4766320000000  0.6881690000000  0.6373940000000 1.0
C      1  0.7021740000000  0.5247990000000  0.6374440000000 1.0
C      1  0.5233670000000  0.3118330000000  0.6373970000000 1.0
C      1  0.2533420000000  0.4041760000000  0.4796230000000 1.0
C      1  0.5958990000000  0.2548540000000  0.4840280000000 1.0
C      1  0.7466580000000  0.5958230000000  0.4796230000000 1.0
C      1  0.4041020000000  0.7451450000000  0.4840240000000 1.0
C      1  0.7451330000000  0.4040700000000  0.5297000000000 1.0
C      1  0.4041450000000  0.2533540000000  0.5341030000000 1.0
C      1  0.2548670000000  0.5959300000000  0.5296970000000 1.0
C      1  0.5958550000000  0.7466460000000  0.5341000000000 1.0
C      1  0.7006730000000  0.5694130000000  0.3909010000000 1.0
C      1  0.4320240000000  0.7044400000000  0.3934540000000 1.0
C      1  0.2993280000000  0.4305850000000  0.3909000000000 1.0
C      1  0.5679770000000  0.2955580000000  0.3934580000000 1.0
C      1  0.2955670000000  0.5680040000000  0.6202670000000 1.0
C      1  0.5694390000000  0.7006640000000  0.6228230000000 1.0
C      1  0.7044320000000  0.4319980000000  0.6202700000000 1.0
C      1  0.4305600000000  0.2993370000000  0.6228250000000 1.0
C      1  0.6396820000000  0.6197830000000  0.6472910000000 1.0
C      1  0.3809410000000  0.6249970000000  0.6423560000000 1.0
C      1  0.3603170000000  0.3802190000000  0.6472910000000 1.0
C      1  0.6190570000000  0.3750050000000  0.6423590000000 1.0
C      1  0.3750190000000  0.6190730000000  0.3713660000000 1.0
C      1  0.6198010000000  0.6396660000000  0.3664330000000 1.0
C      1  0.6249820000000  0.3809250000000  0.3713680000000 1.0
C      1  0.3802010000000  0.3603320000000  0.3664340000000 1.0
C      1  0.5010350000000  0.7007600000000  0.5072270000000 1.0
C      1  0.2992400000000  0.4989900000000  0.5064960000000 1.0
C      1  0.4989650000000  0.2992400000000  0.5072300000000 1.0
C      1  0.7007600000000  0.5010100000000  0.5064970000000 1.0
END
