TITL C-3036480-97-704 -1.27528048000704e-07 3375 -328.972717443713 0 0 60 (Ci) n - 1
REM
REM in /home/bkarasulu/work/CARBON/AIRSS/Generating-Clusters/REBO/Higher-Symm/Only-C60
REM
REM
REM
REM
REM
REM ./C.cell (a2850807a9bf4ad07a5b6933b78d9264)
REM AIRSS Version 0.9.1 bugfix July 2018 build 013d7b7c2542+ Fri, 06 Jul 2018 19:26:36 +0100
REM compiler GCC version 9.2.1 20190827 (Red Hat 9.2.1-1)
REM options -cpp -mtune=generic -march=x86-64 -g -O0 -fpre-include=/usr/include/finclude/math-vector-fortran.h
REM seed 788929358 1984124818 102392667 -30604477 -1297727258 -704712673 1509203088 -265052744 -2091714316 -825486642 -203987238 703079713 583873900 618085249 -1682868710 -894007361 -1248422097 -1424038320 -800201445 1374691769 -218459346 1964246675 -581263455 1186190347 -313654246 -1323815988 1992104107 24853369 -409953962 -626019909 -1257960820 1990107313 -966891404
REM
CELL 1.54180   15.00000   15.00000   15.00000   90.00000   90.00000   90.00000
LATT -1
SFAC C  
C      1  0.5541280000000  0.4783540000000  0.5753680000000 1.0
C      1  0.4458720000000  0.5216460000000  0.4246320000000 1.0
C      1  0.3571220000000  0.5870510000000  0.6462730000000 1.0
C      1  0.6428780000000  0.4129490000000  0.3537270000000 1.0
C      1  0.5011990000000  0.2874990000000  0.4484390000000 1.0
C      1  0.4988010000000  0.7125010000000  0.5515610000000 1.0
C      1  0.3925430000000  0.4631720000000  0.7681940000000 1.0
C      1  0.6074570000000  0.5368280000000  0.2318060000000 1.0
C      1  0.3465640000000  0.5052710000000  0.3205450000000 1.0
C      1  0.6534360000000  0.4947290000000  0.6794550000000 1.0
C      1  0.5483150000000  0.4372010000000  0.2971320000000 1.0
C      1  0.4516850000000  0.5627990000000  0.7028680000000 1.0
C      1  0.5081200000000  0.3757730000000  0.6736900000000 1.0
C      1  0.4918800000000  0.6242270000000  0.3263100000000 1.0
C      1  0.6831750000000  0.3618180000000  0.5158240000000 1.0
C      1  0.3168250000000  0.6381820000000  0.4841760000000 1.0
C      1  0.3938200000000  0.4998470000000  0.5193140000000 1.0
C      1  0.6061800000000  0.5001530000000  0.4806860000000 1.0
C      1  0.5449140000000  0.3220850000000  0.5792550000000 1.0
C      1  0.4550860000000  0.6779150000000  0.4207450000000 1.0
C      1  0.7076180000000  0.4869850000000  0.3952290000000 1.0
C      1  0.2923820000000  0.5130150000000  0.6047710000000 1.0
C      1  0.4210640000000  0.4710580000000  0.2813770000000 1.0
C      1  0.5789360000000  0.5289420000000  0.7186230000000 1.0
C      1  0.4390190000000  0.2979120000000  0.6538870000000 1.0
C      1  0.5609810000000  0.7020880000000  0.3461130000000 1.0
C      1  0.5035250000000  0.5389590000000  0.2722540000000 1.0
C      1  0.4964750000000  0.4610410000000  0.7277460000000 1.0
C      1  0.3957090000000  0.6913750000000  0.5075160000000 1.0
C      1  0.6042910000000  0.3086250000000  0.4924840000000 1.0
C      1  0.2995680000000  0.3988450000000  0.6041670000000 1.0
C      1  0.7004320000000  0.6011550000000  0.3958330000000 1.0
C      1  0.3380770000000  0.5549950000000  0.4127840000000 1.0
C      1  0.6619230000000  0.4450050000000  0.5872160000000 1.0
C      1  0.3661490000000  0.3765940000000  0.4362780000000 1.0
C      1  0.6338510000000  0.6234060000000  0.5637220000000 1.0
C      1  0.3693480000000  0.3278090000000  0.5734730000000 1.0
C      1  0.6306520000000  0.6721910000000  0.4265270000000 1.0
C      1  0.4427870000000  0.2542120000000  0.5281600000000 1.0
C      1  0.5572130000000  0.7457880000000  0.4718400000000 1.0
C      1  0.5288940000000  0.5828920000000  0.5495290000000 1.0
C      1  0.4711060000000  0.4171080000000  0.4504710000000 1.0
C      1  0.5014880000000  0.2210480000000  0.6117230000000 1.0
C      1  0.4985120000000  0.7789520000000  0.3882770000000 1.0
C      1  0.4479480000000  0.4726950000000  0.6047060000000 1.0
C      1  0.5520520000000  0.5273050000000  0.3952940000000 1.0
C      1  0.2694240000000  0.5406640000000  0.5026640000000 1.0
C      1  0.7305760000000  0.4593360000000  0.4973360000000 1.0
C      1  0.4640990000000  0.3837990000000  0.5484550000000 1.0
C      1  0.5359010000000  0.6162010000000  0.4515450000000 1.0
C      1  0.6940220000000  0.5666280000000  0.5005550000000 1.0
C      1  0.3059780000000  0.4333720000000  0.4994450000000 1.0
C      1  0.5464010000000  0.3760080000000  0.3930810000000 1.0
C      1  0.4535990000000  0.6239920000000  0.6069190000000 1.0
C      1  0.4537510000000  0.3758860000000  0.2974010000000 1.0
C      1  0.5462490000000  0.6241140000000  0.7025990000000 1.0
C      1  0.5729970000000  0.6781110000000  0.6303140000000 1.0
C      1  0.4270030000000  0.3218890000000  0.3696860000000 1.0
C      1  0.6339850000000  0.5423010000000  0.3270340000000 1.0
C      1  0.3660150000000  0.4576990000000  0.6729660000000 1.0
END
