TITL C-3036486-2224-993 -1.98416885752617e-07 3375 -353.717658290016 0 0 60 (Ci) n - 1
REM
REM in /home/bkarasulu/work/CARBON/AIRSS/Generating-Clusters/REBO/Higher-Symm/Only-C60
REM
REM
REM
REM
REM
REM ./C.cell (a2850807a9bf4ad07a5b6933b78d9264)
REM AIRSS Version 0.9.1 bugfix July 2018 build 013d7b7c2542+ Fri, 06 Jul 2018 19:26:36 +0100
REM compiler GCC version 9.2.1 20190827 (Red Hat 9.2.1-1)
REM options -cpp -mtune=generic -march=x86-64 -g -O0 -fpre-include=/usr/include/finclude/math-vector-fortran.h
REM seed 1643584673 1284827669 -811982275 1840617820 1895371327 179322070 2036194290 831462715 1853343958 1445382108 -1667536212 -520018597 -941760069 692163786 1837233336 108015285 -20970360 -590011093 -1854758932 1886616218 1612714926 -31973803 2070964079 504493437 20831447 -1836534564 1357184272 -2073167337 -446909873 386130346 1617959766 -835803947 -573599166
REM
CELL 1.54180   15.00000   15.00000   15.00000   90.00000   90.00000   90.00000
LATT -1
SFAC C  
C      1  0.6004230000000  0.5262530000000  0.4522910000000 1.0
C      1  0.3938490000000  0.4742240000000  0.4338360000000 1.0
C      1  0.6061510000000  0.5257760000000  0.5661640000000 1.0
C      1  0.3995770000000  0.4737470000000  0.5477090000000 1.0
C      1  0.4676390000000  0.5594240000000  0.5533370000000 1.0
C      1  0.5419720000000  0.4450470000000  0.5402160000000 1.0
C      1  0.4580280000000  0.5549530000000  0.4597840000000 1.0
C      1  0.5323610000000  0.4405760000000  0.4466630000000 1.0
C      1  0.5170520000000  0.2712390000000  0.4560320000000 1.0
C      1  0.4759360000000  0.7252700000000  0.4602890000000 1.0
C      1  0.5240640000000  0.2747300000000  0.5397110000000 1.0
C      1  0.4829480000000  0.7287610000000  0.5439680000000 1.0
C      1  0.3816280000000  0.3754770000000  0.7012670000000 1.0
C      1  0.6266860000000  0.6271980000000  0.7122450000000 1.0
C      1  0.3733140000000  0.3728020000000  0.2877550000000 1.0
C      1  0.6183720000000  0.6245230000000  0.2987330000000 1.0
C      1  0.3808690000000  0.4645570000000  0.7261160000000 1.0
C      1  0.6276850000000  0.5376020000000  0.7368390000000 1.0
C      1  0.3723150000000  0.4623980000000  0.2631610000000 1.0
C      1  0.6191310000000  0.5354430000000  0.2738840000000 1.0
C      1  0.3978300000000  0.3708550000000  0.5973380000000 1.0
C      1  0.6088560000000  0.6317640000000  0.6087950000000 1.0
C      1  0.3911440000000  0.3682360000000  0.3912050000000 1.0
C      1  0.6021700000000  0.6291450000000  0.4026620000000 1.0
C      1  0.2721680000000  0.5616530000000  0.4511850000000 1.0
C      1  0.7250670000000  0.4369370000000  0.4557810000000 1.0
C      1  0.2749330000000  0.5630630000000  0.5442190000000 1.0
C      1  0.7278320000000  0.4383470000000  0.5488150000000 1.0
C      1  0.4345100000000  0.5992950000000  0.3366510000000 1.0
C      1  0.5625300000000  0.3900110000000  0.3280530000000 1.0
C      1  0.4374700000000  0.6099890000000  0.6719470000000 1.0
C      1  0.5654900000000  0.4007050000000  0.6633490000000 1.0
C      1  0.2626330000000  0.4645840000000  0.4128180000000 1.0
C      1  0.7288140000000  0.5340230000000  0.4173260000000 1.0
C      1  0.2711860000000  0.4659770000000  0.5826740000000 1.0
C      1  0.7373670000000  0.5354160000000  0.5871820000000 1.0
C      1  0.2987730000000  0.3830180000000  0.4495240000000 1.0
C      1  0.6974530000000  0.6166590000000  0.4565260000000 1.0
C      1  0.3025470000000  0.3833410000000  0.5434740000000 1.0
C      1  0.7012270000000  0.6169820000000  0.5504760000000 1.0
C      1  0.3339570000000  0.5129170000000  0.3451210000000 1.0
C      1  0.6507180000000  0.4849480000000  0.3581070000000 1.0
C      1  0.3492820000000  0.5150520000000  0.6418930000000 1.0
C      1  0.6660430000000  0.4870830000000  0.6548790000000 1.0
C      1  0.4594470000000  0.5261670000000  0.7160470000000 1.0
C      1  0.5467370000000  0.4807430000000  0.7139440000000 1.0
C      1  0.4532630000000  0.5192570000000  0.2860560000000 1.0
C      1  0.5405530000000  0.4738330000000  0.2839530000000 1.0
C      1  0.5003470000000  0.6391690000000  0.4098410000000 1.0
C      1  0.4914130000000  0.3544180000000  0.4017370000000 1.0
C      1  0.5085870000000  0.6455820000000  0.5982630000000 1.0
C      1  0.4996530000000  0.3608310000000  0.5901590000000 1.0
C      1  0.6672970000000  0.3812450000000  0.6270250000000 1.0
C      1  0.3373360000000  0.6207380000000  0.6215930000000 1.0
C      1  0.6626640000000  0.3792620000000  0.3784070000000 1.0
C      1  0.3327030000000  0.6187550000000  0.3729750000000 1.0
C      1  0.6749820000000  0.3160850000000  0.5438670000000 1.0
C      1  0.3279780000000  0.6851440000000  0.5379870000000 1.0
C      1  0.6720220000000  0.3148560000000  0.4620130000000 1.0
C      1  0.3250180000000  0.6839150000000  0.4561330000000 1.0
END
