TITL C-3036481-494-402 0.0875367983415441 3375 -307.178607934898 0 0 60 (C1) n - 1
REM
REM in /home/bkarasulu/work/CARBON/AIRSS/Generating-Clusters/REBO/Higher-Symm/Only-C60
REM
REM
REM
REM
REM
REM ./C.cell (a2850807a9bf4ad07a5b6933b78d9264)
REM AIRSS Version 0.9.1 bugfix July 2018 build 013d7b7c2542+ Fri, 06 Jul 2018 19:26:36 +0100
REM compiler GCC version 9.2.1 20190827 (Red Hat 9.2.1-1)
REM options -cpp -mtune=generic -march=x86-64 -g -O0 -fpre-include=/usr/include/finclude/math-vector-fortran.h
REM seed -720218277 -238644104 350466224 1574635921 1771178715 -602496489 -1388051245 -50676237 -153408128 512222368 77570384 -130257740 1627087390 -1720831988 455704376 322722787 1407397478 -1750456340 1239050016 -164490629 -897888280 1629607330 1643896995 1544960661 2079316859 759471988 -2035106168 -643522679 -31801351 420060909 680850289 1435391878 -2102468499
REM
CELL 1.54180   15.00000   15.00000   15.00000   90.00000   90.00000   90.00000
LATT -1
SFAC C  
C      1  0.5749810000000  0.4849750000000  0.3325140000000 1.0
C      1  0.4246840000000  0.4848630000000  0.6678090000000 1.0
C      1  0.4256180000000  0.5117570000000  0.3306830000000 1.0
C      1  0.5743880000000  0.5117510000000  0.6695680000000 1.0
C      1  0.3303270000000  0.4881830000000  0.5748790000000 1.0
C      1  0.6695130000000  0.4884780000000  0.4253880000000 1.0
C      1  0.3324920000000  0.5146640000000  0.4249770000000 1.0
C      1  0.6673100000000  0.5151810000000  0.5751290000000 1.0
C      1  0.4803930000000  0.2661850000000  0.5912960000000 1.0
C      1  0.5190500000000  0.2660340000000  0.4085980000000 1.0
C      1  0.5187590000000  0.7423660000000  0.5951120000000 1.0
C      1  0.4811680000000  0.7427350000000  0.4042220000000 1.0
C      1  0.5946570000000  0.2575130000000  0.4807490000000 1.0
C      1  0.4051530000000  0.2574590000000  0.5191880000000 1.0
C      1  0.5909290000000  0.7339240000000  0.5196870000000 1.0
C      1  0.4091600000000  0.7338030000000  0.4790550000000 1.0
C      1  0.6781910000000  0.6793400000000  0.4721020000000 1.0
C      1  0.3229160000000  0.6785840000000  0.5277270000000 1.0
C      1  0.3324750000000  0.3320330000000  0.4743960000000 1.0
C      1  0.6671220000000  0.3322230000000  0.5255730000000 1.0
C      1  0.4738300000000  0.6679140000000  0.6678390000000 1.0
C      1  0.5263660000000  0.6688590000000  0.3313590000000 1.0
C      1  0.4716750000000  0.3207340000000  0.3212660000000 1.0
C      1  0.5280190000000  0.3210070000000  0.6784330000000 1.0
C      1  0.2713920000000  0.4004160000000  0.5374530000000 1.0
C      1  0.7284240000000  0.4007310000000  0.4628230000000 1.0
C      1  0.7267740000000  0.6036190000000  0.5396050000000 1.0
C      1  0.2733270000000  0.6032220000000  0.4607790000000 1.0
C      1  0.5395870000000  0.3964140000000  0.2730760000000 1.0
C      1  0.4604190000000  0.3965020000000  0.7271740000000 1.0
C      1  0.5371380000000  0.5994120000000  0.7285600000000 1.0
C      1  0.4626010000000  0.5997260000000  0.2718040000000 1.0
C      1  0.2851950000000  0.4104590000000  0.6448810000000 1.0
C      1  0.7149370000000  0.4109620000000  0.3553700000000 1.0
C      1  0.7118760000000  0.5916450000000  0.6465310000000 1.0
C      1  0.2878300000000  0.5912930000000  0.3538250000000 1.0
C      1  0.6464660000000  0.4084470000000  0.2882270000000 1.0
C      1  0.3534410000000  0.4082010000000  0.7122530000000 1.0
C      1  0.6445780000000  0.5892170000000  0.7148390000000 1.0
C      1  0.3553190000000  0.5892640000000  0.2857050000000 1.0
C      1  0.2880600000000  0.4255060000000  0.4319960000000 1.0
C      1  0.7114000000000  0.4258520000000  0.5682100000000 1.0
C      1  0.7115820000000  0.5777770000000  0.4340810000000 1.0
C      1  0.2883810000000  0.5775760000000  0.5663720000000 1.0
C      1  0.4341190000000  0.4225950000000  0.2881660000000 1.0
C      1  0.5659190000000  0.4226200000000  0.7119710000000 1.0
C      1  0.4316680000000  0.5741300000000  0.7119640000000 1.0
C      1  0.5680340000000  0.5742340000000  0.2883950000000 1.0
C      1  0.5852900000000  0.6221220000000  0.4994670000000 1.0
C      1  0.4159470000000  0.6223100000000  0.5001160000000 1.0
C      1  0.4264110000000  0.3655520000000  0.5228930000000 1.0
C      1  0.5736860000000  0.3655250000000  0.4763240000000 1.0
C      1  0.5238140000000  0.6343020000000  0.5747240000000 1.0
C      1  0.4775090000000  0.6343300000000  0.4249730000000 1.0
C      1  0.4991480000000  0.3779120000000  0.4140760000000 1.0
C      1  0.5010150000000  0.3778680000000  0.5852470000000 1.0
C      1  0.4421150000000  0.4933030000000  0.5558730000000 1.0
C      1  0.5554280000000  0.5064030000000  0.5577000000000 1.0
C      1  0.5576560000000  0.4934580000000  0.4443990000000 1.0
C      1  0.4443390000000  0.5065310000000  0.4426000000000 1.0
END
