TITL C-3036485-3770-725 -3.86441001799693e-06 3375 -342.356350902681 0 0 60 (C4) n - 1
REM
REM in /home/bkarasulu/work/CARBON/AIRSS/Generating-Clusters/REBO/Higher-Symm/Only-C60
REM
REM
REM
REM
REM
REM ./C.cell (a2850807a9bf4ad07a5b6933b78d9264)
REM AIRSS Version 0.9.1 bugfix July 2018 build 013d7b7c2542+ Fri, 06 Jul 2018 19:26:36 +0100
REM compiler GCC version 9.2.1 20190827 (Red Hat 9.2.1-1)
REM options -cpp -mtune=generic -march=x86-64 -g -O0 -fpre-include=/usr/include/finclude/math-vector-fortran.h
REM seed -300645294 476673082 -645359952 2100710630 1934803916 577119485 1902517515 -488186145 -269683130 792466170 282987914 786096303 1217577607 -246794924 1880963062 -275396839 186472803 -564002976 1474518271 100929915 456745248 1437324670 906659840 -1316021450 -1035230538 -652295949 1876585022 -144009344 2075292252 789836994 -1756283304 788669419 -1930630518
REM
CELL 1.54180   15.00000   15.00000   15.00000   90.00000   90.00000   90.00000
LATT -1
SFAC C  
C      1  0.4320260000000  0.3291030000000  0.2612570000000 1.0
C      1  0.3157430000000  0.4713240000000  0.2804890000000 1.0
C      1  0.3838700000000  0.6418210000000  0.3008430000000 1.0
C      1  0.5679800000000  0.6708990000000  0.2612600000000 1.0
C      1  0.6842630000000  0.5286770000000  0.2804940000000 1.0
C      1  0.6161350000000  0.3581810000000  0.3008450000000 1.0
C      1  0.5286800000000  0.3157400000000  0.2804910000000 1.0
C      1  0.6709010000000  0.4320240000000  0.2612610000000 1.0
C      1  0.6418220000000  0.6161330000000  0.3008460000000 1.0
C      1  0.4713260000000  0.6842610000000  0.2804920000000 1.0
C      1  0.3291050000000  0.5679780000000  0.2612560000000 1.0
C      1  0.3581840000000  0.3838690000000  0.3008410000000 1.0
C      1  0.5551590000000  0.6991430000000  0.4789160000000 1.0
C      1  0.7021680000000  0.5541730000000  0.5000030000000 1.0
C      1  0.6473430000000  0.3551200000000  0.5210870000000 1.0
C      1  0.4448410000000  0.3008570000000  0.4789130000000 1.0
C      1  0.2978320000000  0.4458270000000  0.4999970000000 1.0
C      1  0.3526560000000  0.6448800000000  0.5210840000000 1.0
C      1  0.4458270000000  0.7021690000000  0.5000000000000 1.0
C      1  0.3008570000000  0.5551600000000  0.4789120000000 1.0
C      1  0.3551200000000  0.3526570000000  0.5210830000000 1.0
C      1  0.5541730000000  0.2978310000000  0.5000000000000 1.0
C      1  0.6991440000000  0.4448400000000  0.4789170000000 1.0
C      1  0.6448800000000  0.6473430000000  0.5210880000000 1.0
C      1  0.4564670000000  0.7076960000000  0.3903640000000 1.0
C      1  0.6527820000000  0.6397120000000  0.4111710000000 1.0
C      1  0.7007620000000  0.4327770000000  0.3706380000000 1.0
C      1  0.5435350000000  0.2923050000000  0.3903640000000 1.0
C      1  0.3472200000000  0.3602890000000  0.4111650000000 1.0
C      1  0.2992410000000  0.5672240000000  0.3706330000000 1.0
C      1  0.5672250000000  0.7007610000000  0.3706370000000 1.0
C      1  0.3602890000000  0.6527820000000  0.4111670000000 1.0
C      1  0.2923060000000  0.4564670000000  0.3903610000000 1.0
C      1  0.4327790000000  0.2992400000000  0.3706340000000 1.0
C      1  0.6397130000000  0.3472190000000  0.4111690000000 1.0
C      1  0.7076970000000  0.5435340000000  0.3903670000000 1.0
C      1  0.4326980000000  0.6739110000000  0.7195080000000 1.0
C      1  0.6140070000000  0.6443200000000  0.7387430000000 1.0
C      1  0.6808830000000  0.4703390000000  0.6991590000000 1.0
C      1  0.5672960000000  0.3260880000000  0.7195090000000 1.0
C      1  0.3859870000000  0.3556780000000  0.7387390000000 1.0
C      1  0.3191120000000  0.5296600000000  0.6991540000000 1.0
C      1  0.5296570000000  0.6808850000000  0.6991570000000 1.0
C      1  0.3556750000000  0.6140100000000  0.7387400000000 1.0
C      1  0.3260870000000  0.4327010000000  0.7195060000000 1.0
C      1  0.4703370000000  0.3191130000000  0.6991550000000 1.0
C      1  0.6443180000000  0.3859880000000  0.7387430000000 1.0
C      1  0.6739080000000  0.5672980000000  0.7195110000000 1.0
C      1  0.7016330000000  0.5661500000000  0.6096390000000 1.0
C      1  0.6585980000000  0.3597510000000  0.6293660000000 1.0
C      1  0.4554000000000  0.2978300000000  0.5888310000000 1.0
C      1  0.2983640000000  0.4338500000000  0.6096330000000 1.0
C      1  0.3413980000000  0.6402490000000  0.6293630000000 1.0
C      1  0.5445980000000  0.7021690000000  0.5888330000000 1.0
C      1  0.2978290000000  0.5445990000000  0.5888290000000 1.0
C      1  0.3597500000000  0.3414000000000  0.6293620000000 1.0
C      1  0.5661490000000  0.2983640000000  0.6096360000000 1.0
C      1  0.7021680000000  0.4554000000000  0.5888350000000 1.0
C      1  0.6402470000000  0.6585990000000  0.6293670000000 1.0
C      1  0.4338480000000  0.7016350000000  0.6096360000000 1.0
END
