TITL C-3036480-97-450 2.95919938671151e-07 3375 -342.636913350252 0 0 60 (Ci) n - 1
REM
REM in /home/bkarasulu/work/CARBON/AIRSS/Generating-Clusters/REBO/Higher-Symm/Only-C60
REM
REM
REM
REM
REM
REM ./C.cell (a2850807a9bf4ad07a5b6933b78d9264)
REM AIRSS Version 0.9.1 bugfix July 2018 build 013d7b7c2542+ Fri, 06 Jul 2018 19:26:36 +0100
REM compiler GCC version 9.2.1 20190827 (Red Hat 9.2.1-1)
REM options -cpp -mtune=generic -march=x86-64 -g -O0 -fpre-include=/usr/include/finclude/math-vector-fortran.h
REM seed -1516407306 -85462156 851846409 -724789932 167526465 -366448067 -363127042 1807649998 -1415515551 -16058816 258419072 1815985767 898998182 458217355 580137918 1586855583 -827584711 -1315126357 1384709690 1691719905 -839512141 847524393 -1925403837 -1637268791 -489153569 1780841030 -658184098 1647647305 558053309 -609153972 589338980 -1505573397 -1414378738
REM
CELL 1.54180   15.00000   15.00000   15.00000   90.00000   90.00000   90.00000
LATT -1
SFAC C  
C      1  0.5332360000000  0.3519040000000  0.3135140000000 1.0
C      1  0.4667640000000  0.6480960000000  0.6864860000000 1.0
C      1  0.5906500000000  0.6814580000000  0.5110030000000 1.0
C      1  0.4093500000000  0.3185420000000  0.4889970000000 1.0
C      1  0.6432650000000  0.2953490000000  0.5334920000000 1.0
C      1  0.3567350000000  0.7046510000000  0.4665080000000 1.0
C      1  0.2967590000000  0.4491310000000  0.5541450000000 1.0
C      1  0.7032410000000  0.5508690000000  0.4458550000000 1.0
C      1  0.4597420000000  0.7334710000000  0.3107980000000 1.0
C      1  0.5402580000000  0.2665290000000  0.6892020000000 1.0
C      1  0.4489100000000  0.7142750000000  0.4218060000000 1.0
C      1  0.5510900000000  0.2857250000000  0.5781940000000 1.0
C      1  0.6083120000000  0.4349110000000  0.6736920000000 1.0
C      1  0.3916880000000  0.5650890000000  0.3263080000000 1.0
C      1  0.4087990000000  0.4851560000000  0.4928220000000 1.0
C      1  0.5912010000000  0.5148440000000  0.5071780000000 1.0
C      1  0.5321910000000  0.3688090000000  0.6534900000000 1.0
C      1  0.4678090000000  0.6311910000000  0.3465100000000 1.0
C      1  0.5125200000000  0.3903780000000  0.4083970000000 1.0
C      1  0.4874800000000  0.6096220000000  0.5916030000000 1.0
C      1  0.5477560000000  0.2629840000000  0.4252270000000 1.0
C      1  0.4522440000000  0.7370160000000  0.5747730000000 1.0
C      1  0.4547120000000  0.6088520000000  0.5027330000000 1.0
C      1  0.5452880000000  0.3911480000000  0.4972670000000 1.0
C      1  0.5155930000000  0.5524980000000  0.4428720000000 1.0
C      1  0.4844070000000  0.4475020000000  0.5571280000000 1.0
C      1  0.5389450000000  0.5292970000000  0.5993650000000 1.0
C      1  0.4610550000000  0.4707030000000  0.4006350000000 1.0
C      1  0.6140040000000  0.6557450000000  0.6100370000000 1.0
C      1  0.3859960000000  0.3442550000000  0.3899630000000 1.0
C      1  0.2937920000000  0.6650210000000  0.4139160000000 1.0
C      1  0.7062080000000  0.3349790000000  0.5860840000000 1.0
C      1  0.6491020000000  0.4208550000000  0.4902320000000 1.0
C      1  0.3508980000000  0.5791450000000  0.5097680000000 1.0
C      1  0.5700960000000  0.6282670000000  0.6936060000000 1.0
C      1  0.4299040000000  0.3717340000000  0.3063940000000 1.0
C      1  0.4344440000000  0.4068210000000  0.6424090000000 1.0
C      1  0.5655560000000  0.5931800000000  0.3575910000000 1.0
C      1  0.6965160000000  0.4915540000000  0.3716000000000 1.0
C      1  0.3034840000000  0.5084460000000  0.6284000000000 1.0
C      1  0.6280670000000  0.4053290000000  0.3438930000000 1.0
C      1  0.3719330000000  0.5946710000000  0.6561070000000 1.0
C      1  0.7170640000000  0.4945810000000  0.5435630000000 1.0
C      1  0.2829360000000  0.5054190000000  0.4564370000000 1.0
C      1  0.5094070000000  0.7299320000000  0.5009730000000 1.0
C      1  0.4905930000000  0.2700680000000  0.4990270000000 1.0
C      1  0.6602810000000  0.5827240000000  0.5664130000000 1.0
C      1  0.3397190000000  0.4172760000000  0.4335870000000 1.0
C      1  0.5924970000000  0.5390550000000  0.7186680000000 1.0
C      1  0.4075030000000  0.4609450000000  0.2813320000000 1.0
C      1  0.3074020000000  0.5796950000000  0.3840590000000 1.0
C      1  0.6925980000000  0.4203050000000  0.6159410000000 1.0
C      1  0.3679980000000  0.3763260000000  0.5572790000000 1.0
C      1  0.6320020000000  0.6236740000000  0.4427210000000 1.0
C      1  0.6368150000000  0.3282980000000  0.4249940000000 1.0
C      1  0.3631850000000  0.6717020000000  0.5750060000000 1.0
C      1  0.6124290000000  0.5135000000000  0.3117600000000 1.0
C      1  0.3875710000000  0.4865000000000  0.6882400000000 1.0
C      1  0.6216630000000  0.4620180000000  0.7832370000000 1.0
C      1  0.3783370000000  0.5379820000000  0.2167630000000 1.0
END
