TITL C-3036486-2224-1120 -1.85692535310823e-06 3375 -368.442139195485 0 0 60 (T23) n - 1
REM
REM in /home/bkarasulu/work/CARBON/AIRSS/Generating-Clusters/REBO/Higher-Symm/Only-C60
REM
REM
REM
REM
REM
REM ./C.cell (a2850807a9bf4ad07a5b6933b78d9264)
REM AIRSS Version 0.9.1 bugfix July 2018 build 013d7b7c2542+ Fri, 06 Jul 2018 19:26:36 +0100
REM compiler GCC version 9.2.1 20190827 (Red Hat 9.2.1-1)
REM options -cpp -mtune=generic -march=x86-64 -g -O0 -fpre-include=/usr/include/finclude/math-vector-fortran.h
REM seed -1084186130 2044780626 10382977 1398386474 46035941 -113576765 -254537274 -215412104 -1988464513 -288130539 -496847385 -161885714 -1674665776 -139910219 -1486786219 -589781048 46324668 -357424045 -1998162210 203610265 917363746 -604074458 932558413 -1699647392 72706973 1561447816 10153614 -1681137023 -1658813858 -1484586514 -497334453 1467608849 2100381193
REM
CELL 1.54180   15.00000   15.00000   15.00000   90.00000   90.00000   90.00000
LATT -1
SFAC C  
C      1  0.5577870000000  0.4151200000000  0.2650260000000 1.0
C      1  0.4151200000000  0.2650260000000  0.5577870000000 1.0
C      1  0.2650260000000  0.5577870000000  0.4151200000000 1.0
C      1  0.4422130000000  0.5848800000000  0.2650260000000 1.0
C      1  0.5577870000000  0.5848800000000  0.7349740000000 1.0
C      1  0.4422130000000  0.4151200000000  0.7349740000000 1.0
C      1  0.5848800000000  0.7349740000000  0.5577870000000 1.0
C      1  0.4151200000000  0.7349740000000  0.4422130000000 1.0
C      1  0.5848800000000  0.2650260000000  0.4422130000000 1.0
C      1  0.7349740000000  0.4422130000000  0.4151200000000 1.0
C      1  0.2650260000000  0.4422130000000  0.5848800000000 1.0
C      1  0.7349740000000  0.5577870000000  0.5848800000000 1.0
C      1  0.5332910000000  0.5359540000000  0.3882100000000 1.0
C      1  0.5359540000000  0.3882100000000  0.5332910000000 1.0
C      1  0.3882100000000  0.5332910000000  0.5359540000000 1.0
C      1  0.4667090000000  0.4640460000000  0.3882100000000 1.0
C      1  0.5332910000000  0.4640460000000  0.6117900000000 1.0
C      1  0.4667090000000  0.5359540000000  0.6117900000000 1.0
C      1  0.4640460000000  0.6117900000000  0.5332910000000 1.0
C      1  0.5359540000000  0.6117900000000  0.4667090000000 1.0
C      1  0.4640460000000  0.3882100000000  0.4667090000000 1.0
C      1  0.6117900000000  0.4667090000000  0.5359540000000 1.0
C      1  0.3882100000000  0.4667090000000  0.4640460000000 1.0
C      1  0.6117900000000  0.5332910000000  0.4640460000000 1.0
C      1  0.6863360000000  0.5110150000000  0.6681400000000 1.0
C      1  0.5110150000000  0.6681400000000  0.6863360000000 1.0
C      1  0.6681400000000  0.6863360000000  0.5110150000000 1.0
C      1  0.3136640000000  0.4889850000000  0.6681400000000 1.0
C      1  0.6863360000000  0.4889850000000  0.3318600000000 1.0
C      1  0.3136640000000  0.5110150000000  0.3318600000000 1.0
C      1  0.4889850000000  0.3318600000000  0.6863360000000 1.0
C      1  0.5110150000000  0.3318600000000  0.3136640000000 1.0
C      1  0.4889850000000  0.6681400000000  0.3136640000000 1.0
C      1  0.3318600000000  0.3136640000000  0.5110150000000 1.0
C      1  0.6681400000000  0.3136640000000  0.4889850000000 1.0
C      1  0.3318600000000  0.6863360000000  0.4889850000000 1.0
C      1  0.5513990000000  0.4232180000000  0.7091640000000 1.0
C      1  0.4232180000000  0.7091640000000  0.5513990000000 1.0
C      1  0.7091640000000  0.5513990000000  0.4232180000000 1.0
C      1  0.4486010000000  0.5767820000000  0.7091640000000 1.0
C      1  0.5513990000000  0.5767820000000  0.2908360000000 1.0
C      1  0.4486010000000  0.4232180000000  0.2908360000000 1.0
C      1  0.5767820000000  0.2908360000000  0.5513990000000 1.0
C      1  0.4232180000000  0.2908360000000  0.4486010000000 1.0
C      1  0.5767820000000  0.7091640000000  0.4486010000000 1.0
C      1  0.2908360000000  0.4486010000000  0.4232180000000 1.0
C      1  0.7091640000000  0.4486010000000  0.5767820000000 1.0
C      1  0.2908360000000  0.5513990000000  0.5767820000000 1.0
C      1  0.7199520000000  0.6100780000000  0.5089460000000 1.0
C      1  0.6100780000000  0.5089460000000  0.7199520000000 1.0
C      1  0.5089460000000  0.7199520000000  0.6100780000000 1.0
C      1  0.2800480000000  0.3899220000000  0.5089460000000 1.0
C      1  0.7199520000000  0.3899220000000  0.4910540000000 1.0
C      1  0.2800480000000  0.6100780000000  0.4910540000000 1.0
C      1  0.3899220000000  0.4910540000000  0.7199520000000 1.0
C      1  0.6100780000000  0.4910540000000  0.2800480000000 1.0
C      1  0.3899220000000  0.5089460000000  0.2800480000000 1.0
C      1  0.4910540000000  0.2800480000000  0.6100780000000 1.0
C      1  0.5089460000000  0.2800480000000  0.3899220000000 1.0
C      1  0.4910540000000  0.7199520000000  0.3899220000000 1.0
END
