TITL C-3036485-3770-1193 1.36021981575931e-05 3375 -349.193539871616 0 0 60 (C1) n - 1
REM
REM in /home/bkarasulu/work/CARBON/AIRSS/Generating-Clusters/REBO/Higher-Symm/Only-C60
REM
REM
REM
REM
REM
REM ./C.cell (a2850807a9bf4ad07a5b6933b78d9264)
REM AIRSS Version 0.9.1 bugfix July 2018 build 013d7b7c2542+ Fri, 06 Jul 2018 19:26:36 +0100
REM compiler GCC version 9.2.1 20190827 (Red Hat 9.2.1-1)
REM options -cpp -mtune=generic -march=x86-64 -g -O0 -fpre-include=/usr/include/finclude/math-vector-fortran.h
REM seed -1827487783 70710735 -247548223 875053704 -39467422 -1997758711 -1359904714 1614775761 1415353000 768748552 1567457910 72457745 -1648912510 1058713384 -1040933546 1822924391 20101938 -1389142122 -1504973694 1210340147 -1044448098 775772127 -180435779 -1969285527 -749508937 -299390643 -1774374175 1106340574 971817668 -846366674 -318870849 -632902588 -1558964287
REM
CELL 1.54180   15.00000   15.00000   15.00000   90.00000   90.00000   90.00000
LATT -1
SFAC C  
C      1  0.3120410000000  0.6457320000000  0.4931540000000 1.0
C      1  0.3774120000000  0.5325390000000  0.4693180000000 1.0
C      1  0.6178010000000  0.6738500000000  0.6364840000000 1.0
C      1  0.3333240000000  0.5974740000000  0.3977350000000 1.0
C      1  0.4068590000000  0.6996910000000  0.5147110000000 1.0
C      1  0.6667620000000  0.3791380000000  0.5156970000000 1.0
C      1  0.7043720000000  0.5555550000000  0.5301030000000 1.0
C      1  0.4806870000000  0.6161030000000  0.6907570000000 1.0
C      1  0.6953480000000  0.6402380000000  0.5947120000000 1.0
C      1  0.5107830000000  0.5564750000000  0.5301990000000 1.0
C      1  0.5371080000000  0.3716330000000  0.3215940000000 1.0
C      1  0.4513550000000  0.6158230000000  0.4557180000000 1.0
C      1  0.6620760000000  0.4301130000000  0.6384780000000 1.0
C      1  0.7245710000000  0.4591590000000  0.5621690000000 1.0
C      1  0.2771990000000  0.4052840000000  0.5010810000000 1.0
C      1  0.5268370000000  0.4705140000000  0.6288080000000 1.0
C      1  0.4585920000000  0.4782280000000  0.4359010000000 1.0
C      1  0.2018080000000  0.4160240000000  0.6362970000000 1.0
C      1  0.4307210000000  0.4921780000000  0.3294610000000 1.0
C      1  0.5855450000000  0.2416920000000  0.4516450000000 1.0
C      1  0.6537170000000  0.3051860000000  0.4346340000000 1.0
C      1  0.8289990000000  0.5576020000000  0.4206040000000 1.0
C      1  0.5053450000000  0.3467370000000  0.6713320000000 1.0
C      1  0.2423170000000  0.4975700000000  0.6430760000000 1.0
C      1  0.4514590000000  0.6304790000000  0.5871230000000 1.0
C      1  0.5109220000000  0.6371320000000  0.3685970000000 1.0
C      1  0.5371470000000  0.5332590000000  0.3980800000000 1.0
C      1  0.3155210000000  0.4921440000000  0.5324760000000 1.0
C      1  0.6297870000000  0.5218720000000  0.4000670000000 1.0
C      1  0.2457620000000  0.3549110000000  0.5761970000000 1.0
C      1  0.7451230000000  0.5745610000000  0.4408020000000 1.0
C      1  0.5716060000000  0.5235060000000  0.2554440000000 1.0
C      1  0.5544110000000  0.7131120000000  0.4261500000000 1.0
C      1  0.6791390000000  0.6169720000000  0.3719030000000 1.0
C      1  0.2841890000000  0.5876550000000  0.5865040000000 1.0
C      1  0.5794690000000  0.4172930000000  0.7143000000000 1.0
C      1  0.4943540000000  0.4427760000000  0.5272770000000 1.0
C      1  0.5873670000000  0.3575540000000  0.5934300000000 1.0
C      1  0.5111130000000  0.7320390000000  0.5067870000000 1.0
C      1  0.6450460000000  0.7106020000000  0.4092230000000 1.0
C      1  0.5756630000000  0.6128270000000  0.6966790000000 1.0
C      1  0.4888210000000  0.3376720000000  0.5400390000000 1.0
C      1  0.3117690000000  0.2933240000000  0.6083530000000 1.0
C      1  0.5001770000000  0.2826740000000  0.4563100000000 1.0
C      1  0.3573660000000  0.5542170000000  0.3154930000000 1.0
C      1  0.3082580000000  0.3713870000000  0.4204890000000 1.0
C      1  0.3542420000000  0.4884270000000  0.6386610000000 1.0
C      1  0.6073560000000  0.5403610000000  0.5873360000000 1.0
C      1  0.3757590000000  0.5919650000000  0.6546790000000 1.0
C      1  0.5933130000000  0.6010880000000  0.2993600000000 1.0
C      1  0.4261700000000  0.4262030000000  0.6496300000000 1.0
C      1  0.6267570000000  0.5199430000000  0.6989790000000 1.0
C      1  0.4099540000000  0.3189850000000  0.6163040000000 1.0
C      1  0.6606490000000  0.4360560000000  0.4178020000000 1.0
C      1  0.3784180000000  0.3449720000000  0.3708420000000 1.0
C      1  0.3213000000000  0.5729480000000  0.2348100000000 1.0
C      1  0.6290680000000  0.3635510000000  0.3526190000000 1.0
C      1  0.5086100000000  0.4565560000000  0.2829740000000 1.0
C      1  0.4699050000000  0.3243910000000  0.3747140000000 1.0
C      1  0.5624500000000  0.7320460000000  0.5858950000000 1.0
END
