TITL C-3036484-3770-1020 0.000620044279378242 3375 -343.236840093402 0 0 60 (C1) n - 1
REM
REM in /home/bkarasulu/work/CARBON/AIRSS/Generating-Clusters/REBO/Higher-Symm/Only-C60
REM
REM
REM
REM
REM
REM ./C.cell (a2850807a9bf4ad07a5b6933b78d9264)
REM AIRSS Version 0.9.1 bugfix July 2018 build 013d7b7c2542+ Fri, 06 Jul 2018 19:26:36 +0100
REM compiler GCC version 9.2.1 20190827 (Red Hat 9.2.1-1)
REM options -cpp -mtune=generic -march=x86-64 -g -O0 -fpre-include=/usr/include/finclude/math-vector-fortran.h
REM seed 482731801 -733209767 710228961 452608076 1015087239 1245093683 839177333 -767767873 281296093 377916267 -1066791771 -886851533 -1454746129 1543525224 -1609007238 742013125 894495627 -1437639482 -582494568 1388246810 -1189769418 1456633319 -820911230 1389668587 -158342726 -1803202950 463622474 -460091612 -1920960713 -754923542 1013708355 -1126251602 -1949515591
REM
CELL 1.54180   15.00000   15.00000   15.00000   90.00000   90.00000   90.00000
LATT -1
SFAC C  
C      1  0.5695740000000  0.4309220000000  0.3903870000000 1.0
C      1  0.4375750000000  0.4319080000000  0.6077690000000 1.0
C      1  0.4392830000000  0.3374680000000  0.7006670000000 1.0
C      1  0.5644900000000  0.3319170000000  0.3024600000000 1.0
C      1  0.3547540000000  0.3673050000000  0.6578400000000 1.0
C      1  0.6498630000000  0.3628030000000  0.3441910000000 1.0
C      1  0.6023020000000  0.6552070000000  0.5003890000000 1.0
C      1  0.3987150000000  0.6628930000000  0.5237110000000 1.0
C      1  0.5416550000000  0.5685510000000  0.5059190000000 1.0
C      1  0.4401460000000  0.5771730000000  0.4792160000000 1.0
C      1  0.4578440000000  0.3331800000000  0.4688290000000 1.0
C      1  0.5334550000000  0.3220930000000  0.5265340000000 1.0
C      1  0.4216390000000  0.5820800000000  0.3750040000000 1.0
C      1  0.5656540000000  0.5946920000000  0.6128820000000 1.0
C      1  0.2746590000000  0.3975790000000  0.6200110000000 1.0
C      1  0.7294180000000  0.3952210000000  0.3832630000000 1.0
C      1  0.5637540000000  0.4675880000000  0.4863940000000 1.0
C      1  0.4536170000000  0.4697700000000  0.5141270000000 1.0
C      1  0.3300760000000  0.5377880000000  0.4158430000000 1.0
C      1  0.6506870000000  0.5458110000000  0.5787810000000 1.0
C      1  0.3791600000000  0.6739440000000  0.6825320000000 1.0
C      1  0.6106750000000  0.6659300000000  0.3178820000000 1.0
C      1  0.7236800000000  0.5005480000000  0.5045150000000 1.0
C      1  0.2619640000000  0.5004200000000  0.4964520000000 1.0
C      1  0.2889660000000  0.6061340000000  0.6751180000000 1.0
C      1  0.7040130000000  0.6026600000000  0.3296530000000 1.0
C      1  0.3445820000000  0.6159080000000  0.7741920000000 1.0
C      1  0.6544200000000  0.6125000000000  0.2273520000000 1.0
C      1  0.4803110000000  0.4012830000000  0.7709790000000 1.0
C      1  0.5295800000000  0.3911730000000  0.2243650000000 1.0
C      1  0.4465900000000  0.5691230000000  0.2659190000000 1.0
C      1  0.5500130000000  0.5902640000000  0.7241540000000 1.0
C      1  0.6815600000000  0.5094380000000  0.2669520000000 1.0
C      1  0.3210830000000  0.5123210000000  0.7336000000000 1.0
C      1  0.2496120000000  0.4811980000000  0.6588540000000 1.0
C      1  0.7523140000000  0.4804120000000  0.3445350000000 1.0
C      1  0.4405460000000  0.5704700000000  0.7390930000000 1.0
C      1  0.5590610000000  0.5604650000000  0.2556860000000 1.0
C      1  0.4595620000000  0.7290460000000  0.5342790000000 1.0
C      1  0.5509650000000  0.7291460000000  0.5170340000000 1.0
C      1  0.5131060000000  0.6314910000000  0.3332870000000 1.0
C      1  0.4755410000000  0.6432190000000  0.6569480000000 1.0
C      1  0.5746310000000  0.4131140000000  0.7541730000000 1.0
C      1  0.4352460000000  0.4087430000000  0.2334320000000 1.0
C      1  0.3951710000000  0.4516320000000  0.4178440000000 1.0
C      1  0.6289940000000  0.4397960000000  0.5755310000000 1.0
C      1  0.3120450000000  0.6042420000000  0.5037900000000 1.0
C      1  0.7010650000000  0.6134230000000  0.5035280000000 1.0
C      1  0.3654810000000  0.3736400000000  0.4879210000000 1.0
C      1  0.6270330000000  0.3528740000000  0.5083970000000 1.0
C      1  0.4106230000000  0.4090180000000  0.3215970000000 1.0
C      1  0.5951170000000  0.3993520000000  0.6654900000000 1.0
C      1  0.5130470000000  0.3495860000000  0.6215610000000 1.0
C      1  0.4861460000000  0.3599150000000  0.3772450000000 1.0
C      1  0.5866230000000  0.4618580000000  0.2826330000000 1.0
C      1  0.4192190000000  0.4693620000000  0.7132580000000 1.0
C      1  0.2483870000000  0.5677300000000  0.5867630000000 1.0
C      1  0.7490290000000  0.5671600000000  0.4161560000000 1.0
C      1  0.7114550000000  0.4040940000000  0.4772800000000 1.0
C      1  0.2842240000000  0.4054200000000  0.5258070000000 1.0
END
