TITL C-3036484-3770-1160 3.15944827101812e-06 3375 -384.443702285431 0 0 60 (D5d) n - 1
REM
REM in /home/bkarasulu/work/CARBON/AIRSS/Generating-Clusters/REBO/Higher-Symm/Only-C60
REM
REM
REM
REM
REM
REM ./C.cell (a2850807a9bf4ad07a5b6933b78d9264)
REM AIRSS Version 0.9.1 bugfix July 2018 build 013d7b7c2542+ Fri, 06 Jul 2018 19:26:36 +0100
REM compiler GCC version 9.2.1 20190827 (Red Hat 9.2.1-1)
REM options -cpp -mtune=generic -march=x86-64 -g -O0 -fpre-include=/usr/include/finclude/math-vector-fortran.h
REM seed 1911582793 -824869989 -1437422435 -1163693747 1554539829 1605020091 -1131864291 -1076348904 1989056300 597947126 -1651927496 1835557518 -345150760 1065555849 305402851 -1206464292 -464040147 291272285 -810685601 -1790225409 2125971691 141560939 -1205569856 1563441007 -2012414071 2060657428 584433398 -409516398 1490335208 -376261523 1573017913 -150175169 467145629
REM
CELL 1.54180   15.00000   15.00000   15.00000   90.00000   90.00000   90.00000
LATT -1
SFAC C  
C      1  0.5967380000000  0.3018560000000  0.6345530000000 1.0
C      1  0.4032610000000  0.2606100000000  0.4923900000000 1.0
C      1  0.5967380000000  0.3108030000000  0.3531330000000 1.0
C      1  0.4032620000000  0.4332630000000  0.2699750000000 1.0
C      1  0.5967380000000  0.5812130000000  0.2746790000000 1.0
C      1  0.4032620000000  0.6981440000000  0.3654470000000 1.0
C      1  0.5967390000000  0.7393900000000  0.5076100000000 1.0
C      1  0.4032620000000  0.6891970000000  0.6468670000000 1.0
C      1  0.5967380000000  0.5667370000000  0.7300250000000 1.0
C      1  0.4032620000000  0.4187870000000  0.7253210000000 1.0
C      1  0.4380600000000  0.2550820000000  0.5801590000000 1.0
C      1  0.5619390000000  0.2547410000000  0.4208910000000 1.0
C      1  0.4380600000000  0.3480810000000  0.2918390000000 1.0
C      1  0.5619400000000  0.4994480000000  0.2422990000000 1.0
C      1  0.4380610000000  0.6510270000000  0.2911910000000 1.0
C      1  0.5619400000000  0.7449180000000  0.4198410000000 1.0
C      1  0.4380610000000  0.7452590000000  0.5791090000000 1.0
C      1  0.5619400000000  0.6519190000000  0.7081610000000 1.0
C      1  0.4380600000000  0.5005520000000  0.7577010000000 1.0
C      1  0.5619390000000  0.3489730000000  0.7088090000000 1.0
C      1  0.4032620000000  0.5657520000000  0.2696910000000 1.0
C      1  0.5967380000000  0.6885660000000  0.3523240000000 1.0
C      1  0.4032620000000  0.7393550000000  0.4913650000000 1.0
C      1  0.5967380000000  0.6987180000000  0.6337030000000 1.0
C      1  0.4032620000000  0.5821780000000  0.7249720000000 1.0
C      1  0.5967380000000  0.4342480000000  0.7303090000000 1.0
C      1  0.4032620000000  0.3114340000000  0.6476760000000 1.0
C      1  0.5967380000000  0.2606450000000  0.5086350000000 1.0
C      1  0.4032620000000  0.3012820000000  0.3662970000000 1.0
C      1  0.5967380000000  0.4178220000000  0.2750280000000 1.0
C      1  0.6858070000000  0.4508160000000  0.4326080000000 1.0
C      1  0.3141930000000  0.4998220000000  0.4165690000000 1.0
C      1  0.6858070000000  0.5488940000000  0.4323980000000 1.0
C      1  0.3141930000000  0.5792920000000  0.4740490000000 1.0
C      1  0.6858070000000  0.5794020000000  0.5256120000000 1.0
C      1  0.3141930000000  0.5491840000000  0.5673920000000 1.0
C      1  0.6858070000000  0.5001780000000  0.5834310000000 1.0
C      1  0.3141930000000  0.4511060000000  0.5676020000000 1.0
C      1  0.6858070000000  0.4207080000000  0.5259510000000 1.0
C      1  0.3141930000000  0.4205980000000  0.4743880000000 1.0
C      1  0.4679800000000  0.7652130000000  0.4131990000000 1.0
C      1  0.5320210000000  0.7655820000000  0.5856650000000 1.0
C      1  0.4679800000000  0.6645080000000  0.7254100000000 1.0
C      1  0.5320210000000  0.5005970000000  0.7790560000000 1.0
C      1  0.4679790000000  0.3364580000000  0.7261120000000 1.0
C      1  0.5320200000000  0.2347870000000  0.5868010000000 1.0
C      1  0.4679790000000  0.2344180000000  0.4143350000000 1.0
C      1  0.5320200000000  0.3354920000000  0.2745900000000 1.0
C      1  0.4679790000000  0.4994030000000  0.2209440000000 1.0
C      1  0.5320210000000  0.6635420000000  0.2738880000000 1.0
C      1  0.3456080000000  0.6013340000000  0.6388480000000 1.0
C      1  0.6543920000000  0.5003680000000  0.6718930000000 1.0
C      1  0.3456070000000  0.3992620000000  0.6392800000000 1.0
C      1  0.6543920000000  0.3366340000000  0.5534680000000 1.0
C      1  0.3456070000000  0.3364070000000  0.4472320000000 1.0
C      1  0.6543920000000  0.3986660000000  0.3611520000000 1.0
C      1  0.3456080000000  0.4996320000000  0.3281070000000 1.0
C      1  0.6543930000000  0.6007380000000  0.3607200000000 1.0
C      1  0.3456080000000  0.6633660000000  0.4465320000000 1.0
C      1  0.6543930000000  0.6635930000000  0.5527680000000 1.0
END
