TITL C-3036486-2224-567 -3.07026374116815e-06 3375 -345.165219774047 0 0 60 (C1) n - 1
REM
REM in /home/bkarasulu/work/CARBON/AIRSS/Generating-Clusters/REBO/Higher-Symm/Only-C60
REM
REM
REM
REM
REM
REM ./C.cell (a2850807a9bf4ad07a5b6933b78d9264)
REM AIRSS Version 0.9.1 bugfix July 2018 build 013d7b7c2542+ Fri, 06 Jul 2018 19:26:36 +0100
REM compiler GCC version 9.2.1 20190827 (Red Hat 9.2.1-1)
REM options -cpp -mtune=generic -march=x86-64 -g -O0 -fpre-include=/usr/include/finclude/math-vector-fortran.h
REM seed 991083890 -970502458 -1642954228 -1255951326 -130045747 -2092982925 502921106 -2032066641 1604812783 -1416622229 523957908 1246614403 1264722151 -1841296771 -974706294 -1951200603 -1438215206 400690464 715822043 2145843515 -1351006494 1996254438 1814138123 149293074 58525343 -2111778755 1208629876 1712656881 757447649 1774208472 164952304 860411252 -185602394
REM
CELL 1.54180   15.00000   15.00000   15.00000   90.00000   90.00000   90.00000
LATT -1
SFAC C  
C      1  0.5620100000000  0.4991460000000  0.3183410000000 1.0
C      1  0.3636530000000  0.2832830000000  0.4785760000000 1.0
C      1  0.6376950000000  0.6589380000000  0.3669280000000 1.0
C      1  0.5674210000000  0.3377390000000  0.3992880000000 1.0
C      1  0.4452740000000  0.4168530000000  0.7109840000000 1.0
C      1  0.6247090000000  0.7098800000000  0.5500780000000 1.0
C      1  0.3349640000000  0.6318510000000  0.5102620000000 1.0
C      1  0.5851930000000  0.6169930000000  0.6808880000000 1.0
C      1  0.3490570000000  0.6581770000000  0.3308040000000 1.0
C      1  0.6523170000000  0.5041950000000  0.5122450000000 1.0
C      1  0.4593080000000  0.3507910000000  0.3621260000000 1.0
C      1  0.3784340000000  0.4971760000000  0.5390480000000 1.0
C      1  0.5791160000000  0.6758890000000  0.4530330000000 1.0
C      1  0.4251540000000  0.4810080000000  0.4409420000000 1.0
C      1  0.6045560000000  0.4121950000000  0.4763760000000 1.0
C      1  0.6917160000000  0.6312430000000  0.5084460000000 1.0
C      1  0.4997010000000  0.3013230000000  0.6032370000000 1.0
C      1  0.6339390000000  0.4454280000000  0.7510610000000 1.0
C      1  0.2941390000000  0.5316650000000  0.2334000000000 1.0
C      1  0.2964040000000  0.6156750000000  0.2680700000000 1.0
C      1  0.3858000000000  0.4572450000000  0.6372700000000 1.0
C      1  0.5335480000000  0.4694020000000  0.7274550000000 1.0
C      1  0.3407080000000  0.5830100000000  0.6335740000000 1.0
C      1  0.7320960000000  0.6336120000000  0.4044460000000 1.0
C      1  0.4618700000000  0.5252690000000  0.3572800000000 1.0
C      1  0.4783930000000  0.6775910000000  0.4406670000000 1.0
C      1  0.7748550000000  0.4529740000000  0.5196010000000 1.0
C      1  0.5902940000000  0.6987300000000  0.6331590000000 1.0
C      1  0.3198750000000  0.4400550000000  0.4341510000000 1.0
C      1  0.2655660000000  0.5620680000000  0.5510020000000 1.0
C      1  0.4339810000000  0.6167950000000  0.5204630000000 1.0
C      1  0.2573820000000  0.5134780000000  0.4486140000000 1.0
C      1  0.7074650000000  0.4260310000000  0.7197820000000 1.0
C      1  0.4523600000000  0.3052940000000  0.4575440000000 1.0
C      1  0.2769590000000  0.4497970000000  0.5627410000000 1.0
C      1  0.6908560000000  0.3808040000000  0.5434830000000 1.0
C      1  0.4909010000000  0.4085670000000  0.4803980000000 1.0
C      1  0.3084360000000  0.3561630000000  0.5055300000000 1.0
C      1  0.6054720000000  0.3395460000000  0.5876400000000 1.0
C      1  0.5444810000000  0.6620330000000  0.3019510000000 1.0
C      1  0.7482390000000  0.5409330000000  0.4677360000000 1.0
C      1  0.5525960000000  0.4199360000000  0.6330560000000 1.0
C      1  0.7592420000000  0.4171150000000  0.6263570000000 1.0
C      1  0.6882260000000  0.4986040000000  0.6096710000000 1.0
C      1  0.6602690000000  0.5604090000000  0.6683310000000 1.0
C      1  0.4274820000000  0.3327520000000  0.6530110000000 1.0
C      1  0.4993520000000  0.5577660000000  0.5515980000000 1.0
C      1  0.3654920000000  0.6821130000000  0.4276530000000 1.0
C      1  0.4535730000000  0.6283180000000  0.3447040000000 1.0
C      1  0.3690280000000  0.4069220000000  0.3454680000000 1.0
C      1  0.4487460000000  0.4492810000000  0.2741820000000 1.0
C      1  0.3408400000000  0.4575000000000  0.2494070000000 1.0
C      1  0.6087170000000  0.5770030000000  0.2965810000000 1.0
C      1  0.4195000000000  0.5840860000000  0.6776710000000 1.0
C      1  0.5515140000000  0.2920630000000  0.5023770000000 1.0
C      1  0.5084930000000  0.5682500000000  0.7069920000000 1.0
C      1  0.5874960000000  0.5865510000000  0.5183300000000 1.0
C      1  0.5036760000000  0.4648760000000  0.5666740000000 1.0
C      1  0.3269170000000  0.3626510000000  0.6151590000000 1.0
C      1  0.5445450000000  0.3949590000000  0.3041580000000 1.0
END
