TITL C-3036485-3770-750 0.287185731255677 3375 -368.342748881797 0 0 60 (C2v) n - 1
REM
REM in /home/bkarasulu/work/CARBON/AIRSS/Generating-Clusters/REBO/Higher-Symm/Only-C60
REM
REM
REM
REM
REM
REM ./C.cell (a2850807a9bf4ad07a5b6933b78d9264)
REM AIRSS Version 0.9.1 bugfix July 2018 build 013d7b7c2542+ Fri, 06 Jul 2018 19:26:36 +0100
REM compiler GCC version 9.2.1 20190827 (Red Hat 9.2.1-1)
REM options -cpp -mtune=generic -march=x86-64 -g -O0 -fpre-include=/usr/include/finclude/math-vector-fortran.h
REM seed -491379285 1446805352 -116628030 392227829 1072636601 -1019497151 -1444180327 563351600 -346626086 216822446 -270847043 -479046294 1157853840 111097210 628319715 -2109711613 1091100049 -1650141780 647492557 -361728155 552571470 2027237276 1174792677 -2082897012 595963470 -794898506 -1238434084 -44910276 390518687 -1648681593 410511525 154899613 660536804
REM
CELL 1.54180   15.00000   15.00000   15.00000   90.00000   90.00000   90.00000
LATT -1
SFAC C  
C      1  0.4491710000000  0.5886180000000  0.2291430000000 1.0
C      1  0.2398370000000  0.5692590000000  0.4127800000000 1.0
C      1  0.2982310000000  0.5828070000000  0.6674040000000 1.0
C      1  0.5508010000000  0.5886280000000  0.7708230000000 1.0
C      1  0.7601700000000  0.5692480000000  0.5872210000000 1.0
C      1  0.7017730000000  0.5828100000000  0.3325980000000 1.0
C      1  0.5507900000000  0.5886320000000  0.2291790000000 1.0
C      1  0.7601670000000  0.5692620000000  0.4127800000000 1.0
C      1  0.7017740000000  0.5828040000000  0.6674000000000 1.0
C      1  0.4491800000000  0.5886190000000  0.7708490000000 1.0
C      1  0.2398500000000  0.5692730000000  0.5872150000000 1.0
C      1  0.2982290000000  0.5828010000000  0.3326070000000 1.0
C      1  0.6320760000000  0.6526420000000  0.6396110000000 1.0
C      1  0.6905180000000  0.6396650000000  0.4516670000000 1.0
C      1  0.5537300000000  0.6558490000000  0.3094120000000 1.0
C      1  0.3679330000000  0.6526360000000  0.3603850000000 1.0
C      1  0.3094840000000  0.6396510000000  0.5483230000000 1.0
C      1  0.4462810000000  0.6558370000000  0.6906010000000 1.0
C      1  0.3679300000000  0.6526370000000  0.6396120000000 1.0
C      1  0.3094780000000  0.6396460000000  0.4516740000000 1.0
C      1  0.4462870000000  0.6558370000000  0.3093910000000 1.0
C      1  0.6320780000000  0.6526430000000  0.3603890000000 1.0
C      1  0.6905160000000  0.6396640000000  0.5483310000000 1.0
C      1  0.5537230000000  0.6558440000000  0.6905900000000 1.0
C      1  0.3987060000000  0.5078000000000  0.2286700000000 1.0
C      1  0.2220370000000  0.4852470000000  0.4525940000000 1.0
C      1  0.3169460000000  0.5067830000000  0.7224850000000 1.0
C      1  0.6012660000000  0.5077900000000  0.7713050000000 1.0
C      1  0.7779630000000  0.4852170000000  0.5473950000000 1.0
C      1  0.6830430000000  0.5067710000000  0.2775160000000 1.0
C      1  0.6012620000000  0.5077920000000  0.2286920000000 1.0
C      1  0.7779800000000  0.4852260000000  0.4526260000000 1.0
C      1  0.6830380000000  0.5067730000000  0.7224780000000 1.0
C      1  0.3987070000000  0.5078000000000  0.7713320000000 1.0
C      1  0.2220270000000  0.4852520000000  0.5473940000000 1.0
C      1  0.3169520000000  0.5067950000000  0.2775220000000 1.0
C      1  0.7084070000000  0.4211680000000  0.3128990000000 1.0
C      1  0.4492870000000  0.4269620000000  0.2319210000000 1.0
C      1  0.2550250000000  0.4082750000000  0.4070690000000 1.0
C      1  0.2915890000000  0.4211840000000  0.6871020000000 1.0
C      1  0.5506710000000  0.4269400000000  0.7680390000000 1.0
C      1  0.7449610000000  0.4083010000000  0.5929320000000 1.0
C      1  0.2915910000000  0.4211860000000  0.3128880000000 1.0
C      1  0.5506710000000  0.4269430000000  0.2319690000000 1.0
C      1  0.7449230000000  0.4082620000000  0.4070340000000 1.0
C      1  0.7083960000000  0.4211740000000  0.6871090000000 1.0
C      1  0.4492840000000  0.4269710000000  0.7680800000000 1.0
C      1  0.2550310000000  0.4082640000000  0.5929350000000 1.0
C      1  0.3644240000000  0.3537840000000  0.3556100000000 1.0
C      1  0.3214010000000  0.3426780000000  0.5468050000000 1.0
C      1  0.4473190000000  0.3584920000000  0.6888330000000 1.0
C      1  0.6355830000000  0.3537840000000  0.6443850000000 1.0
C      1  0.6786210000000  0.3426730000000  0.4532070000000 1.0
C      1  0.5527320000000  0.3584960000000  0.3112000000000 1.0
C      1  0.6356550000000  0.3538020000000  0.3556440000000 1.0
C      1  0.6786170000000  0.3426630000000  0.5468020000000 1.0
C      1  0.5527780000000  0.3585030000000  0.6887790000000 1.0
C      1  0.3644080000000  0.3537790000000  0.6443850000000 1.0
C      1  0.3214060000000  0.3426570000000  0.4532090000000 1.0
C      1  0.4472890000000  0.3585020000000  0.3111710000000 1.0
END
