TITL C-3036480-97-602 0.0224050998624313 3375 -319.089431414832 0 0 60 (C3) n - 1
REM
REM in /home/bkarasulu/work/CARBON/AIRSS/Generating-Clusters/REBO/Higher-Symm/Only-C60
REM
REM
REM
REM
REM
REM ./C.cell (a2850807a9bf4ad07a5b6933b78d9264)
REM AIRSS Version 0.9.1 bugfix July 2018 build 013d7b7c2542+ Fri, 06 Jul 2018 19:26:36 +0100
REM compiler GCC version 9.2.1 20190827 (Red Hat 9.2.1-1)
REM options -cpp -mtune=generic -march=x86-64 -g -O0 -fpre-include=/usr/include/finclude/math-vector-fortran.h
REM seed 107266435 -728757529 1336623876 420249865 -1743382431 1380010711 -2117056760 1440034037 -1301987224 -778086224 2096567398 -1999304491 -2016755394 -79606430 1593793063 470338508 -182987381 1985912173 -1496301640 1331915089 -2143405850 1931301136 1422366163 29197778 1980196055 271297136 -908452983 1690540850 -1482529636 1567819561 1669516364 -1886883509 -170440986
REM
CELL 1.54180   15.00000   15.00000   15.00000   90.00000   90.00000   90.00000
LATT -1
SFAC C  
C      1  0.6599770000000  0.5371460000000  0.5598700000000 1.0
C      1  0.4521710000000  0.3428670000000  0.5598540000000 1.0
C      1  0.3878250000000  0.6199750000000  0.5598480000000 1.0
C      1  0.7272630000000  0.5708970000000  0.4806340000000 1.0
C      1  0.4477820000000  0.2677400000000  0.4806370000000 1.0
C      1  0.3249590000000  0.6613600000000  0.4805980000000 1.0
C      1  0.3613220000000  0.4328240000000  0.4339180000000 1.0
C      1  0.5111440000000  0.6536970000000  0.4339540000000 1.0
C      1  0.6275210000000  0.4134940000000  0.4339210000000 1.0
C      1  0.4891550000000  0.6286970000000  0.6456280000000 1.0
C      1  0.6168640000000  0.4450180000000  0.6456180000000 1.0
C      1  0.3939530000000  0.4262810000000  0.6456350000000 1.0
C      1  0.4922790000000  0.5765650000000  0.5533580000000 1.0
C      1  0.5701660000000  0.4683940000000  0.5533820000000 1.0
C      1  0.4375770000000  0.4550270000000  0.5533410000000 1.0
C      1  0.7276350000000  0.3272730000000  0.4437910000000 1.0
C      1  0.2365900000000  0.3892080000000  0.4438160000000 1.0
C      1  0.5357580000000  0.7835310000000  0.4438110000000 1.0
C      1  0.3378210000000  0.5639300000000  0.6990250000000 1.0
C      1  0.6364480000000  0.6084420000000  0.6990570000000 1.0
C      1  0.5257250000000  0.3276280000000  0.6990390000000 1.0
C      1  0.4056600000000  0.6297340000000  0.7157680000000 1.0
C      1  0.6595140000000  0.5167900000000  0.7157890000000 1.0
C      1  0.4348210000000  0.3534720000000  0.7158060000000 1.0
C      1  0.4654950000000  0.7794180000000  0.4876130000000 1.0
C      1  0.7592220000000  0.3901700000000  0.4876190000000 1.0
C      1  0.2752890000000  0.3304170000000  0.4876350000000 1.0
C      1  0.3280240000000  0.5138160000000  0.5064900000000 1.0
C      1  0.5979590000000  0.6420260000000  0.5065040000000 1.0
C      1  0.5740240000000  0.3441360000000  0.5065050000000 1.0
C      1  0.6018440000000  0.7085800000000  0.3924520000000 1.0
C      1  0.6297130000000  0.3075090000000  0.3924280000000 1.0
C      1  0.2684380000000  0.4839170000000  0.3924150000000 1.0
C      1  0.4310780000000  0.5333040000000  0.4702090000000 1.0
C      1  0.5633060000000  0.5430450000000  0.4702130000000 1.0
C      1  0.5056230000000  0.4236390000000  0.4702210000000 1.0
C      1  0.4228760000000  0.7139130000000  0.6460300000000 1.0
C      1  0.7238010000000  0.4598040000000  0.6460620000000 1.0
C      1  0.3533250000000  0.3262780000000  0.6460460000000 1.0
C      1  0.5606270000000  0.6422330000000  0.3114280000000 1.0
C      1  0.5928560000000  0.3763790000000  0.3113930000000 1.0
C      1  0.3465060000000  0.4814100000000  0.3114040000000 1.0
C      1  0.4269330000000  0.3011410000000  0.3535110000000 1.0
C      1  0.3643670000000  0.6627350000000  0.3534780000000 1.0
C      1  0.7087470000000  0.5361370000000  0.3534950000000 1.0
C      1  0.3908140000000  0.7310470000000  0.5426120000000 1.0
C      1  0.7546840000000  0.4790070000000  0.5426260000000 1.0
C      1  0.3544970000000  0.2899360000000  0.5426460000000 1.0
C      1  0.3268150000000  0.5480570000000  0.6098280000000 1.0
C      1  0.6282050000000  0.6259290000000  0.6098680000000 1.0
C      1  0.5449740000000  0.3260220000000  0.6098470000000 1.0
C      1  0.4354340000000  0.5117390000000  0.3248400000000 1.0
C      1  0.5424480000000  0.5500590000000  0.3248450000000 1.0
C      1  0.5221170000000  0.4382250000000  0.3248330000000 1.0
C      1  0.4367260000000  0.5999710000000  0.3888140000000 1.0
C      1  0.6182020000000  0.5048130000000  0.3888200000000 1.0
C      1  0.4450670000000  0.3952200000000  0.3888050000000 1.0
C      1  0.5322410000000  0.2665960000000  0.4341190000000 1.0
C      1  0.2817840000000  0.5887790000000  0.4341010000000 1.0
C      1  0.6860060000000  0.6446050000000  0.4341460000000 1.0
END
