TITL C-3036483-1610-90 -8.27312065286879e-06 3375 -356.754662591443 0 0 60 (S4) n - 1
REM
REM in /home/bkarasulu/work/CARBON/AIRSS/Generating-Clusters/REBO/Higher-Symm/Only-C60
REM
REM
REM
REM
REM
REM ./C.cell (a2850807a9bf4ad07a5b6933b78d9264)
REM AIRSS Version 0.9.1 bugfix July 2018 build 013d7b7c2542+ Fri, 06 Jul 2018 19:26:36 +0100
REM compiler GCC version 9.2.1 20190827 (Red Hat 9.2.1-1)
REM options -cpp -mtune=generic -march=x86-64 -g -O0 -fpre-include=/usr/include/finclude/math-vector-fortran.h
REM seed -537324710 -2053463320 1615338699 -1410507691 -1605999874 338027129 1667754508 -2062562984 -1777772227 1439904574 416454260 -128581733 1375910084 -1915420623 1339084956 1434852415 793384080 -1492832123 1007993334 -167892312 1985517567 1187581807 937609303 -1679392349 -2063348550 1966253259 510182207 -1441121073 -585880132 -749859898 -176510658 -1944221653 547061917
REM
CELL 1.54180   15.00000   15.00000   15.00000   90.00000   90.00000   90.00000
LATT -1
SFAC C  
C      1  0.4000630000000  0.4205570000000  0.3187580000000 1.0
C      1  0.3187580000000  0.5794430000000  0.5999370000000 1.0
C      1  0.5999370000000  0.4205570000000  0.6812420000000 1.0
C      1  0.6812420000000  0.5794430000000  0.4000630000000 1.0
C      1  0.4348160000000  0.5921590000000  0.5091010000000 1.0
C      1  0.5091010000000  0.4078410000000  0.5651840000000 1.0
C      1  0.5651840000000  0.5921590000000  0.4908990000000 1.0
C      1  0.4908990000000  0.4078410000000  0.4348160000000 1.0
C      1  0.6816680000000  0.3946070000000  0.6328170000000 1.0
C      1  0.6328170000000  0.6053930000000  0.3183320000000 1.0
C      1  0.3183320000000  0.3946070000000  0.3671830000000 1.0
C      1  0.3671830000000  0.6053930000000  0.6816680000000 1.0
C      1  0.7094200000000  0.4622810000000  0.5662390000000 1.0
C      1  0.5662390000000  0.5377190000000  0.2905800000000 1.0
C      1  0.2905800000000  0.4622810000000  0.4337610000000 1.0
C      1  0.4337610000000  0.5377190000000  0.7094200000000 1.0
C      1  0.4219060000000  0.6911750000000  0.6803070000000 1.0
C      1  0.6803070000000  0.3088250000000  0.5780940000000 1.0
C      1  0.5780940000000  0.6911750000000  0.3196930000000 1.0
C      1  0.3196930000000  0.3088250000000  0.4219060000000 1.0
C      1  0.6552180000000  0.4823920000000  0.4193450000000 1.0
C      1  0.4193450000000  0.5176080000000  0.3447820000000 1.0
C      1  0.3447820000000  0.4823920000000  0.5806550000000 1.0
C      1  0.5806550000000  0.5176080000000  0.6552180000000 1.0
C      1  0.6927960000000  0.3297670000000  0.4805270000000 1.0
C      1  0.4805270000000  0.6702330000000  0.3072040000000 1.0
C      1  0.3072040000000  0.3297670000000  0.5194730000000 1.0
C      1  0.5194730000000  0.6702330000000  0.6927960000000 1.0
C      1  0.3658630000000  0.5346800000000  0.4405440000000 1.0
C      1  0.4405440000000  0.4653200000000  0.6341370000000 1.0
C      1  0.6341370000000  0.5346800000000  0.5594560000000 1.0
C      1  0.5594560000000  0.4653200000000  0.3658630000000 1.0
C      1  0.5745480000000  0.4594940000000  0.4964230000000 1.0
C      1  0.4964230000000  0.5405060000000  0.4254520000000 1.0
C      1  0.4254520000000  0.4594940000000  0.5035770000000 1.0
C      1  0.5035770000000  0.5405060000000  0.5745480000000 1.0
C      1  0.5447990000000  0.2910740000000  0.5032950000000 1.0
C      1  0.5032950000000  0.7089260000000  0.4552010000000 1.0
C      1  0.4552010000000  0.2910740000000  0.4967050000000 1.0
C      1  0.4967050000000  0.7089260000000  0.5447990000000 1.0
C      1  0.4775770000000  0.5763890000000  0.2827740000000 1.0
C      1  0.2827740000000  0.4236110000000  0.5224230000000 1.0
C      1  0.5224230000000  0.5763890000000  0.7172260000000 1.0
C      1  0.7172260000000  0.4236110000000  0.4775770000000 1.0
C      1  0.3157410000000  0.6487490000000  0.5196110000000 1.0
C      1  0.5196110000000  0.3512510000000  0.6842590000000 1.0
C      1  0.6842590000000  0.6487490000000  0.4803890000000 1.0
C      1  0.4803890000000  0.3512510000000  0.3157410000000 1.0
C      1  0.4033900000000  0.6791120000000  0.5766570000000 1.0
C      1  0.5766570000000  0.3208880000000  0.5966100000000 1.0
C      1  0.5966100000000  0.6791120000000  0.4233430000000 1.0
C      1  0.4233430000000  0.3208880000000  0.4033900000000 1.0
C      1  0.5674290000000  0.6919610000000  0.6086020000000 1.0
C      1  0.6086020000000  0.3080390000000  0.4325710000000 1.0
C      1  0.4325710000000  0.6919610000000  0.3913980000000 1.0
C      1  0.3913980000000  0.3080390000000  0.5674290000000 1.0
C      1  0.4282970000000  0.3310580000000  0.6544240000000 1.0
C      1  0.6544240000000  0.6689420000000  0.5717030000000 1.0
C      1  0.5717030000000  0.3310580000000  0.3455760000000 1.0
C      1  0.3455760000000  0.6689420000000  0.4282970000000 1.0
END
