TITL C-3036485-3770-360 0.00335993221407608 3375 -345.100813043582 0 0 60 (C1) n - 1
REM
REM in /home/bkarasulu/work/CARBON/AIRSS/Generating-Clusters/REBO/Higher-Symm/Only-C60
REM
REM
REM
REM
REM
REM ./C.cell (a2850807a9bf4ad07a5b6933b78d9264)
REM AIRSS Version 0.9.1 bugfix July 2018 build 013d7b7c2542+ Fri, 06 Jul 2018 19:26:36 +0100
REM compiler GCC version 9.2.1 20190827 (Red Hat 9.2.1-1)
REM options -cpp -mtune=generic -march=x86-64 -g -O0 -fpre-include=/usr/include/finclude/math-vector-fortran.h
REM seed -1224068866 1072269166 208237218 -535319341 1522507045 -2013614153 1156966961 -1788203294 1915569761 1651685701 715501520 -1553694705 1018201762 -1586027208 -845930578 1643277130 -1224383468 -1672174558 1912270414 1565969419 -623397812 -1362097886 345598045 -586479766 1597940872 -1006199571 -820791113 -1927413149 -1263422919 262413066 -1474744926 -413077930 101186387
REM
CELL 1.54180   15.00000   15.00000   15.00000   90.00000   90.00000   90.00000
LATT -1
SFAC C  
C      1  0.4572580000000  0.4186180000000  0.4545180000000 1.0
C      1  0.5096590000000  0.6879340000000  0.5334200000000 1.0
C      1  0.4098990000000  0.6247300000000  0.6985250000000 1.0
C      1  0.6419750000000  0.3378170000000  0.3938970000000 1.0
C      1  0.5430160000000  0.2993710000000  0.6149000000000 1.0
C      1  0.5357750000000  0.3785420000000  0.7188910000000 1.0
C      1  0.5694970000000  0.5303910000000  0.7481290000000 1.0
C      1  0.3284440000000  0.6289150000000  0.5570920000000 1.0
C      1  0.5068000000000  0.5967700000000  0.7428150000000 1.0
C      1  0.5253050000000  0.4932720000000  0.4267320000000 1.0
C      1  0.3659790000000  0.6421800000000  0.4711780000000 1.0
C      1  0.2671660000000  0.4852640000000  0.4315730000000 1.0
C      1  0.3579240000000  0.3487600000000  0.3998810000000 1.0
C      1  0.4601260000000  0.6420640000000  0.4688520000000 1.0
C      1  0.6752840000000  0.4432880000000  0.6570720000000 1.0
C      1  0.5934270000000  0.3125910000000  0.4690480000000 1.0
C      1  0.5066810000000  0.7906220000000  0.4115230000000 1.0
C      1  0.6058240000000  0.5452070000000  0.5651590000000 1.0
C      1  0.3950570000000  0.2797280000000  0.6363280000000 1.0
C      1  0.5154920000000  0.5937350000000  0.4003600000000 1.0
C      1  0.3370060000000  0.4932970000000  0.6441420000000 1.0
C      1  0.6900590000000  0.6475910000000  0.4660160000000 1.0
C      1  0.6894640000000  0.5508670000000  0.4133150000000 1.0
C      1  0.2501500000000  0.3793180000000  0.4135640000000 1.0
C      1  0.5755650000000  0.5310680000000  0.2523130000000 1.0
C      1  0.2901870000000  0.2953870000000  0.4722300000000 1.0
C      1  0.4718730000000  0.3873160000000  0.6258990000000 1.0
C      1  0.3471060000000  0.5862750000000  0.6407050000000 1.0
C      1  0.5875270000000  0.7023010000000  0.3140800000000 1.0
C      1  0.3397840000000  0.6326960000000  0.3799520000000 1.0
C      1  0.3895680000000  0.4365940000000  0.5676770000000 1.0
C      1  0.7459830000000  0.3971610000000  0.5178020000000 1.0
C      1  0.3361480000000  0.2578280000000  0.5418920000000 1.0
C      1  0.6245420000000  0.4569220000000  0.2669970000000 1.0
C      1  0.4548510000000  0.3580240000000  0.3592290000000 1.0
C      1  0.5513170000000  0.7700040000000  0.4940620000000 1.0
C      1  0.6911780000000  0.5330450000000  0.6182220000000 1.0
C      1  0.6206580000000  0.6289810000000  0.3787150000000 1.0
C      1  0.4415530000000  0.2678920000000  0.5330240000000 1.0
C      1  0.5016230000000  0.7304940000000  0.3363710000000 1.0
C      1  0.3059330000000  0.5403130000000  0.3561970000000 1.0
C      1  0.6166830000000  0.3150180000000  0.5608550000000 1.0
C      1  0.5210730000000  0.5897600000000  0.2897240000000 1.0
C      1  0.5740750000000  0.6307030000000  0.5795660000000 1.0
C      1  0.6020440000000  0.4452470000000  0.7220220000000 1.0
C      1  0.3530080000000  0.4357240000000  0.4746710000000 1.0
C      1  0.6492610000000  0.3891160000000  0.3204710000000 1.0
C      1  0.4825020000000  0.2811790000000  0.7038340000000 1.0
C      1  0.6118000000000  0.4978230000000  0.4748990000000 1.0
C      1  0.4011700000000  0.5376060000000  0.3118930000000 1.0
C      1  0.2052030000000  0.5283570000000  0.4857370000000 1.0
C      1  0.7137490000000  0.4541680000000  0.4570600000000 1.0
C      1  0.4283040000000  0.6493180000000  0.3162200000000 1.0
C      1  0.6396870000000  0.7145930000000  0.5393980000000 1.0
C      1  0.4654410000000  0.4682370000000  0.3329330000000 1.0
C      1  0.6891250000000  0.3718780000000  0.5902610000000 1.0
C      1  0.7073050000000  0.6298250000000  0.5767720000000 1.0
C      1  0.4705390000000  0.6985270000000  0.7491180000000 1.0
C      1  0.3638680000000  0.3842140000000  0.6630510000000 1.0
C      1  0.4924970000000  0.3155350000000  0.4592200000000 1.0
END
