TITL C-3036483-1610-564 0.0219035242542869 3375 -327.897050295595 0 0 60 (C1) n - 1
REM
REM in /home/bkarasulu/work/CARBON/AIRSS/Generating-Clusters/REBO/Higher-Symm/Only-C60
REM
REM
REM
REM
REM
REM ./C.cell (a2850807a9bf4ad07a5b6933b78d9264)
REM AIRSS Version 0.9.1 bugfix July 2018 build 013d7b7c2542+ Fri, 06 Jul 2018 19:26:36 +0100
REM compiler GCC version 9.2.1 20190827 (Red Hat 9.2.1-1)
REM options -cpp -mtune=generic -march=x86-64 -g -O0 -fpre-include=/usr/include/finclude/math-vector-fortran.h
REM seed -843593899 1234407521 -944847010 -1175480668 2098380317 -1692255832 -1390428136 1238761821 1568655020 -585362490 -1487770014 770596154 -1217809661 911861321 -668869028 -1019735629 457113373 -254548777 2040870828 423033801 341381051 -413551696 1351977530 143119129 515955532 266667421 -2134700093 403973728 1592069868 244426075 -1800396353 231039836 -177655779
REM
CELL 1.54180   15.00000   15.00000   15.00000   90.00000   90.00000   90.00000
LATT -1
SFAC C  
C      1  0.3305340000000  0.5834040000000  0.5400120000000 1.0
C      1  0.5219810000000  0.2851530000000  0.5419000000000 1.0
C      1  0.6452570000000  0.6061820000000  0.5518880000000 1.0
C      1  0.6717160000000  0.4608910000000  0.6850200000000 1.0
C      1  0.4193050000000  0.7050960000000  0.6758130000000 1.0
C      1  0.3739420000000  0.3670840000000  0.6961020000000 1.0
C      1  0.3682090000000  0.3526930000000  0.3304250000000 1.0
C      1  0.6887280000000  0.4601130000000  0.3310110000000 1.0
C      1  0.4362420000000  0.6815810000000  0.3114270000000 1.0
C      1  0.6650010000000  0.3468370000000  0.4787680000000 1.0
C      1  0.5648870000000  0.7129830000000  0.4893270000000 1.0
C      1  0.2923310000000  0.4632600000000  0.4982010000000 1.0
C      1  0.3093180000000  0.5676990000000  0.6485600000000 1.0
C      1  0.5973830000000  0.2610880000000  0.6166620000000 1.0
C      1  0.6137230000000  0.6373050000000  0.6562430000000 1.0
C      1  0.4595400000000  0.3445900000000  0.7137450000000 1.0
C      1  0.6164310000000  0.5203700000000  0.7056150000000 1.0
C      1  0.3772120000000  0.6285320000000  0.7016590000000 1.0
C      1  0.4542940000000  0.2993480000000  0.3813580000000 1.0
C      1  0.6966770000000  0.5624490000000  0.3795900000000 1.0
C      1  0.3452010000000  0.6389950000000  0.3648130000000 1.0
C      1  0.5921740000000  0.6244550000000  0.4319080000000 1.0
C      1  0.3496450000000  0.5202910000000  0.4246100000000 1.0
C      1  0.5630120000000  0.3535730000000  0.4358400000000 1.0
C      1  0.3688000000000  0.3248440000000  0.5325310000000 1.0
C      1  0.7290560000000  0.4763370000000  0.5264750000000 1.0
C      1  0.4016820000000  0.7202700000000  0.5093710000000 1.0
C      1  0.5805420000000  0.7254130000000  0.6014860000000 1.0
C      1  0.2667880000000  0.4798860000000  0.6073030000000 1.0
C      1  0.6821950000000  0.3039360000000  0.5815330000000 1.0
C      1  0.5751400000000  0.3826080000000  0.5700720000000 1.0
C      1  0.5317740000000  0.6080450000000  0.5634600000000 1.0
C      1  0.3947430000000  0.4968970000000  0.5769190000000 1.0
C      1  0.4287860000000  0.5426550000000  0.6669100000000 1.0
C      1  0.5353500000000  0.3330370000000  0.6643580000000 1.0
C      1  0.5265900000000  0.5638170000000  0.6641020000000 1.0
C      1  0.4331270000000  0.5847830000000  0.4027140000000 1.0
C      1  0.4651970000000  0.4026660000000  0.4208810000000 1.0
C      1  0.6020390000000  0.5159200000000  0.4165120000000 1.0
C      1  0.3448250000000  0.3988760000000  0.6023840000000 1.0
C      1  0.6814590000000  0.4139860000000  0.5937770000000 1.0
C      1  0.4721190000000  0.7039710000000  0.5846980000000 1.0
C      1  0.6079200000000  0.4446150000000  0.4810240000000 1.0
C      1  0.4894680000000  0.6307770000000  0.4648850000000 1.0
C      1  0.4026060000000  0.4430710000000  0.4816890000000 1.0
C      1  0.6139620000000  0.3960520000000  0.3085380000000 1.0
C      1  0.5323990000000  0.6498280000000  0.2941530000000 1.0
C      1  0.3500960000000  0.4483640000000  0.3096670000000 1.0
C      1  0.4434420000000  0.2916090000000  0.4911300000000 1.0
C      1  0.7022290000000  0.5578730000000  0.4929910000000 1.0
C      1  0.3468140000000  0.6532200000000  0.4772750000000 1.0
C      1  0.4514830000000  0.4563990000000  0.3314080000000 1.0
C      1  0.5573850000000  0.4804230000000  0.3321430000000 1.0
C      1  0.4860270000000  0.5585360000000  0.3165230000000 1.0
C      1  0.5568950000000  0.3136930000000  0.3342880000000 1.0
C      1  0.6280720000000  0.6398820000000  0.3311710000000 1.0
C      1  0.3040510000000  0.5397810000000  0.3271760000000 1.0
C      1  0.6233730000000  0.7948410000000  0.5283050000000 1.0
C      1  0.1896050000000  0.4677170000000  0.5313730000000 1.0
C      1  0.7412180000000  0.2714030000000  0.4902820000000 1.0
END
