TITL C-3036481-494-1001 6.02367032115049e-06 3375 -351.236656130297 0 0 60 (C3) n - 1
REM
REM in /home/bkarasulu/work/CARBON/AIRSS/Generating-Clusters/REBO/Higher-Symm/Only-C60
REM
REM
REM
REM
REM
REM ./C.cell (a2850807a9bf4ad07a5b6933b78d9264)
REM AIRSS Version 0.9.1 bugfix July 2018 build 013d7b7c2542+ Fri, 06 Jul 2018 19:26:36 +0100
REM compiler GCC version 9.2.1 20190827 (Red Hat 9.2.1-1)
REM options -cpp -mtune=generic -march=x86-64 -g -O0 -fpre-include=/usr/include/finclude/math-vector-fortran.h
REM seed 717135050 -1357566388 -1204630728 1964606275 338911037 -217070887 417603626 367835594 -1620070487 -1304244568 -2008118800 -861466081 1277924245 -1895547998 187260841 402477675 -2063792687 -1249978685 -1827914859 602069846 -280630895 982149190 -1530834231 -415851621 1995720400 252251874 -787607179 -990430124 -996955262 -952069225 896653137 -1585249271 -1324506615
REM
CELL 1.54180   15.00000   15.00000   15.00000   90.00000   90.00000   90.00000
LATT -1
SFAC C  
C      1  0.3732120000000  0.5591670000000  0.7044960000000 1.0
C      1  0.3862960000000  0.5591640000000  0.2879500000000 1.0
C      1  0.7404930000000  0.5591630000000  0.5075540000000 1.0
C      1  0.4599310000000  0.6011860000000  0.7113410000000 1.0
C      1  0.3370080000000  0.6011850000000  0.3596270000000 1.0
C      1  0.7030630000000  0.6011830000000  0.4290300000000 1.0
C      1  0.5273610000000  0.6481080000000  0.6065930000000 1.0
C      1  0.3940080000000  0.6481080000000  0.4703970000000 1.0
C      1  0.5786340000000  0.6481060000000  0.4230080000000 1.0
C      1  0.4169960000000  0.3882850000000  0.2946900000000 1.0
C      1  0.7193050000000  0.3882850000000  0.5307730000000 1.0
C      1  0.3636970000000  0.3882880000000  0.6745390000000 1.0
C      1  0.2834940000000  0.3971780000000  0.5265880000000 1.0
C      1  0.5852270000000  0.3971750000000  0.2992070000000 1.0
C      1  0.6312780000000  0.3971770000000  0.6742060000000 1.0
C      1  0.5752600000000  0.4899710000000  0.4417730000000 1.0
C      1  0.5127960000000  0.4899730000000  0.5942910000000 1.0
C      1  0.4119440000000  0.4899720000000  0.4639360000000 1.0
C      1  0.3047240000000  0.5871860000000  0.6469160000000 1.0
C      1  0.4704060000000  0.5871830000000  0.2574270000000 1.0
C      1  0.7248720000000  0.5871830000000  0.5956560000000 1.0
C      1  0.6747070000000  0.5830630000000  0.6684240000000 1.0
C      1  0.2667870000000  0.5830650000000  0.5670880000000 1.0
C      1  0.5585070000000  0.5830610000000  0.2644870000000 1.0
C      1  0.6407910000000  0.7125540000000  0.4834270000000 1.0
C      1  0.4439580000000  0.7125560000000  0.6302120000000 1.0
C      1  0.4152550000000  0.7125540000000  0.3863570000000 1.0
C      1  0.5929700000000  0.6225120000000  0.5328130000000 1.0
C      1  0.4250990000000  0.6225130000000  0.5641060000000 1.0
C      1  0.4819340000000  0.6225120000000  0.4030790000000 1.0
C      1  0.4444800000000  0.3486540000000  0.6488540000000 1.0
C      1  0.3988480000000  0.3486530000000  0.3774930000000 1.0
C      1  0.6566690000000  0.3486520000000  0.4736560000000 1.0
C      1  0.6046040000000  0.3528440000000  0.3786610000000 1.0
C      1  0.5527800000000  0.3528460000000  0.6512610000000 1.0
C      1  0.3426130000000  0.3528470000000  0.4700800000000 1.0
C      1  0.2975050000000  0.6039610000000  0.4627010000000 1.0
C      1  0.6335500000000  0.6039590000000  0.3432820000000 1.0
C      1  0.5689470000000  0.6039610000000  0.6940150000000 1.0
C      1  0.3246430000000  0.4783230000000  0.4297930000000 1.0
C      1  0.6484790000000  0.4783210000000  0.3832400000000 1.0
C      1  0.5268770000000  0.4783230000000  0.6869670000000 1.0
C      1  0.4280220000000  0.5185650000000  0.5569750000000 1.0
C      1  0.4866470000000  0.5185640000000  0.4091770000000 1.0
C      1  0.5853310000000  0.5185640000000  0.5338470000000 1.0
C      1  0.7387710000000  0.4584650000000  0.3970020000000 1.0
C      1  0.4698130000000  0.4584680000000  0.7582810000000 1.0
C      1  0.2914150000000  0.4584670000000  0.3447170000000 1.0
C      1  0.3777880000000  0.4647450000000  0.7321670000000 1.0
C      1  0.3600440000000  0.4647430000000  0.2780780000000 1.0
C      1  0.7621680000000  0.4647410000000  0.4897550000000 1.0
C      1  0.7078450000000  0.3787820000000  0.6233580000000 1.0
C      1  0.2892450000000  0.3787850000000  0.6183220000000 1.0
C      1  0.5029070000000  0.3787820000000  0.2583220000000 1.0
C      1  0.2528890000000  0.4992240000000  0.5015210000000 1.0
C      1  0.6222390000000  0.4992200000000  0.2852350000000 1.0
C      1  0.6248730000000  0.4992230000000  0.7132440000000 1.0
C      1  0.4450470000000  0.3072330000000  0.4686840000000 1.0
C      1  0.5545960000000  0.3072330000000  0.4680700000000 1.0
C      1  0.5003530000000  0.3072340000000  0.5632500000000 1.0
END
