TITL C-3036479-9801-332 -0.000216649153373957 3375 -334.563561301521 0 0 60 (C2) n - 1
REM
REM in /home/bkarasulu/work/CARBON/AIRSS/Generating-Clusters/REBO/Higher-Symm/Only-C60
REM
REM
REM
REM
REM
REM ./C.cell (a2850807a9bf4ad07a5b6933b78d9264)
REM AIRSS Version 0.9.1 bugfix July 2018 build 013d7b7c2542+ Fri, 06 Jul 2018 19:26:36 +0100
REM compiler GCC version 9.2.1 20190827 (Red Hat 9.2.1-1)
REM options -cpp -mtune=generic -march=x86-64 -g -O0 -fpre-include=/usr/include/finclude/math-vector-fortran.h
REM seed -1300610680 -1008032373 1192469302 2030523637 205685177 -1773381003 -924085289 -1006655709 -2041605437 -1237194658 -2101147366 369827606 2034160550 916093767 -238192576 1595903210 1594678589 1444265682 -472075617 592894331 -1074152438 -1201533414 -1490927749 183904096 1017783864 1202042523 -916102005 -140231156 530821592 1156828973 -548173605 742485320 2088995686
REM
CELL 1.54180   15.00000   15.00000   15.00000   90.00000   90.00000   90.00000
LATT -1
SFAC C  
C      1  0.4298600000000  0.7390020000000  0.5089480000000 1.0
C      1  0.7374650000000  0.5649460000000  0.5272990000000 1.0
C      1  0.5701490000000  0.2609980000000  0.5089510000000 1.0
C      1  0.2625360000000  0.4350550000000  0.5272970000000 1.0
C      1  0.4156660000000  0.6596070000000  0.6592510000000 1.0
C      1  0.6475430000000  0.5870820000000  0.6748350000000 1.0
C      1  0.5843360000000  0.3403970000000  0.6592520000000 1.0
C      1  0.3524540000000  0.4129150000000  0.6748310000000 1.0
C      1  0.4772670000000  0.7448340000000  0.4131590000000 1.0
C      1  0.7447300000000  0.5345400000000  0.4255050000000 1.0
C      1  0.5227430000000  0.2551630000000  0.4131620000000 1.0
C      1  0.2552660000000  0.4654680000000  0.4255050000000 1.0
C      1  0.2721200000000  0.4826280000000  0.6989340000000 1.0
C      1  0.5029170000000  0.7216970000000  0.6716290000000 1.0
C      1  0.7278750000000  0.5173690000000  0.6989450000000 1.0
C      1  0.4970890000000  0.2783020000000  0.6716330000000 1.0
C      1  0.3597850000000  0.5217630000000  0.6444820000000 1.0
C      1  0.5276140000000  0.6229890000000  0.6334960000000 1.0
C      1  0.6402120000000  0.4782340000000  0.6444890000000 1.0
C      1  0.4723850000000  0.3770080000000  0.6335000000000 1.0
C      1  0.6446240000000  0.5854950000000  0.5659190000000 1.0
C      1  0.6099090000000  0.3431730000000  0.5557020000000 1.0
C      1  0.3553770000000  0.4145010000000  0.5659140000000 1.0
C      1  0.3900960000000  0.6568300000000  0.5556990000000 1.0
C      1  0.3886060000000  0.5779170000000  0.4489910000000 1.0
C      1  0.5527460000000  0.5804230000000  0.4645600000000 1.0
C      1  0.6113920000000  0.4220860000000  0.4489940000000 1.0
C      1  0.4472500000000  0.4195760000000  0.4645640000000 1.0
C      1  0.5863670000000  0.5623830000000  0.3813540000000 1.0
C      1  0.5818210000000  0.3981020000000  0.3654730000000 1.0
C      1  0.4136300000000  0.4376220000000  0.3813580000000 1.0
C      1  0.4181780000000  0.6019000000000  0.3654720000000 1.0
C      1  0.3063860000000  0.6070890000000  0.5099700000000 1.0
C      1  0.5897420000000  0.6627250000000  0.5187830000000 1.0
C      1  0.6936160000000  0.3929140000000  0.5099680000000 1.0
C      1  0.4102600000000  0.3372670000000  0.5187820000000 1.0
C      1  0.4815820000000  0.5892860000000  0.5435090000000 1.0
C      1  0.6017720000000  0.4826430000000  0.5445790000000 1.0
C      1  0.5184170000000  0.4107090000000  0.5435120000000 1.0
C      1  0.3982260000000  0.5173530000000  0.5445720000000 1.0
C      1  0.5343390000000  0.3189740000000  0.3444780000000 1.0
C      1  0.3230950000000  0.4589390000000  0.3600460000000 1.0
C      1  0.4656650000000  0.6810250000000  0.3444750000000 1.0
C      1  0.6769030000000  0.5410670000000  0.3600440000000 1.0
C      1  0.6863800000000  0.4986830000000  0.2687760000000 1.0
C      1  0.4761550000000  0.3314690000000  0.2633700000000 1.0
C      1  0.3136170000000  0.5013190000000  0.2687760000000 1.0
C      1  0.5238430000000  0.6685300000000  0.2633620000000 1.0
C      1  0.4774460000000  0.4374640000000  0.2928910000000 1.0
C      1  0.4157620000000  0.5305370000000  0.2864200000000 1.0
C      1  0.5225510000000  0.5625360000000  0.2928870000000 1.0
C      1  0.5842360000000  0.4694620000000  0.2864200000000 1.0
C      1  0.4527900000000  0.4531390000000  0.7098370000000 1.0
C      1  0.4351050000000  0.5648240000000  0.7085950000000 1.0
C      1  0.5472040000000  0.5468610000000  0.7098360000000 1.0
C      1  0.5648890000000  0.4351780000000  0.7086020000000 1.0
C      1  0.5387930000000  0.7399240000000  0.5035340000000 1.0
C      1  0.7591540000000  0.4607880000000  0.5056650000000 1.0
C      1  0.4612160000000  0.2600730000000  0.5035350000000 1.0
C      1  0.2408480000000  0.5392150000000  0.5056700000000 1.0
END
