TITL C-3036485-3770-367 6.49112756086138e-06 3375 -357.832275626575 0 0 60 (C1) n - 1
REM
REM in /home/bkarasulu/work/CARBON/AIRSS/Generating-Clusters/REBO/Higher-Symm/Only-C60
REM
REM
REM
REM
REM
REM ./C.cell (a2850807a9bf4ad07a5b6933b78d9264)
REM AIRSS Version 0.9.1 bugfix July 2018 build 013d7b7c2542+ Fri, 06 Jul 2018 19:26:36 +0100
REM compiler GCC version 9.2.1 20190827 (Red Hat 9.2.1-1)
REM options -cpp -mtune=generic -march=x86-64 -g -O0 -fpre-include=/usr/include/finclude/math-vector-fortran.h
REM seed -62249214 -2129644765 2009849477 -368608856 -1738321572 -1986169358 -1124563724 129192909 673517603 -1906481673 2116564738 715714848 -458984777 1845846778 338637942 -314553422 1294863886 -1268174948 738570256 -1566792029 1509041470 1165901458 -1117632481 -641002400 -406487851 -1325082752 -186029046 -383164967 -535187851 1776355307 -438164760 1943150540 -1360175775
REM
CELL 1.54180   15.00000   15.00000   15.00000   90.00000   90.00000   90.00000
LATT -1
SFAC C  
C      1  0.6417730000000  0.6245590000000  0.6238600000000 1.0
C      1  0.6452730000000  0.4093210000000  0.6256620000000 1.0
C      1  0.4441630000000  0.3359570000000  0.6214480000000 1.0
C      1  0.3278420000000  0.5134430000000  0.6255960000000 1.0
C      1  0.4482950000000  0.6912330000000  0.6378700000000 1.0
C      1  0.3587950000000  0.6194220000000  0.6308860000000 1.0
C      1  0.3578530000000  0.4033150000000  0.6188980000000 1.0
C      1  0.5573800000000  0.3413110000000  0.6384540000000 1.0
C      1  0.6751800000000  0.5198460000000  0.6269650000000 1.0
C      1  0.5545190000000  0.7000220000000  0.6290370000000 1.0
C      1  0.6451340000000  0.4083410000000  0.3760510000000 1.0
C      1  0.4457420000000  0.3351660000000  0.3683040000000 1.0
C      1  0.3260960000000  0.5183950000000  0.3740460000000 1.0
C      1  0.4430090000000  0.6957700000000  0.3809430000000 1.0
C      1  0.6433920000000  0.6189150000000  0.3633320000000 1.0
C      1  0.3646290000000  0.4165060000000  0.3715090000000 1.0
C      1  0.5566480000000  0.3364670000000  0.3809180000000 1.0
C      1  0.6807300000000  0.5107590000000  0.3701630000000 1.0
C      1  0.5560010000000  0.6841510000000  0.3668980000000 1.0
C      1  0.3604540000000  0.6277200000000  0.3717390000000 1.0
C      1  0.4393980000000  0.3211040000000  0.2531060000000 1.0
C      1  0.3465400000000  0.4907320000000  0.2639020000000 1.0
C      1  0.4596190000000  0.6425580000000  0.2848990000000 1.0
C      1  0.6321280000000  0.5705170000000  0.2615900000000 1.0
C      1  0.6136760000000  0.3845200000000  0.2707790000000 1.0
C      1  0.5358270000000  0.3239030000000  0.2709400000000 1.0
C      1  0.6557160000000  0.4757680000000  0.2631330000000 1.0
C      1  0.5555990000000  0.6336580000000  0.2653760000000 1.0
C      1  0.3810960000000  0.5820600000000  0.2711590000000 1.0
C      1  0.3756860000000  0.3943740000000  0.2626910000000 1.0
C      1  0.4424780000000  0.6342830000000  0.7334190000000 1.0
C      1  0.6174430000000  0.5821240000000  0.7280680000000 1.0
C      1  0.6312340000000  0.3913150000000  0.7369720000000 1.0
C      1  0.4640280000000  0.3258550000000  0.7322920000000 1.0
C      1  0.3482600000000  0.4757490000000  0.7300710000000 1.0
C      1  0.5408950000000  0.6415170000000  0.7191060000000 1.0
C      1  0.3667380000000  0.5736700000000  0.7364380000000 1.0
C      1  0.3827090000000  0.3837310000000  0.7284950000000 1.0
C      1  0.5601410000000  0.3246770000000  0.7519710000000 1.0
C      1  0.6496360000000  0.4879890000000  0.7326310000000 1.0
C      1  0.3206710000000  0.6612350000000  0.5371000000000 1.0
C      1  0.5949820000000  0.7146710000000  0.5354060000000 1.0
C      1  0.7234820000000  0.4788540000000  0.5431250000000 1.0
C      1  0.5408490000000  0.2782990000000  0.5512530000000 1.0
C      1  0.3048540000000  0.3831940000000  0.5270070000000 1.0
C      1  0.6747880000000  0.6606610000000  0.5258630000000 1.0
C      1  0.3978970000000  0.7189200000000  0.5512100000000 1.0
C      1  0.2792680000000  0.4764940000000  0.5401250000000 1.0
C      1  0.4436520000000  0.2652020000000  0.5389030000000 1.0
C      1  0.6995140000000  0.3845020000000  0.5365690000000 1.0
C      1  0.4452960000000  0.7435230000000  0.4764710000000 1.0
C      1  0.7000470000000  0.6148840000000  0.4510110000000 1.0
C      1  0.6625820000000  0.3491380000000  0.4605910000000 1.0
C      1  0.4065830000000  0.2791180000000  0.4556060000000 1.0
C      1  0.2679880000000  0.5273000000000  0.4644890000000 1.0
C      1  0.5421790000000  0.7309000000000  0.4619190000000 1.0
C      1  0.3007730000000  0.6188040000000  0.4579610000000 1.0
C      1  0.3406620000000  0.3509330000000  0.4487430000000 1.0
C      1  0.5877940000000  0.2879640000000  0.4729460000000 1.0
C      1  0.7343880000000  0.5246780000000  0.4640850000000 1.0
END
