TITL C-3036484-3770-177 0.0922304306354811 3375 -326.924528940142 0 0 60 (C1) n - 1
REM
REM in /home/bkarasulu/work/CARBON/AIRSS/Generating-Clusters/REBO/Higher-Symm/Only-C60
REM
REM
REM
REM
REM
REM ./C.cell (a2850807a9bf4ad07a5b6933b78d9264)
REM AIRSS Version 0.9.1 bugfix July 2018 build 013d7b7c2542+ Fri, 06 Jul 2018 19:26:36 +0100
REM compiler GCC version 9.2.1 20190827 (Red Hat 9.2.1-1)
REM options -cpp -mtune=generic -march=x86-64 -g -O0 -fpre-include=/usr/include/finclude/math-vector-fortran.h
REM seed -982916320 729734928 -151557329 1609697020 -117755289 -572823965 1303420963 1571144946 -1802903761 -448086136 -1166455384 -1563325980 -1820478005 9330419 719180791 -503403164 3103560 1354748224 -555337131 109309655 -1766409577 946842756 -1160081697 -595838224 276723962 290624830 1055105737 1582698085 -1111768915 891714998 1847521016 2014671649 -970031445
REM
CELL 1.54180   15.00000   15.00000   15.00000   90.00000   90.00000   90.00000
LATT -1
SFAC C  
C      1  0.6101850000000  0.6694470000000  0.4541320000000 1.0
C      1  0.6030510000000  0.3820430000000  0.3731540000000 1.0
C      1  0.6070830000000  0.4530600000000  0.6670100000000 1.0
C      1  0.3973810000000  0.6679490000000  0.4616750000000 1.0
C      1  0.3903910000000  0.3765130000000  0.3764780000000 1.0
C      1  0.3936200000000  0.4514120000000  0.6674080000000 1.0
C      1  0.5587100000000  0.7050170000000  0.5212020000000 1.0
C      1  0.5473080000000  0.4256560000000  0.3111870000000 1.0
C      1  0.5550630000000  0.3767730000000  0.6636460000000 1.0
C      1  0.4520350000000  0.7008560000000  0.5299830000000 1.0
C      1  0.4414140000000  0.4165070000000  0.3118880000000 1.0
C      1  0.4475850000000  0.3761990000000  0.6624270000000 1.0
C      1  0.3574010000000  0.2831550000000  0.5304480000000 1.0
C      1  0.3552000000000  0.6321350000000  0.6759420000000 1.0
C      1  0.3617830000000  0.5800620000000  0.3000570000000 1.0
C      1  0.6410180000000  0.2847370000000  0.5287750000000 1.0
C      1  0.6388750000000  0.6351110000000  0.6688580000000 1.0
C      1  0.6448900000000  0.5842690000000  0.2961820000000 1.0
C      1  0.3173990000000  0.5270520000000  0.6512890000000 1.0
C      1  0.3203310000000  0.6161780000000  0.4009430000000 1.0
C      1  0.3172160000000  0.3545080000000  0.4505960000000 1.0
C      1  0.6810450000000  0.5301190000000  0.6499780000000 1.0
C      1  0.6836770000000  0.6161170000000  0.3987890000000 1.0
C      1  0.6807160000000  0.3560520000000  0.4483030000000 1.0
C      1  0.4491180000000  0.5424030000000  0.6517710000000 1.0
C      1  0.4521580000000  0.6091670000000  0.3913940000000 1.0
C      1  0.4491130000000  0.3482500000000  0.4614720000000 1.0
C      1  0.5489560000000  0.5407810000000  0.6489250000000 1.0
C      1  0.5518520000000  0.6097590000000  0.3863900000000 1.0
C      1  0.5490180000000  0.3497100000000  0.4601230000000 1.0
C      1  0.5473350000000  0.6804230000000  0.6201670000000 1.0
C      1  0.5586870000000  0.5212750000000  0.2794360000000 1.0
C      1  0.5518650000000  0.3019740000000  0.5937290000000 1.0
C      1  0.4407480000000  0.6798810000000  0.6291610000000 1.0
C      1  0.4528620000000  0.5144650000000  0.2841890000000 1.0
C      1  0.4461700000000  0.3007480000000  0.5935250000000 1.0
C      1  0.4117220000000  0.4387220000000  0.4923030000000 1.0
C      1  0.4116830000000  0.5231770000000  0.5572210000000 1.0
C      1  0.4139930000000  0.5364360000000  0.4522670000000 1.0
C      1  0.5867020000000  0.4399700000000  0.4914760000000 1.0
C      1  0.5867610000000  0.5235280000000  0.5558100000000 1.0
C      1  0.5890000000000  0.5381150000000  0.4507080000000 1.0
C      1  0.2611920000000  0.3374380000000  0.5480570000000 1.0
C      1  0.2606990000000  0.6204680000000  0.6183580000000 1.0
C      1  0.2634760000000  0.5413790000000  0.3364510000000 1.0
C      1  0.7375730000000  0.3376560000000  0.5455740000000 1.0
C      1  0.7370240000000  0.6233030000000  0.6162260000000 1.0
C      1  0.7397180000000  0.5400920000000  0.3353010000000 1.0
C      1  0.5557040000000  0.6525120000000  0.2812380000000 1.0
C      1  0.5517090000000  0.2377210000000  0.4787140000000 1.0
C      1  0.5491170000000  0.6149010000000  0.7345270000000 1.0
C      1  0.4511190000000  0.6465320000000  0.2843000000000 1.0
C      1  0.4467930000000  0.2361720000000  0.4790240000000 1.0
C      1  0.4445600000000  0.6118260000000  0.7416320000000 1.0
C      1  0.7440740000000  0.5352520000000  0.4471890000000 1.0
C      1  0.7430500000000  0.4372230000000  0.4953400000000 1.0
C      1  0.7433840000000  0.5283050000000  0.5566350000000 1.0
C      1  0.2571560000000  0.5355080000000  0.4479870000000 1.0
C      1  0.2560980000000  0.4367110000000  0.4959530000000 1.0
C      1  0.2564320000000  0.5272950000000  0.5570790000000 1.0
END
