TITL C-3036484-3770-593 0.0307065187763178 3375 -340.75121661845 0 0 60 (C1) n - 1
REM
REM in /home/bkarasulu/work/CARBON/AIRSS/Generating-Clusters/REBO/Higher-Symm/Only-C60
REM
REM
REM
REM
REM
REM ./C.cell (a2850807a9bf4ad07a5b6933b78d9264)
REM AIRSS Version 0.9.1 bugfix July 2018 build 013d7b7c2542+ Fri, 06 Jul 2018 19:26:36 +0100
REM compiler GCC version 9.2.1 20190827 (Red Hat 9.2.1-1)
REM options -cpp -mtune=generic -march=x86-64 -g -O0 -fpre-include=/usr/include/finclude/math-vector-fortran.h
REM seed 492949161 -176304684 682434524 270194508 253368401 911133592 -1304393701 703380653 1574924547 500578113 679856459 -871330605 1990561474 -1427548682 -1746406757 2113245894 -1646457617 949754405 -886719912 -405198426 1263893027 -177400673 -1407594466 1907526972 1360629876 678974408 149607773 1632088183 -703552217 -883306638 1222300763 -2013174972 -754358675
REM
CELL 1.54180   15.00000   15.00000   15.00000   90.00000   90.00000   90.00000
LATT -1
SFAC C  
C      1  0.5989470000000  0.5633100000000  0.2306670000000 1.0
C      1  0.5823940000000  0.3717980000000  0.4608440000000 1.0
C      1  0.7482950000000  0.5489660000000  0.4644370000000 1.0
C      1  0.5846820000000  0.4815840000000  0.4889800000000 1.0
C      1  0.6467050000000  0.3838850000000  0.5541320000000 1.0
C      1  0.3954790000000  0.4734690000000  0.7198650000000 1.0
C      1  0.5526470000000  0.4606340000000  0.7412350000000 1.0
C      1  0.4988930000000  0.5115320000000  0.3634500000000 1.0
C      1  0.3779360000000  0.4704300000000  0.5877870000000 1.0
C      1  0.2762190000000  0.4171520000000  0.5328800000000 1.0
C      1  0.3122580000000  0.5088270000000  0.7078880000000 1.0
C      1  0.3220090000000  0.3580140000000  0.6187480000000 1.0
C      1  0.5833190000000  0.4766420000000  0.3552170000000 1.0
C      1  0.5682190000000  0.4035820000000  0.2716550000000 1.0
C      1  0.2449930000000  0.6215670000000  0.4958510000000 1.0
C      1  0.5265980000000  0.6666300000000  0.3463720000000 1.0
C      1  0.5819460000000  0.6644770000000  0.2589780000000 1.0
C      1  0.3605490000000  0.6353050000000  0.6098790000000 1.0
C      1  0.4906850000000  0.3473990000000  0.6445800000000 1.0
C      1  0.5809640000000  0.5926410000000  0.5104590000000 1.0
C      1  0.4385130000000  0.3677820000000  0.4067750000000 1.0
C      1  0.4181830000000  0.4701140000000  0.4524400000000 1.0
C      1  0.6380060000000  0.5957910000000  0.3310610000000 1.0
C      1  0.6950810000000  0.6595660000000  0.5848720000000 1.0
C      1  0.3306170000000  0.3705240000000  0.4449760000000 1.0
C      1  0.4667450000000  0.5369070000000  0.5160340000000 1.0
C      1  0.4450320000000  0.4068360000000  0.5349270000000 1.0
C      1  0.7180020000000  0.3834400000000  0.3807270000000 1.0
C      1  0.7088700000000  0.4603150000000  0.5355210000000 1.0
C      1  0.5533720000000  0.2571410000000  0.5706380000000 1.0
C      1  0.5430380000000  0.4222210000000  0.5768530000000 1.0
C      1  0.4284430000000  0.5553960000000  0.6201920000000 1.0
C      1  0.5896300000000  0.3898360000000  0.7231430000000 1.0
C      1  0.5310760000000  0.4977750000000  0.2346230000000 1.0
C      1  0.5062310000000  0.3140830000000  0.5082620000000 1.0
C      1  0.6063070000000  0.6485610000000  0.4251440000000 1.0
C      1  0.4453680000000  0.5369110000000  0.2788680000000 1.0
C      1  0.6674410000000  0.5469540000000  0.5699990000000 1.0
C      1  0.3591510000000  0.6419640000000  0.3850790000000 1.0
C      1  0.5439960000000  0.6147350000000  0.6650660000000 1.0
C      1  0.3611310000000  0.7284610000000  0.4253860000000 1.0
C      1  0.5307260000000  0.3552660000000  0.3675420000000 1.0
C      1  0.4008230000000  0.3857420000000  0.6870290000000 1.0
C      1  0.4010820000000  0.2923460000000  0.4830930000000 1.0
C      1  0.4041840000000  0.2954670000000  0.5917390000000 1.0
C      1  0.4330040000000  0.6881600000000  0.5688030000000 1.0
C      1  0.2959850000000  0.5812550000000  0.4260470000000 1.0
C      1  0.4060890000000  0.7487650000000  0.5021450000000 1.0
C      1  0.2707870000000  0.5020200000000  0.6080220000000 1.0
C      1  0.6047450000000  0.3238680000000  0.6410270000000 1.0
C      1  0.7557690000000  0.4403570000000  0.4383560000000 1.0
C      1  0.4377280000000  0.6252600000000  0.3327810000000 1.0
C      1  0.2745840000000  0.6032810000000  0.5837030000000 1.0
C      1  0.6423270000000  0.3580080000000  0.3428590000000 1.0
C      1  0.7015530000000  0.6419710000000  0.4836970000000 1.0
C      1  0.3134000000000  0.4834110000000  0.4464160000000 1.0
C      1  0.6385850000000  0.6058750000000  0.6613310000000 1.0
C      1  0.6565020000000  0.5257080000000  0.4138380000000 1.0
C      1  0.4868710000000  0.5355150000000  0.7097830000000 1.0
C      1  0.5172870000000  0.6445680000000  0.5773000000000 1.0
END
