TITL C-3036486-2224-211 1.90847413410318e-06 3375 -342.702710679305 0 0 60 (C3) n - 1
REM
REM in /home/bkarasulu/work/CARBON/AIRSS/Generating-Clusters/REBO/Higher-Symm/Only-C60
REM
REM
REM
REM
REM
REM ./C.cell (a2850807a9bf4ad07a5b6933b78d9264)
REM AIRSS Version 0.9.1 bugfix July 2018 build 013d7b7c2542+ Fri, 06 Jul 2018 19:26:36 +0100
REM compiler GCC version 9.2.1 20190827 (Red Hat 9.2.1-1)
REM options -cpp -mtune=generic -march=x86-64 -g -O0 -fpre-include=/usr/include/finclude/math-vector-fortran.h
REM seed -1357171387 -320317689 -1639316687 -94250426 977821327 -1273280082 1954128213 -832257744 511064856 -47671882 727596471 703705022 -233964384 1552566740 596378619 -1270794636 -238906254 -714952654 -2105274179 708751984 -1991002383 -673875610 -286347841 1012141540 1141148192 -403387252 -2067574687 894329065 -1222460159 946564387 -44624787 2099655117 -1527337374
REM
CELL 1.54180   15.00000   15.00000   15.00000   90.00000   90.00000   90.00000
LATT -1
SFAC C  
C      1  0.4988270000000  0.5491820000000  0.3989840000000 1.0
C      1  0.4988050000000  0.5628910000000  0.5931000000000 1.0
C      1  0.4988350000000  0.3879270000000  0.5079150000000 1.0
C      1  0.6856850000000  0.6070360000000  0.3495680000000 1.0
C      1  0.6856560000000  0.5768090000000  0.6679210000000 1.0
C      1  0.6857050000000  0.3162210000000  0.4825670000000 1.0
C      1  0.6133430000000  0.4409700000000  0.8137400000000 1.0
C      1  0.6134180000000  0.2578390000000  0.2920150000000 1.0
C      1  0.6133440000000  0.8012310000000  0.3942810000000 1.0
C      1  0.6126280000000  0.2615770000000  0.5063880000000 1.0
C      1  0.6126090000000  0.6137090000000  0.2903310000000 1.0
C      1  0.6125660000000  0.6247540000000  0.7033150000000 1.0
C      1  0.4613420000000  0.5443540000000  0.7851830000000 1.0
C      1  0.4614190000000  0.2308370000000  0.3958180000000 1.0
C      1  0.4613690000000  0.7247950000000  0.3189870000000 1.0
C      1  0.4115790000000  0.6244790000000  0.7251610000000 1.0
C      1  0.4116480000000  0.2427420000000  0.4952170000000 1.0
C      1  0.4116240000000  0.6327480000000  0.2795950000000 1.0
C      1  0.6380610000000  0.5916280000000  0.5158300000000 1.0
C      1  0.6380730000000  0.4405140000000  0.5714450000000 1.0
C      1  0.6380860000000  0.4679070000000  0.4127680000000 1.0
C      1  0.5391540000000  0.4703080000000  0.7544120000000 1.0
C      1  0.5392160000000  0.2945290000000  0.3470820000000 1.0
C      1  0.5391590000000  0.7351760000000  0.3985180000000 1.0
C      1  0.5521020000000  0.5360110000000  0.2669540000000 1.0
C      1  0.5520450000000  0.6838320000000  0.6477120000000 1.0
C      1  0.5520990000000  0.2801750000000  0.5853500000000 1.0
C      1  0.5274390000000  0.3006560000000  0.4565660000000 1.0
C      1  0.5274110000000  0.6372940000000  0.3490820000000 1.0
C      1  0.5273840000000  0.5620590000000  0.6943610000000 1.0
C      1  0.3676200000000  0.5392100000000  0.4129090000000 1.0
C      1  0.3676010000000  0.5557830000000  0.5774960000000 1.0
C      1  0.3676260000000  0.4049600000000  0.5095540000000 1.0
C      1  0.5526710000000  0.3848570000000  0.6076170000000 1.0
C      1  0.5526880000000  0.4643860000000  0.3464780000000 1.0
C      1  0.5526460000000  0.6507750000000  0.5459220000000 1.0
C      1  0.4970090000000  0.7097600000000  0.4874350000000 1.0
C      1  0.4970240000000  0.4060010000000  0.6879400000000 1.0
C      1  0.4970640000000  0.3842380000000  0.3246250000000 1.0
C      1  0.4656950000000  0.6922590000000  0.6875660000000 1.0
C      1  0.4657600000000  0.2414250000000  0.5727170000000 1.0
C      1  0.4657560000000  0.5663040000000  0.2397070000000 1.0
C      1  0.3766470000000  0.4963610000000  0.7346020000000 1.0
C      1  0.3767060000000  0.2986150000000  0.3795410000000 1.0
C      1  0.3766580000000  0.7049800000000  0.3858190000000 1.0
C      1  0.4423930000000  0.5756020000000  0.4930920000000 1.0
C      1  0.4423980000000  0.4681660000000  0.5689240000000 1.0
C      1  0.4424130000000  0.4562110000000  0.4379660000000 1.0
C      1  0.4023370000000  0.4165890000000  0.6879290000000 1.0
C      1  0.4023780000000  0.3789280000000  0.3337940000000 1.0
C      1  0.4023250000000  0.7044490000000  0.4782470000000 1.0
C      1  0.3468170000000  0.3895240000000  0.6164900000000 1.0
C      1  0.3468370000000  0.4543140000000  0.3460710000000 1.0
C      1  0.3467940000000  0.6561090000000  0.5373910000000 1.0
C      1  0.6647660000000  0.5312720000000  0.5873340000000 1.0
C      1  0.6647910000000  0.4087740000000  0.4834240000000 1.0
C      1  0.6647790000000  0.5600120000000  0.4292930000000 1.0
C      1  0.3436970000000  0.5687870000000  0.6743410000000 1.0
C      1  0.3437480000000  0.3145810000000  0.4723920000000 1.0
C      1  0.3437250000000  0.6165770000000  0.3532190000000 1.0
END
