TITL C-3036480-97-824 1.08321134301525e-05 3375 -370.191209542018 0 0 60 (Th) n - 1
REM
REM in /home/bkarasulu/work/CARBON/AIRSS/Generating-Clusters/REBO/Higher-Symm/Only-C60
REM
REM
REM
REM
REM
REM ./C.cell (a2850807a9bf4ad07a5b6933b78d9264)
REM AIRSS Version 0.9.1 bugfix July 2018 build 013d7b7c2542+ Fri, 06 Jul 2018 19:26:36 +0100
REM compiler GCC version 9.2.1 20190827 (Red Hat 9.2.1-1)
REM options -cpp -mtune=generic -march=x86-64 -g -O0 -fpre-include=/usr/include/finclude/math-vector-fortran.h
REM seed -494398224 1183367254 -1989485329 -48234045 142766045 -1612993160 751726729 -1418305094 328197261 542248347 1186601968 157029580 1777152248 -540273559 582666086 1308234593 -97196574 874050925 850384437 1213262538 1670128522 745530124 -256591488 1950873606 2078289051 482801413 1756544402 299539147 539548955 309013450 -183618035 -1266892817 1323951304
REM
CELL 1.54180   15.00000   15.00000   15.00000   90.00000   90.00000   90.00000
LATT -1
SFAC C  
C      1  0.5820210000000  0.5483290000000  0.2507080000000 1.0
C      1  0.2507080000000  0.5820210000000  0.5483290000000 1.0
C      1  0.5483290000000  0.2507080000000  0.5820210000000 1.0
C      1  0.5820210000000  0.4516710000000  0.7492920000000 1.0
C      1  0.4179790000000  0.4516710000000  0.2507080000000 1.0
C      1  0.4179790000000  0.5483290000000  0.7492920000000 1.0
C      1  0.2507080000000  0.4179790000000  0.4516710000000 1.0
C      1  0.7492920000000  0.4179790000000  0.5483290000000 1.0
C      1  0.7492920000000  0.5820210000000  0.4516710000000 1.0
C      1  0.5483290000000  0.7492920000000  0.4179790000000 1.0
C      1  0.4516710000000  0.7492920000000  0.5820210000000 1.0
C      1  0.4516710000000  0.2507080000000  0.4179790000000 1.0
C      1  0.4179790000000  0.5483290000000  0.2507080000000 1.0
C      1  0.7492920000000  0.5820210000000  0.5483290000000 1.0
C      1  0.4516710000000  0.2507080000000  0.5820210000000 1.0
C      1  0.4179790000000  0.4516710000000  0.7492920000000 1.0
C      1  0.5820210000000  0.4516710000000  0.2507080000000 1.0
C      1  0.5820210000000  0.5483290000000  0.7492920000000 1.0
C      1  0.7492920000000  0.4179790000000  0.4516710000000 1.0
C      1  0.2507080000000  0.4179790000000  0.5483290000000 1.0
C      1  0.2507080000000  0.5820210000000  0.4516710000000 1.0
C      1  0.4516710000000  0.7492920000000  0.4179790000000 1.0
C      1  0.5483290000000  0.7492920000000  0.5820210000000 1.0
C      1  0.5483290000000  0.2507080000000  0.4179790000000 1.0
C      1  0.3752920000000  0.6014220000000  0.3135190000000 1.0
C      1  0.3135190000000  0.3752920000000  0.6014220000000 1.0
C      1  0.6014220000000  0.3135190000000  0.3752920000000 1.0
C      1  0.3752920000000  0.3985780000000  0.6864810000000 1.0
C      1  0.6247080000000  0.3985780000000  0.3135190000000 1.0
C      1  0.6247080000000  0.6014220000000  0.6864810000000 1.0
C      1  0.3135190000000  0.6247080000000  0.3985780000000 1.0
C      1  0.6864810000000  0.6247080000000  0.6014220000000 1.0
C      1  0.6864810000000  0.3752920000000  0.3985780000000 1.0
C      1  0.6014220000000  0.6864810000000  0.6247080000000 1.0
C      1  0.3985780000000  0.6864810000000  0.3752920000000 1.0
C      1  0.3985780000000  0.3135190000000  0.6247080000000 1.0
C      1  0.6247080000000  0.6014220000000  0.3135190000000 1.0
C      1  0.6864810000000  0.3752920000000  0.6014220000000 1.0
C      1  0.3985780000000  0.3135190000000  0.3752920000000 1.0
C      1  0.6247080000000  0.3985780000000  0.6864810000000 1.0
C      1  0.3752920000000  0.3985780000000  0.3135190000000 1.0
C      1  0.3752920000000  0.6014220000000  0.6864810000000 1.0
C      1  0.6864810000000  0.6247080000000  0.3985780000000 1.0
C      1  0.3135190000000  0.6247080000000  0.6014220000000 1.0
C      1  0.3135190000000  0.3752920000000  0.3985780000000 1.0
C      1  0.3985780000000  0.6864810000000  0.6247080000000 1.0
C      1  0.6014220000000  0.6864810000000  0.3752920000000 1.0
C      1  0.6014220000000  0.3135190000000  0.6247080000000 1.0
C      1  0.2152640000000  0.5000000000000  0.4166190000000 1.0
C      1  0.4166190000000  0.7847360000000  0.5000000000000 1.0
C      1  0.5833810000000  0.2152640000000  0.5000000000000 1.0
C      1  0.5000000000000  0.5833810000000  0.2152640000000 1.0
C      1  0.5000000000000  0.4166190000000  0.7847360000000 1.0
C      1  0.2152640000000  0.5000000000000  0.5833810000000 1.0
C      1  0.7847360000000  0.5000000000000  0.4166190000000 1.0
C      1  0.7847360000000  0.5000000000000  0.5833810000000 1.0
C      1  0.4166190000000  0.2152640000000  0.5000000000000 1.0
C      1  0.5000000000000  0.4166190000000  0.2152640000000 1.0
C      1  0.5833810000000  0.7847360000000  0.5000000000000 1.0
C      1  0.5000000000000  0.5833810000000  0.7847360000000 1.0
END
