TITL C-3036482-790-940 -0.0331117621779634 3375 -349.612223511293 0 0 60 (C1) n - 1
REM
REM in /home/bkarasulu/work/CARBON/AIRSS/Generating-Clusters/REBO/Higher-Symm/Only-C60
REM
REM
REM
REM
REM
REM ./C.cell (a2850807a9bf4ad07a5b6933b78d9264)
REM AIRSS Version 0.9.1 bugfix July 2018 build 013d7b7c2542+ Fri, 06 Jul 2018 19:26:36 +0100
REM compiler GCC version 9.2.1 20190827 (Red Hat 9.2.1-1)
REM options -cpp -mtune=generic -march=x86-64 -g -O0 -fpre-include=/usr/include/finclude/math-vector-fortran.h
REM seed 893532602 253566932 -2123272026 -18131906 898310054 -1648434841 -1098738159 -356522894 -398215280 -506702493 -1215438758 -1307693430 -338293278 79852448 472757113 1945052342 -1242820731 112215258 1228804897 384723706 493687543 810355394 980934795 -1369781132 -551143103 1418751009 -42030215 -1082913074 -1428684928 -180959813 -1278899930 347382183 -1913909761
REM
CELL 1.54180   15.00000   15.00000   15.00000   90.00000   90.00000   90.00000
LATT -1
SFAC C  
C      1  0.5075920000000  0.5767060000000  0.6799760000000 1.0
C      1  0.5516620000000  0.4651470000000  0.6387710000000 1.0
C      1  0.4429030000000  0.4673390000000  0.6728220000000 1.0
C      1  0.4980570000000  0.5625290000000  0.3613140000000 1.0
C      1  0.5598000000000  0.4587750000000  0.3231180000000 1.0
C      1  0.4386620000000  0.4727000000000  0.3589770000000 1.0
C      1  0.6516350000000  0.5424890000000  0.5573450000000 1.0
C      1  0.4521250000000  0.3402900000000  0.5430150000000 1.0
C      1  0.3919610000000  0.6127560000000  0.5478280000000 1.0
C      1  0.6544950000000  0.5393270000000  0.4529620000000 1.0
C      1  0.4571780000000  0.3421110000000  0.4378940000000 1.0
C      1  0.3904140000000  0.6111460000000  0.4438560000000 1.0
C      1  0.3659570000000  0.5759900000000  0.6766280000000 1.0
C      1  0.6392950000000  0.5912030000000  0.6890080000000 1.0
C      1  0.5000530000000  0.3469290000000  0.6721260000000 1.0
C      1  0.3563010000000  0.5678490000000  0.3152860000000 1.0
C      1  0.6315600000000  0.5830710000000  0.3237180000000 1.0
C      1  0.5103170000000  0.3363740000000  0.3081060000000 1.0
C      1  0.3106130000000  0.4530630000000  0.4430400000000 1.0
C      1  0.5562140000000  0.6856490000000  0.4499120000000 1.0
C      1  0.6389540000000  0.3604520000000  0.4504760000000 1.0
C      1  0.3109470000000  0.4492520000000  0.5418070000000 1.0
C      1  0.5527580000000  0.6923430000000  0.5482090000000 1.0
C      1  0.6317790000000  0.3602590000000  0.5495570000000 1.0
C      1  0.5230240000000  0.5534070000000  0.1832620000000 1.0
C      1  0.5260330000000  0.4457040000000  0.1639600000000 1.0
C      1  0.4313890000000  0.4954360000000  0.1789850000000 1.0
C      1  0.5432610000000  0.5528010000000  0.8385170000000 1.0
C      1  0.5320430000000  0.4460610000000  0.8215030000000 1.0
C      1  0.4436940000000  0.5086550000000  0.8328870000000 1.0
C      1  0.3943440000000  0.5163310000000  0.7526180000000 1.0
C      1  0.5689730000000  0.6017200000000  0.7611650000000 1.0
C      1  0.5466430000000  0.4059630000000  0.7380720000000 1.0
C      1  0.3836420000000  0.4893970000000  0.2595570000000 1.0
C      1  0.5511040000000  0.5906300000000  0.2650860000000 1.0
C      1  0.5551330000000  0.3954230000000  0.2392600000000 1.0
C      1  0.6934410000000  0.4383230000000  0.4157120000000 1.0
C      1  0.3551990000000  0.3768690000000  0.3987310000000 1.0
C      1  0.4695010000000  0.6840190000000  0.4068180000000 1.0
C      1  0.6740370000000  0.4365870000000  0.5947140000000 1.0
C      1  0.3460310000000  0.3637670000000  0.5785740000000 1.0
C      1  0.4578970000000  0.7003650000000  0.5821210000000 1.0
C      1  0.4187160000000  0.3713920000000  0.3144870000000 1.0
C      1  0.4251170000000  0.6420750000000  0.3192110000000 1.0
C      1  0.6624610000000  0.4871980000000  0.3314520000000 1.0
C      1  0.4005980000000  0.3672720000000  0.6622830000000 1.0
C      1  0.4328090000000  0.6520110000000  0.6673630000000 1.0
C      1  0.6517880000000  0.4939680000000  0.6806530000000 1.0
C      1  0.5652960000000  0.4688440000000  0.4283190000000 1.0
C      1  0.4409080000000  0.4495190000000  0.4690630000000 1.0
C      1  0.4930380000000  0.5709720000000  0.4739010000000 1.0
C      1  0.5665460000000  0.4738640000000  0.5265940000000 1.0
C      1  0.4420250000000  0.4540490000000  0.5644700000000 1.0
C      1  0.4976120000000  0.5743690000000  0.5745710000000 1.0
C      1  0.3314570000000  0.5320600000000  0.5899730000000 1.0
C      1  0.6164390000000  0.6357380000000  0.5988480000000 1.0
C      1  0.5494920000000  0.3278440000000  0.5873390000000 1.0
C      1  0.3248550000000  0.5401700000000  0.4044590000000 1.0
C      1  0.6254920000000  0.6320130000000  0.4104430000000 1.0
C      1  0.5587290000000  0.3314370000000  0.3992770000000 1.0
END
