TITL C-3036484-3770-388 -8.82914267764449e-07 3375 -341.651264360923 0 0 60 (C12) n - 1
REM
REM in /home/bkarasulu/work/CARBON/AIRSS/Generating-Clusters/REBO/Higher-Symm/Only-C60
REM
REM
REM
REM
REM
REM ./C.cell (a2850807a9bf4ad07a5b6933b78d9264)
REM AIRSS Version 0.9.1 bugfix July 2018 build 013d7b7c2542+ Fri, 06 Jul 2018 19:26:36 +0100
REM compiler GCC version 9.2.1 20190827 (Red Hat 9.2.1-1)
REM options -cpp -mtune=generic -march=x86-64 -g -O0 -fpre-include=/usr/include/finclude/math-vector-fortran.h
REM seed -1296542466 81908281 892716415 -123294540 580708206 312867882 -338162464 -1328492776 -2000874297 -1404400893 2006218320 549313913 1492233958 1696938288 826535437 -453254086 192545344 158649843 -1470489004 -1315893576 -421111125 -500515470 776751389 -1634042733 534791609 1105097659 1898507641 1679341629 -1089293190 -16394583 1263744592 -571540344 -888373711
REM
CELL 1.54180   15.00000   15.00000   15.00000   90.00000   90.00000   90.00000
LATT -1
SFAC C  
C      1  0.7112830000000  0.6719580000000  0.4180700000000 1.0
C      1  0.7112830000000  0.6898840000000  0.5150250000000 1.0
C      1  0.7112830000000  0.6569320000000  0.6079540000000 1.0
C      1  0.7112830000000  0.5819300000000  0.6719580000000 1.0
C      1  0.7112830000000  0.4849750000000  0.6898840000000 1.0
C      1  0.7112830000000  0.3920460000000  0.6569320000000 1.0
C      1  0.7112830000000  0.3280420000000  0.5819300000000 1.0
C      1  0.7112830000000  0.3101160000000  0.4849750000000 1.0
C      1  0.7112830000000  0.3430680000000  0.3920460000000 1.0
C      1  0.7112830000000  0.4180700000000  0.3280420000000 1.0
C      1  0.7112830000000  0.5150250000000  0.3101160000000 1.0
C      1  0.7112830000000  0.6079540000000  0.3430680000000 1.0
C      1  0.5003110000000  0.4197810000000  0.7002470000000 1.0
C      1  0.5003110000000  0.3304050000000  0.6333090000000 1.0
C      1  0.5003110000000  0.2864700000000  0.5306520000000 1.0
C      1  0.5003110000000  0.2997530000000  0.4197810000000 1.0
C      1  0.5003110000000  0.3666910000000  0.3304050000000 1.0
C      1  0.5003110000000  0.4693480000000  0.2864700000000 1.0
C      1  0.5003110000000  0.5802190000000  0.2997530000000 1.0
C      1  0.5003110000000  0.6695950000000  0.3666910000000 1.0
C      1  0.5003110000000  0.7135300000000  0.4693480000000 1.0
C      1  0.5003110000000  0.7002470000000  0.5802190000000 1.0
C      1  0.5003110000000  0.6333090000000  0.6695950000000 1.0
C      1  0.5003110000000  0.5306520000000  0.7135300000000 1.0
C      1  0.2881550000000  0.6181280000000  0.6500320000000 1.0
C      1  0.2881550000000  0.5272860000000  0.6889960000000 1.0
C      1  0.2881550000000  0.4291320000000  0.6773170000000 1.0
C      1  0.2881550000000  0.3499680000000  0.6181280000000 1.0
C      1  0.2881550000000  0.3110040000000  0.5272860000000 1.0
C      1  0.2881550000000  0.3226830000000  0.4291320000000 1.0
C      1  0.2881550000000  0.3818730000000  0.3499680000000 1.0
C      1  0.2881550000000  0.4727140000000  0.3110040000000 1.0
C      1  0.2881550000000  0.5708680000000  0.3226830000000 1.0
C      1  0.2881550000000  0.6500320000000  0.3818720000000 1.0
C      1  0.2881550000000  0.6889960000000  0.4727140000000 1.0
C      1  0.2881550000000  0.6773170000000  0.5708680000000 1.0
C      1  0.6058600000000  0.4500530000000  0.7130090000000 1.0
C      1  0.6058600000000  0.3502400000000  0.6594980000000 1.0
C      1  0.6058600000000  0.2905540000000  0.5632500000000 1.0
C      1  0.6058600000000  0.2869910000000  0.4500530000000 1.0
C      1  0.6058600000000  0.3405020000000  0.3502400000000 1.0
C      1  0.6058600000000  0.4367500000000  0.2905540000000 1.0
C      1  0.6058600000000  0.5499470000000  0.2869910000000 1.0
C      1  0.6058600000000  0.6497600000000  0.3405020000000 1.0
C      1  0.6058600000000  0.7094460000000  0.4367500000000 1.0
C      1  0.6058600000000  0.7130090000000  0.5499470000000 1.0
C      1  0.6058600000000  0.6594980000000  0.6497600000000 1.0
C      1  0.6058600000000  0.5632500000000  0.7094460000000 1.0
C      1  0.3943900000000  0.3112850000000  0.6068260000000 1.0
C      1  0.3943900000000  0.2831540000000  0.4981570000000 1.0
C      1  0.3943900000000  0.3131280000000  0.3899810000000 1.0
C      1  0.3943900000000  0.3931740000000  0.3112850000000 1.0
C      1  0.3943900000000  0.5018430000000  0.2831540000000 1.0
C      1  0.3943900000000  0.6100190000000  0.3131280000000 1.0
C      1  0.3943900000000  0.6887150000000  0.3931740000000 1.0
C      1  0.3943900000000  0.7168460000000  0.5018430000000 1.0
C      1  0.3943900000000  0.6868720000000  0.6100190000000 1.0
C      1  0.3943900000000  0.6068260000000  0.6887150000000 1.0
C      1  0.3943900000000  0.4981570000000  0.7168460000000 1.0
C      1  0.3943900000000  0.3899810000000  0.6868720000000 1.0
END
