TITL C-3036483-1610-622 -0.00775584091231337 3375 -339.697677230506 0 0 60 (C1) n - 1
REM
REM in /home/bkarasulu/work/CARBON/AIRSS/Generating-Clusters/REBO/Higher-Symm/Only-C60
REM
REM
REM
REM
REM
REM ./C.cell (a2850807a9bf4ad07a5b6933b78d9264)
REM AIRSS Version 0.9.1 bugfix July 2018 build 013d7b7c2542+ Fri, 06 Jul 2018 19:26:36 +0100
REM compiler GCC version 9.2.1 20190827 (Red Hat 9.2.1-1)
REM options -cpp -mtune=generic -march=x86-64 -g -O0 -fpre-include=/usr/include/finclude/math-vector-fortran.h
REM seed 1077813104 -1921668110 -1397201901 -668492143 -903203360 -86454312 2074421382 1619432719 802357957 1204339056 -1068523126 1245228702 662800228 -1764212267 -302322475 1159561919 -121401490 1303765568 2116879343 1650130763 11189004 -327196239 -1054225908 569499245 -1350163017 -1729864164 -1133596904 -491873790 930144082 287189546 -1653410226 -619679538 -2147305637
REM
CELL 1.54180   15.00000   15.00000   15.00000   90.00000   90.00000   90.00000
LATT -1
SFAC C  
C      1  0.4767720000000  0.5271840000000  0.6321960000000 1.0
C      1  0.3985450000000  0.5501340000000  0.4117890000000 1.0
C      1  0.6563910000000  0.5239650000000  0.4422890000000 1.0
C      1  0.5050280000000  0.2076330000000  0.4421680000000 1.0
C      1  0.5532970000000  0.2119130000000  0.5447860000000 1.0
C      1  0.4402610000000  0.2097110000000  0.5351450000000 1.0
C      1  0.4702670000000  0.6333230000000  0.7122890000000 1.0
C      1  0.3177170000000  0.6393140000000  0.3549500000000 1.0
C      1  0.7012980000000  0.6471060000000  0.4196990000000 1.0
C      1  0.5208290000000  0.4567380000000  0.3098620000000 1.0
C      1  0.6623020000000  0.4625320000000  0.6161130000000 1.0
C      1  0.3086360000000  0.4582290000000  0.5790910000000 1.0
C      1  0.7425420000000  0.4754980000000  0.5424350000000 1.0
C      1  0.3325940000000  0.4696310000000  0.6855990000000 1.0
C      1  0.4188770000000  0.4678300000000  0.2714020000000 1.0
C      1  0.5606680000000  0.5206790000000  0.3842440000000 1.0
C      1  0.5790290000000  0.5252170000000  0.5941720000000 1.0
C      1  0.3477940000000  0.5176550000000  0.5062200000000 1.0
C      1  0.3873170000000  0.3091520000000  0.5267380000000 1.0
C      1  0.5337190000000  0.3073120000000  0.3985420000000 1.0
C      1  0.5736790000000  0.3139970000000  0.5889550000000 1.0
C      1  0.5449060000000  0.3681940000000  0.3296270000000 1.0
C      1  0.6305060000000  0.3750670000000  0.6308060000000 1.0
C      1  0.3193970000000  0.3683170000000  0.5502840000000 1.0
C      1  0.6434350000000  0.6192340000000  0.3496590000000 1.0
C      1  0.5603830000000  0.6069760000000  0.6984130000000 1.0
C      1  0.2971670000000  0.6342440000000  0.4582650000000 1.0
C      1  0.4150400000000  0.6932850000000  0.5817130000000 1.0
C      1  0.4826810000000  0.7074160000000  0.3817400000000 1.0
C      1  0.6060620000000  0.7042280000000  0.5527600000000 1.0
C      1  0.7494870000000  0.5651470000000  0.4824730000000 1.0
C      1  0.3997110000000  0.5447180000000  0.7050680000000 1.0
C      1  0.3634230000000  0.5474140000000  0.3064050000000 1.0
C      1  0.4261730000000  0.2882570000000  0.4283430000000 1.0
C      1  0.6008190000000  0.2928280000000  0.4808620000000 1.0
C      1  0.4679780000000  0.2945410000000  0.6052490000000 1.0
C      1  0.6609710000000  0.5171300000000  0.3290060000000 1.0
C      1  0.5627640000000  0.5012360000000  0.7039310000000 1.0
C      1  0.2845240000000  0.5339640000000  0.4131770000000 1.0
C      1  0.6951140000000  0.3297940000000  0.4662080000000 1.0
C      1  0.4250290000000  0.3269360000000  0.6927000000000 1.0
C      1  0.3708530000000  0.3226140000000  0.3488490000000 1.0
C      1  0.7012460000000  0.6548430000000  0.5327100000000 1.0
C      1  0.3656330000000  0.6450520000000  0.6690230000000 1.0
C      1  0.4234400000000  0.6443170000000  0.3177470000000 1.0
C      1  0.2998030000000  0.5649580000000  0.6207380000000 1.0
C      1  0.4919440000000  0.5625360000000  0.2784710000000 1.0
C      1  0.7039690000000  0.5684660000000  0.6069210000000 1.0
C      1  0.3205820000000  0.6420200000000  0.5457980000000 1.0
C      1  0.5557180000000  0.6438600000000  0.3223370000000 1.0
C      1  0.6285170000000  0.6394620000000  0.6417730000000 1.0
C      1  0.5149410000000  0.6397610000000  0.5725840000000 1.0
C      1  0.4309230000000  0.6635400000000  0.4733530000000 1.0
C      1  0.5613490000000  0.6716890000000  0.4533320000000 1.0
C      1  0.3696560000000  0.3822000000000  0.7191270000000 1.0
C      1  0.3720320000000  0.3803040000000  0.2899350000000 1.0
C      1  0.7460500000000  0.3902840000000  0.4889970000000 1.0
C      1  0.4948100000000  0.5821900000000  0.4228740000000 1.0
C      1  0.5934880000000  0.5791060000000  0.5108670000000 1.0
C      1  0.4319120000000  0.5691220000000  0.5391910000000 1.0
END
