TITL C-3036484-3770-184 6.52110935628142e-07 3375 -326.058291911884 0 0 60 (Cs) n - 1
REM
REM in /home/bkarasulu/work/CARBON/AIRSS/Generating-Clusters/REBO/Higher-Symm/Only-C60
REM
REM
REM
REM
REM
REM ./C.cell (a2850807a9bf4ad07a5b6933b78d9264)
REM AIRSS Version 0.9.1 bugfix July 2018 build 013d7b7c2542+ Fri, 06 Jul 2018 19:26:36 +0100
REM compiler GCC version 9.2.1 20190827 (Red Hat 9.2.1-1)
REM options -cpp -mtune=generic -march=x86-64 -g -O0 -fpre-include=/usr/include/finclude/math-vector-fortran.h
REM seed 832764594 370329516 -1671824121 1664919440 10394891 -1964057223 64207038 136529194 284883526 -1581622120 1515764141 -1514471856 13484888 2096562682 -1315332048 -933544072 -2100827886 1968960180 767908759 29730556 -185363609 -2111532447 463578573 2091520804 -2031523646 2091355464 2105421697 -442564838 -145724670 112128936 419575044 -1920653329 -373318778
REM
CELL 1.54180   15.00000   15.00000   15.00000   90.00000   90.00000   90.00000
LATT -1
SFAC C  
C      1  0.2770200000000  0.5726100000000  0.5491870000000 1.0
C      1  0.4979330000000  0.7370410000000  0.5491060000000 1.0
C      1  0.7106770000000  0.5734200000000  0.5489780000000 1.0
C      1  0.6367570000000  0.3090490000000  0.5491850000000 1.0
C      1  0.3685690000000  0.3124850000000  0.5488660000000 1.0
C      1  0.2770200000000  0.5726100000000  0.4508130000000 1.0
C      1  0.4979330000000  0.7370410000000  0.4508940000000 1.0
C      1  0.7106770000000  0.5734200000000  0.4510220000000 1.0
C      1  0.6367570000000  0.3090490000000  0.4508150000000 1.0
C      1  0.3685690000000  0.3124850000000  0.4511340000000 1.0
C      1  0.2922480000000  0.4805320000000  0.5826030000000 1.0
C      1  0.4128160000000  0.6956810000000  0.5807820000000 1.0
C      1  0.6616410000000  0.6543900000000  0.5883190000000 1.0
C      1  0.6776370000000  0.3929770000000  0.5824450000000 1.0
C      1  0.4572150000000  0.2770240000000  0.5865380000000 1.0
C      1  0.2922480000000  0.4805320000000  0.4173970000000 1.0
C      1  0.4128160000000  0.6956810000000  0.4192180000000 1.0
C      1  0.6616410000000  0.6543900000000  0.4116810000000 1.0
C      1  0.6776370000000  0.3929770000000  0.4175550000000 1.0
C      1  0.4572150000000  0.2770240000000  0.4134620000000 1.0
C      1  0.5028600000000  0.3825460000000  0.5479450000000 1.0
C      1  0.3960040000000  0.4614850000000  0.5475010000000 1.0
C      1  0.4307520000000  0.5899930000000  0.5494130000000 1.0
C      1  0.5637280000000  0.5953810000000  0.5469440000000 1.0
C      1  0.6041310000000  0.4688170000000  0.5474870000000 1.0
C      1  0.5028600000000  0.3825460000000  0.4520550000000 1.0
C      1  0.3960040000000  0.4614850000000  0.4524990000000 1.0
C      1  0.4307520000000  0.5899930000000  0.4505870000000 1.0
C      1  0.5637280000000  0.5953810000000  0.4530560000000 1.0
C      1  0.6041310000000  0.4688170000000  0.4525130000000 1.0
C      1  0.5028520000000  0.6155260000000  0.6343040000000 1.0
C      1  0.6116080000000  0.5393110000000  0.6313520000000 1.0
C      1  0.5592990000000  0.4170440000000  0.6366000000000 1.0
C      1  0.4281640000000  0.3979990000000  0.6318310000000 1.0
C      1  0.4027700000000  0.5283960000000  0.6374850000000 1.0
C      1  0.5028520000000  0.6155260000000  0.3656960000000 1.0
C      1  0.6116080000000  0.5393110000000  0.3686480000000 1.0
C      1  0.5592990000000  0.4170440000000  0.3634000000000 1.0
C      1  0.4281640000000  0.3979990000000  0.3681690000000 1.0
C      1  0.4027700000000  0.5283960000000  0.3625150000000 1.0
C      1  0.5648510000000  0.4100050000000  0.2779920000000 1.0
C      1  0.4087600000000  0.3756910000000  0.2875470000000 1.0
C      1  0.3929280000000  0.5305270000000  0.2772930000000 1.0
C      1  0.5068590000000  0.6350560000000  0.2820990000000 1.0
C      1  0.6371240000000  0.5464100000000  0.2869300000000 1.0
C      1  0.5648510000000  0.4100050000000  0.7220080000000 1.0
C      1  0.4087600000000  0.3756910000000  0.7124530000000 1.0
C      1  0.3929280000000  0.5305270000000  0.7227070000000 1.0
C      1  0.5068590000000  0.6350560000000  0.7179010000000 1.0
C      1  0.6371240000000  0.5464100000000  0.7130700000000 1.0
C      1  0.3192490000000  0.6514000000000  0.4119580000000 1.0
C      1  0.5851010000000  0.7198890000000  0.4113730000000 1.0
C      1  0.7286690000000  0.4859510000000  0.4101700000000 1.0
C      1  0.5576570000000  0.2683000000000  0.4116310000000 1.0
C      1  0.3041250000000  0.3750670000000  0.4111760000000 1.0
C      1  0.3192490000000  0.6514000000000  0.5880420000000 1.0
C      1  0.5851010000000  0.7198890000000  0.5886270000000 1.0
C      1  0.7286690000000  0.4859510000000  0.5898300000000 1.0
C      1  0.5576570000000  0.2683000000000  0.5883690000000 1.0
C      1  0.3041250000000  0.3750670000000  0.5888240000000 1.0
END
