TITL C-3036483-1610-130 -0.00672151521972667 3375 -350.962520713804 0 0 60 (Ci) n - 1
REM
REM in /home/bkarasulu/work/CARBON/AIRSS/Generating-Clusters/REBO/Higher-Symm/Only-C60
REM
REM
REM
REM
REM
REM ./C.cell (a2850807a9bf4ad07a5b6933b78d9264)
REM AIRSS Version 0.9.1 bugfix July 2018 build 013d7b7c2542+ Fri, 06 Jul 2018 19:26:36 +0100
REM compiler GCC version 9.2.1 20190827 (Red Hat 9.2.1-1)
REM options -cpp -mtune=generic -march=x86-64 -g -O0 -fpre-include=/usr/include/finclude/math-vector-fortran.h
REM seed 1884050344 1673815465 -934296308 -1748581708 -962297516 762736955 -952077797 -1471893339 -906268054 -177473502 74495740 -1129430185 -1022370218 -873718085 -629845925 -440524977 -648919252 1247297839 1662534795 238704693 1558658658 -150947879 -423284154 441395811 -471104562 -1666104801 -1061926078 -810867280 1893101785 -619272120 -193646743 1632722336 -22337779
REM
CELL 1.54180   15.00000   15.00000   15.00000   90.00000   90.00000   90.00000
LATT -1
SFAC C  
C      1  0.7545680000000  0.5732230000000  0.6113840000000 1.0
C      1  0.7491890000000  0.4313900000000  0.3869130000000 1.0
C      1  0.2508880000000  0.5686860000000  0.6131470000000 1.0
C      1  0.2454560000000  0.4267030000000  0.3885830000000 1.0
C      1  0.6864120000000  0.6787970000000  0.4221090000000 1.0
C      1  0.6763890000000  0.3357230000000  0.5881020000000 1.0
C      1  0.3234940000000  0.6638350000000  0.4119780000000 1.0
C      1  0.3134160000000  0.3216690000000  0.5778860000000 1.0
C      1  0.5505670000000  0.5453040000000  0.6422490000000 1.0
C      1  0.5396520000000  0.4566080000000  0.3597150000000 1.0
C      1  0.4603660000000  0.5434280000000  0.6402770000000 1.0
C      1  0.4494550000000  0.4546270000000  0.3577100000000 1.0
C      1  0.3289350000000  0.4817690000000  0.5499880000000 1.0
C      1  0.3209860000000  0.5200130000000  0.4450080000000 1.0
C      1  0.6789950000000  0.4799190000000  0.5549940000000 1.0
C      1  0.6710760000000  0.5182440000000  0.4500470000000 1.0
C      1  0.3046870000000  0.4963620000000  0.3385540000000 1.0
C      1  0.3150000000000  0.5003320000000  0.6581690000000 1.0
C      1  0.6850550000000  0.4997270000000  0.3418830000000 1.0
C      1  0.6953550000000  0.5035450000000  0.6614000000000 1.0
C      1  0.4496080000000  0.4226850000000  0.7405520000000 1.0
C      1  0.4404250000000  0.5708160000000  0.2520780000000 1.0
C      1  0.5596340000000  0.4291760000000  0.7479420000000 1.0
C      1  0.5504200000000  0.5773440000000  0.2594500000000 1.0
C      1  0.3921940000000  0.4984000000000  0.2950290000000 1.0
C      1  0.4025940000000  0.4977630000000  0.7005940000000 1.0
C      1  0.5974390000000  0.5022710000000  0.2994280000000 1.0
C      1  0.6078480000000  0.5015550000000  0.7049260000000 1.0
C      1  0.4107500000000  0.6411030000000  0.4024500000000 1.0
C      1  0.3979690000000  0.3505840000000  0.5931110000000 1.0
C      1  0.6020040000000  0.6494680000000  0.4068570000000 1.0
C      1  0.5892300000000  0.3588600000000  0.5975560000000 1.0
C      1  0.4542180000000  0.7227290000000  0.5563350000000 1.0
C      1  0.4551370000000  0.2749210000000  0.4414410000000 1.0
C      1  0.5448510000000  0.7250240000000  0.5585130000000 1.0
C      1  0.5457660000000  0.2773900000000  0.4437490000000 1.0
C      1  0.4471560000000  0.4001700000000  0.5291830000000 1.0
C      1  0.4603160000000  0.5979980000000  0.4701220000000 1.0
C      1  0.5396850000000  0.4020750000000  0.5299330000000 1.0
C      1  0.5528480000000  0.5997740000000  0.4707550000000 1.0
C      1  0.2830870000000  0.3373790000000  0.4399370000000 1.0
C      1  0.2873790000000  0.6585320000000  0.5611130000000 1.0
C      1  0.7126160000000  0.3415340000000  0.4389200000000 1.0
C      1  0.7168890000000  0.6625350000000  0.5600000000000 1.0
C      1  0.5588030000000  0.6624440000000  0.3217360000000 1.0
C      1  0.5438760000000  0.3496060000000  0.6825060000000 1.0
C      1  0.4561650000000  0.6503330000000  0.3175100000000 1.0
C      1  0.4411950000000  0.3375680000000  0.6782370000000 1.0
C      1  0.6209080000000  0.6719920000000  0.5594340000000 1.0
C      1  0.6178540000000  0.3362890000000  0.4444030000000 1.0
C      1  0.3821360000000  0.6638370000000  0.5556130000000 1.0
C      1  0.3790690000000  0.3279460000000  0.4404980000000 1.0
C      1  0.2524810000000  0.4209700000000  0.4999830000000 1.0
C      1  0.2494130000000  0.5768650000000  0.5025690000000 1.0
C      1  0.7506350000000  0.4231830000000  0.4974560000000 1.0
C      1  0.7475230000000  0.5789490000000  0.5000050000000 1.0
C      1  0.5893520000000  0.4394700000000  0.4452860000000 1.0
C      1  0.6019160000000  0.5635770000000  0.5570500000000 1.0
C      1  0.3980680000000  0.4363580000000  0.4428900000000 1.0
C      1  0.4106000000000  0.5606200000000  0.5547550000000 1.0
END
