TITL C-3036483-1610-391 -4.16761719229657e-06 3375 -346.794759237012 0 0 60 (C1) n - 1
REM
REM in /home/bkarasulu/work/CARBON/AIRSS/Generating-Clusters/REBO/Higher-Symm/Only-C60
REM
REM
REM
REM
REM
REM ./C.cell (a2850807a9bf4ad07a5b6933b78d9264)
REM AIRSS Version 0.9.1 bugfix July 2018 build 013d7b7c2542+ Fri, 06 Jul 2018 19:26:36 +0100
REM compiler GCC version 9.2.1 20190827 (Red Hat 9.2.1-1)
REM options -cpp -mtune=generic -march=x86-64 -g -O0 -fpre-include=/usr/include/finclude/math-vector-fortran.h
REM seed -66035885 1764616239 372824644 41070707 -640666654 1465812008 -999077539 -1611649529 667418945 -285395221 -1703046373 508367862 -603997040 -970210468 1659769955 -31556740 -97932630 26494159 -2084294034 -39409941 -939771967 2062979811 1318814157 380084682 -586936529 -2111299777 187869322 -1856531910 2081608045 -152885486 358427910 1605954639 -1063507821
REM
CELL 1.54180   15.00000   15.00000   15.00000   90.00000   90.00000   90.00000
LATT -1
SFAC C  
C      1  0.5862680000000  0.2859950000000  0.5982850000000 1.0
C      1  0.5881340000000  0.7202140000000  0.6030310000000 1.0
C      1  0.4220620000000  0.5875500000000  0.3235200000000 1.0
C      1  0.4279940000000  0.4106300000000  0.3221350000000 1.0
C      1  0.3898060000000  0.5441800000000  0.2477190000000 1.0
C      1  0.3943420000000  0.4531810000000  0.2463260000000 1.0
C      1  0.7681760000000  0.4259620000000  0.5358900000000 1.0
C      1  0.7469900000000  0.5317520000000  0.5307200000000 1.0
C      1  0.6607840000000  0.6248360000000  0.3779970000000 1.0
C      1  0.6664790000000  0.3690150000000  0.3771580000000 1.0
C      1  0.6021960000000  0.6665950000000  0.4502430000000 1.0
C      1  0.6095620000000  0.3389780000000  0.4559570000000 1.0
C      1  0.7010220000000  0.4380770000000  0.4482950000000 1.0
C      1  0.6828230000000  0.5500870000000  0.4465920000000 1.0
C      1  0.5292730000000  0.4114620000000  0.4739070000000 1.0
C      1  0.5195730000000  0.5955870000000  0.4717640000000 1.0
C      1  0.4709210000000  0.4052000000000  0.5576810000000 1.0
C      1  0.4663930000000  0.6018630000000  0.5608520000000 1.0
C      1  0.5651990000000  0.2462780000000  0.6827960000000 1.0
C      1  0.5662870000000  0.7601800000000  0.6870950000000 1.0
C      1  0.5382880000000  0.2516950000000  0.5267230000000 1.0
C      1  0.5385720000000  0.7513420000000  0.5306730000000 1.0
C      1  0.3958880000000  0.3502710000000  0.5576750000000 1.0
C      1  0.3891580000000  0.6539210000000  0.5619380000000 1.0
C      1  0.5547490000000  0.6028460000000  0.7102670000000 1.0
C      1  0.5564840000000  0.4037680000000  0.7072770000000 1.0
C      1  0.5725460000000  0.6220830000000  0.3285700000000 1.0
C      1  0.5761240000000  0.3745750000000  0.3321680000000 1.0
C      1  0.6151700000000  0.6156280000000  0.6172590000000 1.0
C      1  0.6145860000000  0.3896590000000  0.6129920000000 1.0
C      1  0.5059040000000  0.5505200000000  0.3728190000000 1.0
C      1  0.5099030000000  0.4509280000000  0.3737120000000 1.0
C      1  0.3003050000000  0.6221630000000  0.4202070000000 1.0
C      1  0.3037720000000  0.3785490000000  0.4180290000000 1.0
C      1  0.5967950000000  0.4615200000000  0.7792910000000 1.0
C      1  0.5948290000000  0.5440010000000  0.7816150000000 1.0
C      1  0.6178370000000  0.4549590000000  0.5202860000000 1.0
C      1  0.6041760000000  0.5588100000000  0.5278670000000 1.0
C      1  0.2292560000000  0.3888450000000  0.5661680000000 1.0
C      1  0.2245490000000  0.6080400000000  0.5674510000000 1.0
C      1  0.3829340000000  0.6582820000000  0.3723780000000 1.0
C      1  0.3859870000000  0.3412820000000  0.3703620000000 1.0
C      1  0.4774950000000  0.2372240000000  0.4623160000000 1.0
C      1  0.4791610000000  0.7598750000000  0.4639280000000 1.0
C      1  0.7061310000000  0.4432010000000  0.6193210000000 1.0
C      1  0.6991560000000  0.5493600000000  0.6204820000000 1.0
C      1  0.4527250000000  0.2735430000000  0.3795610000000 1.0
C      1  0.4519860000000  0.7241430000000  0.3815010000000 1.0
C      1  0.5350940000000  0.3090900000000  0.7426710000000 1.0
C      1  0.5342200000000  0.6974720000000  0.7461360000000 1.0
C      1  0.5277830000000  0.2920430000000  0.3207490000000 1.0
C      1  0.5252970000000  0.7059770000000  0.3198700000000 1.0
C      1  0.2642530000000  0.5416390000000  0.3545780000000 1.0
C      1  0.2660760000000  0.4590790000000  0.3536860000000 1.0
C      1  0.3103860000000  0.3438200000000  0.5209220000000 1.0
C      1  0.3041650000000  0.6568000000000  0.5233260000000 1.0
C      1  0.5010220000000  0.4566290000000  0.6323300000000 1.0
C      1  0.5001160000000  0.5504120000000  0.6336810000000 1.0
C      1  0.2471400000000  0.4536520000000  0.4851160000000 1.0
C      1  0.2456970000000  0.5447340000000  0.4861350000000 1.0
END
