TITL C-3036485-3770-528 6.03733916726575e-06 3375 -327.160564937533 0 0 60 (C1) n - 1
REM
REM in /home/bkarasulu/work/CARBON/AIRSS/Generating-Clusters/REBO/Higher-Symm/Only-C60
REM
REM
REM
REM
REM
REM ./C.cell (a2850807a9bf4ad07a5b6933b78d9264)
REM AIRSS Version 0.9.1 bugfix July 2018 build 013d7b7c2542+ Fri, 06 Jul 2018 19:26:36 +0100
REM compiler GCC version 9.2.1 20190827 (Red Hat 9.2.1-1)
REM options -cpp -mtune=generic -march=x86-64 -g -O0 -fpre-include=/usr/include/finclude/math-vector-fortran.h
REM seed -1535436117 806283355 1196092773 381412233 326809897 -288034968 1906646833 -355441632 874244604 580753348 259097209 -576631273 -1116941947 1904073154 1456699807 1844983532 1303534046 791003211 -569510778 987695862 1348650567 -1400475223 1865564859 -256626076 62149659 1496422270 -348303248 -1424732253 130138769 -30228641 -1439646609 558255284 1628988538
REM
CELL 1.54180   15.00000   15.00000   15.00000   90.00000   90.00000   90.00000
LATT -1
SFAC C  
C      1  0.4073980000000  0.5650060000000  0.5152980000000 1.0
C      1  0.4871540000000  0.5665860000000  0.5943410000000 1.0
C      1  0.5847850000000  0.5678450000000  0.5425150000000 1.0
C      1  0.5678330000000  0.5665950000000  0.4318060000000 1.0
C      1  0.4569290000000  0.5660330000000  0.4164920000000 1.0
C      1  0.6497170000000  0.5985770000000  0.3162860000000 1.0
C      1  0.3740860000000  0.6087160000000  0.3027940000000 1.0
C      1  0.2694300000000  0.5976900000000  0.5606340000000 1.0
C      1  0.4921470000000  0.6041810000000  0.7364160000000 1.0
C      1  0.7180490000000  0.6076310000000  0.5862070000000 1.0
C      1  0.5491450000000  0.5137260000000  0.6579900000000 1.0
C      1  0.6648040000000  0.5156630000000  0.5068570000000 1.0
C      1  0.5527060000000  0.5124600000000  0.3429370000000 1.0
C      1  0.3701490000000  0.5160160000000  0.3976110000000 1.0
C      1  0.3659740000000  0.5135500000000  0.5949620000000 1.0
C      1  0.3203730000000  0.4193260000000  0.5625650000000 1.0
C      1  0.5027810000000  0.4207880000000  0.6907300000000 1.0
C      1  0.6821450000000  0.4197290000000  0.5558640000000 1.0
C      1  0.6086110000000  0.4190450000000  0.3440680000000 1.0
C      1  0.3852170000000  0.4206120000000  0.3474020000000 1.0
C      1  0.4614850000000  0.4270910000000  0.4311210000000 1.0
C      1  0.4230260000000  0.4261430000000  0.5150030000000 1.0
C      1  0.4900560000000  0.4270660000000  0.5782560000000 1.0
C      1  0.5711840000000  0.4268470000000  0.5336490000000 1.0
C      1  0.5529890000000  0.4268010000000  0.4426760000000 1.0
C      1  0.4527080000000  0.2958340000000  0.4158480000000 1.0
C      1  0.4028970000000  0.2953500000000  0.5178310000000 1.0
C      1  0.4874970000000  0.2954410000000  0.5939880000000 1.0
C      1  0.5883420000000  0.2958200000000  0.5412250000000 1.0
C      1  0.5659880000000  0.2956310000000  0.4299720000000 1.0
C      1  0.3755930000000  0.4438020000000  0.6805500000000 1.0
C      1  0.6325360000000  0.4426080000000  0.6745960000000 1.0
C      1  0.7044880000000  0.4477910000000  0.4283530000000 1.0
C      1  0.4950050000000  0.4424750000000  0.2798790000000 1.0
C      1  0.2922650000000  0.4478690000000  0.4377990000000 1.0
C      1  0.5922410000000  0.6744860000000  0.4670040000000 1.0
C      1  0.4975960000000  0.6736180000000  0.4034430000000 1.0
C      1  0.4065540000000  0.6731880000000  0.4726040000000 1.0
C      1  0.4428460000000  0.6727180000000  0.5807850000000 1.0
C      1  0.5569800000000  0.6758400000000  0.5755650000000 1.0
C      1  0.3518180000000  0.5561960000000  0.6936210000000 1.0
C      1  0.6440260000000  0.5590630000000  0.6858010000000 1.0
C      1  0.7334650000000  0.5603650000000  0.4344220000000 1.0
C      1  0.4951310000000  0.5591380000000  0.2639920000000 1.0
C      1  0.2722460000000  0.5608310000000  0.4168930000000 1.0
C      1  0.7185220000000  0.5011680000000  0.6267710000000 1.0
C      1  0.6839670000000  0.5046190000000  0.3306590000000 1.0
C      1  0.3983890000000  0.5026430000000  0.2692230000000 1.0
C      1  0.2516570000000  0.5042080000000  0.5290340000000 1.0
C      1  0.4514820000000  0.5085440000000  0.7469920000000 1.0
C      1  0.6973450000000  0.6431870000000  0.4969620000000 1.0
C      1  0.5580290000000  0.6400630000000  0.3129870000000 1.0
C      1  0.3379840000000  0.6435490000000  0.3869780000000 1.0
C      1  0.3403390000000  0.6403680000000  0.6183190000000 1.0
C      1  0.5665430000000  0.6416660000000  0.6835320000000 1.0
C      1  0.3526490000000  0.3507100000000  0.4313040000000 1.0
C      1  0.3899910000000  0.3490680000000  0.6184160000000 1.0
C      1  0.5768430000000  0.3488980000000  0.6415550000000 1.0
C      1  0.6586570000000  0.3506650000000  0.4684770000000 1.0
C      1  0.5192050000000  0.3488560000000  0.3401370000000 1.0
END
