TITL C-3036486-2224-1098 0.0468547955278546 3375 -331.539171512337 0 0 60 (C1) n - 1
REM
REM in /home/bkarasulu/work/CARBON/AIRSS/Generating-Clusters/REBO/Higher-Symm/Only-C60
REM
REM
REM
REM
REM
REM ./C.cell (a2850807a9bf4ad07a5b6933b78d9264)
REM AIRSS Version 0.9.1 bugfix July 2018 build 013d7b7c2542+ Fri, 06 Jul 2018 19:26:36 +0100
REM compiler GCC version 9.2.1 20190827 (Red Hat 9.2.1-1)
REM options -cpp -mtune=generic -march=x86-64 -g -O0 -fpre-include=/usr/include/finclude/math-vector-fortran.h
REM seed -347509528 186582100 -30204840 -648971855 2040231049 -913667994 1999964012 -508316421 -1348027216 868694528 193253000 929123986 -1305145687 56901813 1443295497 1285023387 989030795 709707731 1053129920 1819686904 1425478951 888317474 1064029477 144389076 -960800767 -1703434570 1142003527 1097118294 290640114 1959342432 1287871457 -778173148 1926463591
REM
CELL 1.54180   15.00000   15.00000   15.00000   90.00000   90.00000   90.00000
LATT -1
SFAC C  
C      1  0.3845390000000  0.4455950000000  0.5759670000000 1.0
C      1  0.3834960000000  0.5519500000000  0.5797640000000 1.0
C      1  0.4703840000000  0.6210670000000  0.5741540000000 1.0
C      1  0.5735440000000  0.5961880000000  0.5638040000000 1.0
C      1  0.6035580000000  0.5053340000000  0.5684840000000 1.0
C      1  0.5582820000000  0.4205540000000  0.5761090000000 1.0
C      1  0.4657350000000  0.3961880000000  0.5789620000000 1.0
C      1  0.5689400000000  0.5891580000000  0.6983790000000 1.0
C      1  0.6142640000000  0.4988130000000  0.7008280000000 1.0
C      1  0.5817900000000  0.4047950000000  0.7058010000000 1.0
C      1  0.4728480000000  0.3762180000000  0.7103360000000 1.0
C      1  0.3785260000000  0.4406470000000  0.7092150000000 1.0
C      1  0.3873170000000  0.5545540000000  0.7125560000000 1.0
C      1  0.4767650000000  0.6228280000000  0.7070140000000 1.0
C      1  0.6498040000000  0.6519910000000  0.4678320000000 1.0
C      1  0.7328090000000  0.5000830000000  0.4671840000000 1.0
C      1  0.6457760000000  0.3313170000000  0.4648830000000 1.0
C      1  0.4551450000000  0.2835590000000  0.4644570000000 1.0
C      1  0.3105930000000  0.4057180000000  0.4699680000000 1.0
C      1  0.3083750000000  0.5952190000000  0.4786990000000 1.0
C      1  0.4671490000000  0.7037970000000  0.4692160000000 1.0
C      1  0.6199410000000  0.3500580000000  0.6221200000000 1.0
C      1  0.4544800000000  0.3055050000000  0.6233980000000 1.0
C      1  0.3090110000000  0.4067620000000  0.6359870000000 1.0
C      1  0.3083500000000  0.5937360000000  0.6451900000000 1.0
C      1  0.4585730000000  0.7055980000000  0.6409250000000 1.0
C      1  0.6244240000000  0.6553740000000  0.6352360000000 1.0
C      1  0.6916140000000  0.5003970000000  0.6239740000000 1.0
C      1  0.6680830000000  0.6890740000000  0.5524510000000 1.0
C      1  0.7601630000000  0.4968760000000  0.5583870000000 1.0
C      1  0.6658760000000  0.3069350000000  0.5512430000000 1.0
C      1  0.4462060000000  0.2472900000000  0.5488430000000 1.0
C      1  0.2695640000000  0.3843090000000  0.5482620000000 1.0
C      1  0.2683510000000  0.6150400000000  0.5587130000000 1.0
C      1  0.4625760000000  0.7509990000000  0.5486450000000 1.0
C      1  0.6060700000000  0.6485290000000  0.3160420000000 1.0
C      1  0.6826450000000  0.5770140000000  0.3302120000000 1.0
C      1  0.6852050000000  0.3596380000000  0.3205920000000 1.0
C      1  0.4935480000000  0.2863050000000  0.3256880000000 1.0
C      1  0.3504760000000  0.3721810000000  0.3139230000000 1.0
C      1  0.2850600000000  0.5388440000000  0.3231400000000 1.0
C      1  0.4011070000000  0.7061880000000  0.3291940000000 1.0
C      1  0.7044890000000  0.5833110000000  0.4271770000000 1.0
C      1  0.6900320000000  0.4183040000000  0.4186510000000 1.0
C      1  0.5521250000000  0.3004320000000  0.4228800000000 1.0
C      1  0.3807350000000  0.3474830000000  0.4212000000000 1.0
C      1  0.3057930000000  0.5036620000000  0.4296200000000 1.0
C      1  0.3790600000000  0.6575580000000  0.4302460000000 1.0
C      1  0.5577880000000  0.6734940000000  0.4159030000000 1.0
C      1  0.5541900000000  0.5519660000000  0.3472350000000 1.0
C      1  0.6312280000000  0.4784870000000  0.3418520000000 1.0
C      1  0.5825350000000  0.3813420000000  0.3495780000000 1.0
C      1  0.4715840000000  0.3882620000000  0.3636310000000 1.0
C      1  0.3887120000000  0.4653750000000  0.3603360000000 1.0
C      1  0.3837530000000  0.5764330000000  0.3503490000000 1.0
C      1  0.4783080000000  0.6326240000000  0.3453430000000 1.0
C      1  0.4803270000000  0.4888420000000  0.7199360000000 1.0
C      1  0.5004670000000  0.5255930000000  0.4320630000000 1.0
C      1  0.4847010000000  0.5072240000000  0.5086290000000 1.0
C      1  0.4830960000000  0.5203800000000  0.6221330000000 1.0
END
