TITL C-3036483-1610-1106 -1.19985389406617e-06 3375 -340.644276092012 0 0 60 (C3i) n - 1
REM
REM in /home/bkarasulu/work/CARBON/AIRSS/Generating-Clusters/REBO/Higher-Symm/Only-C60
REM
REM
REM
REM
REM
REM ./C.cell (a2850807a9bf4ad07a5b6933b78d9264)
REM AIRSS Version 0.9.1 bugfix July 2018 build 013d7b7c2542+ Fri, 06 Jul 2018 19:26:36 +0100
REM compiler GCC version 9.2.1 20190827 (Red Hat 9.2.1-1)
REM options -cpp -mtune=generic -march=x86-64 -g -O0 -fpre-include=/usr/include/finclude/math-vector-fortran.h
REM seed 943850363 1659741960 657717617 -2125151520 1447459311 1175558835 1264243014 1103432670 -1445324047 -1251851331 297946409 1625374347 -1871188682 151637802 -9320319 -1301073154 -1318651226 427769817 -626896669 -1720816412 -858371003 -1261649356 -1259103581 -44760654 -396637187 922508900 186921796 -1920885825 -1063061368 -1991241812 2055974607 -448764434 1048741686
REM
CELL 1.54180   15.00000   15.00000   15.00000   90.00000   90.00000   90.00000
LATT -1
SFAC C  
C      1  0.4854210000000  0.3569120000000  0.5564410000000 1.0
C      1  0.5145770000000  0.3795770000000  0.4043030000000 1.0
C      1  0.4854230000000  0.5226650000000  0.3478620000000 1.0
C      1  0.5145790000000  0.6430880000000  0.4435590000000 1.0
C      1  0.4854230000000  0.6204230000000  0.5956970000000 1.0
C      1  0.5145770000000  0.4773350000000  0.6521380000000 1.0
C      1  0.3705810000000  0.4180350000000  0.4998020000000 1.0
C      1  0.6294180000000  0.4591870000000  0.4289170000000 1.0
C      1  0.3705820000000  0.5411550000000  0.4291140000000 1.0
C      1  0.6294190000000  0.5819650000000  0.5001980000000 1.0
C      1  0.3705820000000  0.5408130000000  0.5710830000000 1.0
C      1  0.6294180000000  0.4588450000000  0.5708860000000 1.0
C      1  0.6795770000000  0.5900920000000  0.6232590000000 1.0
C      1  0.3204220000000  0.4383030000000  0.6396520000000 1.0
C      1  0.6795750000000  0.3482070000000  0.5163950000000 1.0
C      1  0.3204230000000  0.4099080000000  0.3767410000000 1.0
C      1  0.6795780000000  0.5616970000000  0.3603480000000 1.0
C      1  0.3204250000000  0.6517930000000  0.4836050000000 1.0
C      1  0.6322380000000  0.3263080000000  0.4373890000000 1.0
C      1  0.3677610000000  0.4673780000000  0.3182730000000 1.0
C      1  0.6322410000000  0.6410670000000  0.3808850000000 1.0
C      1  0.3677620000000  0.6736920000000  0.5626110000000 1.0
C      1  0.6322390000000  0.5326220000000  0.6817270000000 1.0
C      1  0.3677590000000  0.3589330000000  0.6191150000000 1.0
C      1  0.4650470000000  0.2595210000000  0.5125390000000 1.0
C      1  0.5349510000000  0.3689010000000  0.2980080000000 1.0
C      1  0.4650500000000  0.6093810000000  0.2854690000000 1.0
C      1  0.5349530000000  0.7404790000000  0.4874610000000 1.0
C      1  0.4650490000000  0.6310990000000  0.7019920000000 1.0
C      1  0.5349500000000  0.3906190000000  0.7145310000000 1.0
C      1  0.3678600000000  0.5806040000000  0.3266510000000 1.0
C      1  0.6321430000000  0.6904250000000  0.4831310000000 1.0
C      1  0.3678590000000  0.6098230000000  0.6564780000000 1.0
C      1  0.6321400000000  0.4193960000000  0.6733490000000 1.0
C      1  0.3678570000000  0.3095750000000  0.5168690000000 1.0
C      1  0.6321410000000  0.3901770000000  0.3435220000000 1.0
C      1  0.5401420000000  0.5662550000000  0.7073260000000 1.0
C      1  0.4598560000000  0.3535780000000  0.6610410000000 1.0
C      1  0.5401410000000  0.2873230000000  0.4537160000000 1.0
C      1  0.4598580000000  0.4337450000000  0.2926740000000 1.0
C      1  0.5401440000000  0.6464220000000  0.3389590000000 1.0
C      1  0.4598590000000  0.7126770000000  0.5462840000000 1.0
C      1  0.3426140000000  0.5078910000000  0.6971480000000 1.0
C      1  0.6573840000000  0.3332090000000  0.6054080000000 1.0
C      1  0.3426130000000  0.3253210000000  0.4082580000000 1.0
C      1  0.6573860000000  0.4921090000000  0.3028520000000 1.0
C      1  0.3426160000000  0.6667910000000  0.3945920000000 1.0
C      1  0.6573870000000  0.6746790000000  0.5917420000000 1.0
C      1  0.7273570000000  0.5158110000000  0.4386000000000 1.0
C      1  0.2726440000000  0.5610830000000  0.4829930000000 1.0
C      1  0.7273560000000  0.5452670000000  0.5443960000000 1.0
C      1  0.2726430000000  0.4841890000000  0.5614000000000 1.0
C      1  0.7273560000000  0.4389170000000  0.5170070000000 1.0
C      1  0.2726440000000  0.4547330000000  0.4556040000000 1.0
C      1  0.4424010000000  0.4532720000000  0.4274560000000 1.0
C      1  0.5576000000000  0.5394600000000  0.4232600000000 1.0
C      1  0.4424010000000  0.5861900000000  0.4958040000000 1.0
C      1  0.5575990000000  0.5467280000000  0.5725440000000 1.0
C      1  0.4424000000000  0.4605400000000  0.5767400000000 1.0
C      1  0.5575990000000  0.4138100000000  0.5041960000000 1.0
END
