TITL C-3036483-1610-137 5.89552007502431e-06 3375 -330.583849030524 0 0 60 (C1) n - 1
REM
REM in /home/bkarasulu/work/CARBON/AIRSS/Generating-Clusters/REBO/Higher-Symm/Only-C60
REM
REM
REM
REM
REM
REM ./C.cell (a2850807a9bf4ad07a5b6933b78d9264)
REM AIRSS Version 0.9.1 bugfix July 2018 build 013d7b7c2542+ Fri, 06 Jul 2018 19:26:36 +0100
REM compiler GCC version 9.2.1 20190827 (Red Hat 9.2.1-1)
REM options -cpp -mtune=generic -march=x86-64 -g -O0 -fpre-include=/usr/include/finclude/math-vector-fortran.h
REM seed 1228270559 -2020704732 -1340584632 -1514857385 -891410588 1941953756 572933348 -454844403 -1562490614 -1192836090 -1812869676 1375022062 1632337624 1721666347 1533362632 -1291934791 161973658 1640317324 -183261824 260622904 1791443835 -1303495215 1339474580 1567505617 1811724277 -1159138719 -1316541493 -945810226 652202932 -885181394 -2058570609 704925786 1747898341
REM
CELL 1.54180   15.00000   15.00000   15.00000   90.00000   90.00000   90.00000
LATT -1
SFAC C  
C      1  0.4123320000000  0.5726120000000  0.3856710000000 1.0
C      1  0.6105760000000  0.5462400000000  0.3901490000000 1.0
C      1  0.4693210000000  0.3848330000000  0.3947920000000 1.0
C      1  0.4246570000000  0.3931690000000  0.4987900000000 1.0
C      1  0.4488680000000  0.6006390000000  0.4898010000000 1.0
C      1  0.6254600000000  0.4994210000000  0.4930420000000 1.0
C      1  0.6608610000000  0.4231280000000  0.3902590000000 1.0
C      1  0.3386830000000  0.4152050000000  0.3995720000000 1.0
C      1  0.4999850000000  0.6840360000000  0.4003530000000 1.0
C      1  0.5785170000000  0.4554960000000  0.2160320000000 1.0
C      1  0.4819480000000  0.4035270000000  0.1961050000000 1.0
C      1  0.4863870000000  0.5167400000000  0.2029460000000 1.0
C      1  0.5785910000000  0.3687220000000  0.3692020000000 1.0
C      1  0.3283070000000  0.5147640000000  0.3852760000000 1.0
C      1  0.5937630000000  0.6469540000000  0.3859000000000 1.0
C      1  0.2405200000000  0.4562120000000  0.6025750000000 1.0
C      1  0.5849250000000  0.7493410000000  0.6005790000000 1.0
C      1  0.6701130000000  0.3016080000000  0.5850490000000 1.0
C      1  0.4871820000000  0.2841170000000  0.5683910000000 1.0
C      1  0.3124190000000  0.6242820000000  0.5837620000000 1.0
C      1  0.6969280000000  0.6043840000000  0.5790130000000 1.0
C      1  0.5056120000000  0.6856750000000  0.6106400000000 1.0
C      1  0.6537820000000  0.4028150000000  0.5999720000000 1.0
C      1  0.3346400000000  0.4138840000000  0.6090380000000 1.0
C      1  0.7180690000000  0.5176840000000  0.4000510000000 1.0
C      1  0.3814180000000  0.3163160000000  0.3998470000000 1.0
C      1  0.3894400000000  0.6818060000000  0.4036440000000 1.0
C      1  0.7405250000000  0.5022300000000  0.5074420000000 1.0
C      1  0.3694330000000  0.2916040000000  0.5087800000000 1.0
C      1  0.3977230000000  0.6991910000000  0.5152830000000 1.0
C      1  0.6463730000000  0.6880920000000  0.5354510000000 1.0
C      1  0.5833040000000  0.2858640000000  0.5193940000000 1.0
C      1  0.2636470000000  0.5413330000000  0.5368610000000 1.0
C      1  0.4673690000000  0.2671770000000  0.4572780000000 1.0
C      1  0.3036610000000  0.6511890000000  0.4731650000000 1.0
C      1  0.7298110000000  0.6083080000000  0.4694920000000 1.0
C      1  0.4014080000000  0.6856870000000  0.6212250000000 1.0
C      1  0.7014560000000  0.4923700000000  0.6054660000000 1.0
C      1  0.3881420000000  0.3268090000000  0.6083500000000 1.0
C      1  0.5660000000000  0.4150520000000  0.6483780000000 1.0
C      1  0.3952760000000  0.4811700000000  0.6543460000000 1.0
C      1  0.5380840000000  0.5971770000000  0.6506490000000 1.0
C      1  0.4630000000000  0.5461530000000  0.3083510000000 1.0
C      1  0.5665360000000  0.5057930000000  0.3152880000000 1.0
C      1  0.4820690000000  0.4336600000000  0.3054520000000 1.0
C      1  0.5846710000000  0.4874470000000  0.7094020000000 1.0
C      1  0.4499090000000  0.4266980000000  0.7118870000000 1.0
C      1  0.4674470000000  0.5761380000000  0.7126240000000 1.0
C      1  0.5376740000000  0.6711970000000  0.5042560000000 1.0
C      1  0.6301330000000  0.3856670000000  0.4908150000000 1.0
C      1  0.3278710000000  0.4531430000000  0.5033150000000 1.0
C      1  0.5625270000000  0.2809970000000  0.4132410000000 1.0
C      1  0.2602790000000  0.5622330000000  0.4320370000000 1.0
C      1  0.6679660000000  0.6874650000000  0.4311990000000 1.0
C      1  0.6405230000000  0.5639270000000  0.6658430000000 1.0
C      1  0.4856920000000  0.3408970000000  0.6643290000000 1.0
C      1  0.3732340000000  0.5879220000000  0.6703550000000 1.0
C      1  0.4482030000000  0.5384270000000  0.5718510000000 1.0
C      1  0.5602430000000  0.5213930000000  0.5683790000000 1.0
C      1  0.4865060000000  0.4339820000000  0.5693640000000 1.0
END
