TITL C-3036486-2224-540 5.89500126807323e-06 3375 -354.006124700278 0 0 60 (C5) n - 1
REM
REM in /home/bkarasulu/work/CARBON/AIRSS/Generating-Clusters/REBO/Higher-Symm/Only-C60
REM
REM
REM
REM
REM
REM ./C.cell (a2850807a9bf4ad07a5b6933b78d9264)
REM AIRSS Version 0.9.1 bugfix July 2018 build 013d7b7c2542+ Fri, 06 Jul 2018 19:26:36 +0100
REM compiler GCC version 9.2.1 20190827 (Red Hat 9.2.1-1)
REM options -cpp -mtune=generic -march=x86-64 -g -O0 -fpre-include=/usr/include/finclude/math-vector-fortran.h
REM seed 990257679 220201281 1582260230 -1469876788 5292339 -1156804161 2074982214 107924010 -738632949 978697161 -955721237 -1645231505 42455330 481164989 -1017082138 -873732579 41354557 1009570961 -158394084 -1060295148 -131572183 129320420 1668660858 797670148 1701296692 -1899880309 -93051938 -454405370 -528891900 521747950 422627798 -678452857 -1758643125
REM
CELL 1.54180   15.00000   15.00000   15.00000   90.00000   90.00000   90.00000
LATT -1
SFAC C  
C      1  0.3236300000000  0.3951040000000  0.6314020000000 1.0
C      1  0.3457290000000  0.6353220000000  0.6313950000000 1.0
C      1  0.5810200000000  0.6885350000000  0.6314010000000 1.0
C      1  0.7043380000000  0.4812050000000  0.6314120000000 1.0
C      1  0.5452620000000  0.2998540000000  0.6314120000000 1.0
C      1  0.4032160000000  0.5864550000000  0.4071370000000 1.0
C      1  0.5523200000000  0.6187640000000  0.4071410000000 1.0
C      1  0.6291230000000  0.4869410000000  0.4071480000000 1.0
C      1  0.5274870000000  0.3731620000000  0.4071480000000 1.0
C      1  0.3878680000000  0.4346640000000  0.4071410000000 1.0
C      1  0.2964400000000  0.4819030000000  0.6301210000000 1.0
C      1  0.4198790000000  0.6880030000000  0.6301190000000 1.0
C      1  0.6540360000000  0.6342950000000  0.6301280000000 1.0
C      1  0.6753150000000  0.3950010000000  0.6301360000000 1.0
C      1  0.4543090000000  0.3008180000000  0.6301320000000 1.0
C      1  0.4403780000000  0.5722640000000  0.2423910000000 1.0
C      1  0.5503160000000  0.5790370000000  0.2423950000000 1.0
C      1  0.5907300000000  0.4765730000000  0.2423990000000 1.0
C      1  0.5057690000000  0.4064730000000  0.2423980000000 1.0
C      1  0.4128470000000  0.4656140000000  0.2423930000000 1.0
C      1  0.5009720000000  0.6827790000000  0.5564220000000 1.0
C      1  0.6741310000000  0.5555570000000  0.5564320000000 1.0
C      1  0.6066440000000  0.3515590000000  0.5564360000000 1.0
C      1  0.3917770000000  0.3527040000000  0.5564290000000 1.0
C      1  0.3264680000000  0.5574090000000  0.5564200000000 1.0
C      1  0.4999840000000  0.5836580000000  0.7364180000000 1.0
C      1  0.5795460000000  0.5258650000000  0.7364220000000 1.0
C      1  0.5491680000000  0.4323370000000  0.7364240000000 1.0
C      1  0.4508310000000  0.4323270000000  0.7364210000000 1.0
C      1  0.4204330000000  0.5258480000000  0.7364170000000 1.0
C      1  0.7235190000000  0.5608550000000  0.4638870000000 1.0
C      1  0.6269500000000  0.3062260000000  0.4638910000000 1.0
C      1  0.3549420000000  0.3193840000000  0.4638820000000 1.0
C      1  0.2834010000000  0.5821460000000  0.4638720000000 1.0
C      1  0.5111940000000  0.7313830000000  0.4638750000000 1.0
C      1  0.4018910000000  0.3651680000000  0.6883150000000 1.0
C      1  0.3414410000000  0.5516400000000  0.6883070000000 1.0
C      1  0.5001060000000  0.6667550000000  0.6883090000000 1.0
C      1  0.6586160000000  0.5514280000000  0.6883170000000 1.0
C      1  0.5979160000000  0.3650370000000  0.6883210000000 1.0
C      1  0.6601870000000  0.3780280000000  0.3987060000000 1.0
C      1  0.4335040000000  0.3099630000000  0.3987000000000 1.0
C      1  0.2987210000000  0.5045180000000  0.3986900000000 1.0
C      1  0.4421030000000  0.6928250000000  0.3986890000000 1.0
C      1  0.6655020000000  0.6146500000000  0.3986990000000 1.0
C      1  0.4274320000000  0.3883050000000  0.3207510000000 1.0
C      1  0.3713560000000  0.5345020000000  0.3207450000000 1.0
C      1  0.4930700000000  0.6330110000000  0.3207460000000 1.0
C      1  0.6243680000000  0.5476950000000  0.3207530000000 1.0
C      1  0.5838020000000  0.3964590000000  0.3207560000000 1.0
C      1  0.5887920000000  0.5228820000000  0.4983480000000 1.0
C      1  0.5492000000000  0.4226250000000  0.4983500000000 1.0
C      1  0.4416160000000  0.4292980000000  0.4983460000000 1.0
C      1  0.4147170000000  0.5336780000000  0.4983420000000 1.0
C      1  0.5056760000000  0.5915170000000  0.4983430000000 1.0
C      1  0.5319830000000  0.2607890000000  0.4261020000000 1.0
C      1  0.2823840000000  0.3956630000000  0.4260900000000 1.0
C      1  0.3335260000000  0.6747240000000  0.4260830000000 1.0
C      1  0.6147320000000  0.7123190000000  0.4260910000000 1.0
C      1  0.7373860000000  0.4564940000000  0.4261030000000 1.0
END
