TITL C-3036479-9801-704 5.11534674268983e-06 3375 -350.429340671595 0 0 60 (D5) n - 1
REM
REM in /home/bkarasulu/work/CARBON/AIRSS/Generating-Clusters/REBO/Higher-Symm/Only-C60
REM
REM
REM
REM
REM
REM ./C.cell (a2850807a9bf4ad07a5b6933b78d9264)
REM AIRSS Version 0.9.1 bugfix July 2018 build 013d7b7c2542+ Fri, 06 Jul 2018 19:26:36 +0100
REM compiler GCC version 9.2.1 20190827 (Red Hat 9.2.1-1)
REM options -cpp -mtune=generic -march=x86-64 -g -O0 -fpre-include=/usr/include/finclude/math-vector-fortran.h
REM seed -423112623 711109397 -643286976 529544324 -1252691429 -1173883922 -3385012 -712831491 843770301 -219904779 -1187728962 -578716476 -610985812 -2057260053 1269138168 1263865017 1954833045 -482839823 17219070 -32410000 1735663670 -172815708 -1402018886 -319488013 2064175207 1917201998 950052229 756114477 -820674340 -1086806214 -1226839882 654154630 -128006402
REM
CELL 1.54180   15.00000   15.00000   15.00000   90.00000   90.00000   90.00000
LATT -1
SFAC C  
C      1  0.3484290000000  0.5071040000000  0.3334100000000 1.0
C      1  0.2947260000000  0.5071060000000  0.5926730000000 1.0
C      1  0.5247040000000  0.5071080000000  0.7238640000000 1.0
C      1  0.7205420000000  0.5071060000000  0.5456830000000 1.0
C      1  0.6115980000000  0.5071030000000  0.3043690000000 1.0
C      1  0.3484290000000  0.4928960000000  0.6665900000000 1.0
C      1  0.2947260000000  0.4928940000000  0.4073270000000 1.0
C      1  0.5247040000000  0.4928920000000  0.2761360000000 1.0
C      1  0.7205420000000  0.4928940000000  0.4543170000000 1.0
C      1  0.6115980000000  0.4928970000000  0.6956310000000 1.0
C      1  0.2705500000000  0.5716320000000  0.4541400000000 1.0
C      1  0.3854810000000  0.5716350000000  0.7040470000000 1.0
C      1  0.6586730000000  0.5716340000000  0.6719680000000 1.0
C      1  0.7125840000000  0.5716310000000  0.4022330000000 1.0
C      1  0.4727110000000  0.5716300000000  0.2676080000000 1.0
C      1  0.2705500000000  0.4283680000000  0.5458600000000 1.0
C      1  0.3854810000000  0.4283650000000  0.2959530000000 1.0
C      1  0.6586730000000  0.4283660000000  0.3280320000000 1.0
C      1  0.7125840000000  0.4283690000000  0.5977670000000 1.0
C      1  0.4727110000000  0.4283700000000  0.7323920000000 1.0
C      1  0.5591400000000  0.3625380000000  0.5762230000000 1.0
C      1  0.5907660000000  0.3625370000000  0.4673100000000 1.0
C      1  0.4969560000000  0.3625360000000  0.4035760000000 1.0
C      1  0.4073530000000  0.3625360000000  0.4730990000000 1.0
C      1  0.4457840000000  0.3625380000000  0.5798010000000 1.0
C      1  0.5591400000000  0.6374620000000  0.4237770000000 1.0
C      1  0.5907660000000  0.6374630000000  0.5326900000000 1.0
C      1  0.4969560000000  0.6374640000000  0.5964240000000 1.0
C      1  0.4073530000000  0.6374640000000  0.5269010000000 1.0
C      1  0.4457840000000  0.6374620000000  0.4201990000000 1.0
C      1  0.5485580000000  0.8116060000000  0.4321940000000 1.0
C      1  0.4505210000000  0.8116060000000  0.4328630000000 1.0
C      1  0.4208630000000  0.8116080000000  0.5263090000000 1.0
C      1  0.5005700000000  0.8116080000000  0.5833910000000 1.0
C      1  0.5794900000000  0.8116070000000  0.5252250000000 1.0
C      1  0.5485580000000  0.1883940000000  0.5678060000000 1.0
C      1  0.4505210000000  0.1883940000000  0.5671370000000 1.0
C      1  0.4208630000000  0.1883920000000  0.4736910000000 1.0
C      1  0.5005700000000  0.1883920000000  0.4166090000000 1.0
C      1  0.5794900000000  0.1883930000000  0.4747750000000 1.0
C      1  0.3647750000000  0.2637810000000  0.4551890000000 1.0
C      1  0.4155930000000  0.2637830000000  0.6147610000000 1.0
C      1  0.5830590000000  0.2637840000000  0.6157410000000 1.0
C      1  0.6357400000000  0.2637820000000  0.4567740000000 1.0
C      1  0.5008340000000  0.2637810000000  0.3575480000000 1.0
C      1  0.3647750000000  0.7362190000000  0.5448110000000 1.0
C      1  0.4155930000000  0.7362170000000  0.3852390000000 1.0
C      1  0.5830590000000  0.7362160000000  0.3842590000000 1.0
C      1  0.6357400000000  0.7362180000000  0.5432260000000 1.0
C      1  0.5008340000000  0.7362190000000  0.6424520000000 1.0
C      1  0.6269870000000  0.5813840000000  0.3627080000000 1.0
C      1  0.4086690000000  0.5813840000000  0.3368010000000 1.0
C      1  0.3165670000000  0.5813860000000  0.5364290000000 1.0
C      1  0.4779630000000  0.5813880000000  0.6857110000000 1.0
C      1  0.6698130000000  0.5813870000000  0.5783460000000 1.0
C      1  0.6269870000000  0.4186160000000  0.6372920000000 1.0
C      1  0.4086690000000  0.4186160000000  0.6631990000000 1.0
C      1  0.3165670000000  0.4186140000000  0.4635710000000 1.0
C      1  0.4779630000000  0.4186120000000  0.3142890000000 1.0
C      1  0.6698130000000  0.4186130000000  0.4216540000000 1.0
END
