TITL C-3036485-3770-271 5.14471565092653e-06 3375 -374.753148652355 0 0 60 (C3i) n - 1
REM
REM in /home/bkarasulu/work/CARBON/AIRSS/Generating-Clusters/REBO/Higher-Symm/Only-C60
REM
REM
REM
REM
REM
REM ./C.cell (a2850807a9bf4ad07a5b6933b78d9264)
REM AIRSS Version 0.9.1 bugfix July 2018 build 013d7b7c2542+ Fri, 06 Jul 2018 19:26:36 +0100
REM compiler GCC version 9.2.1 20190827 (Red Hat 9.2.1-1)
REM options -cpp -mtune=generic -march=x86-64 -g -O0 -fpre-include=/usr/include/finclude/math-vector-fortran.h
REM seed -475491922 -971109555 1685613471 -236777528 273462954 321002731 -1375468618 -311212139 -922806487 1126762042 1531707613 -961613380 -1787216524 111193624 1955487037 -1115018165 3701135 1861757346 -234954465 -309751467 1112903884 -753990597 821303774 1684658572 851303080 679682775 -526003512 485525842 -1886751128 -1669285618 -484365582 1744221050 -340900852
REM
CELL 1.54180   15.00000   15.00000   15.00000   90.00000   90.00000   90.00000
LATT -1
SFAC C  
C      1  0.5017820000000  0.2533920000000  0.4912960000000 1.0
C      1  0.4982190000000  0.3842340000000  0.2820790000000 1.0
C      1  0.5017820000000  0.6308420000000  0.2907830000000 1.0
C      1  0.4982180000000  0.7466080000000  0.5087040000000 1.0
C      1  0.5017810000000  0.6157660000000  0.7179210000000 1.0
C      1  0.4982180000000  0.3691580000000  0.7092170000000 1.0
C      1  0.4562100000000  0.3197290000000  0.4266950000000 1.0
C      1  0.5437900000000  0.4733480000000  0.3072280000000 1.0
C      1  0.4562110000000  0.6536200000000  0.3805330000000 1.0
C      1  0.5437900000000  0.6802710000000  0.5733050000000 1.0
C      1  0.4562100000000  0.5266520000000  0.6927720000000 1.0
C      1  0.5437890000000  0.3463800000000  0.6194670000000 1.0
C      1  0.5074270000000  0.4890250000000  0.4084640000000 1.0
C      1  0.4925730000000  0.5737850000000  0.4447280000000 1.0
C      1  0.5074270000000  0.5847600000000  0.5362630000000 1.0
C      1  0.4925730000000  0.5109750000000  0.5915360000000 1.0
C      1  0.5074270000000  0.4262150000000  0.5552720000000 1.0
C      1  0.4925730000000  0.4152400000000  0.4637370000000 1.0
C      1  0.3930240000000  0.6942370000000  0.6162040000000 1.0
C      1  0.6069750000000  0.4964820000000  0.7263170000000 1.0
C      1  0.3930240000000  0.3022450000000  0.6101120000000 1.0
C      1  0.6069760000000  0.3057630000000  0.3837960000000 1.0
C      1  0.3930250000000  0.5035180000000  0.2736830000000 1.0
C      1  0.6069760000000  0.6977550000000  0.3898880000000 1.0
C      1  0.5964930000000  0.6500910000000  0.3022250000000 1.0
C      1  0.4035080000000  0.7463240000000  0.5310950000000 1.0
C      1  0.5964910000000  0.5962320000000  0.7288700000000 1.0
C      1  0.4035070000000  0.3499090000000  0.6977750000000 1.0
C      1  0.5964920000000  0.2536760000000  0.4689050000000 1.0
C      1  0.4035090000000  0.4037680000000  0.2711300000000 1.0
C      1  0.5194310000000  0.3180240000000  0.3434800000000 1.0
C      1  0.4805700000000  0.5445620000000  0.2641440000000 1.0
C      1  0.5194320000000  0.7265380000000  0.4206640000000 1.0
C      1  0.4805690000000  0.6819760000000  0.6565200000000 1.0
C      1  0.5194300000000  0.4554380000000  0.7358560000000 1.0
C      1  0.4805680000000  0.2734620000000  0.5793360000000 1.0
C      1  0.3450760000000  0.7072920000000  0.4635670000000 1.0
C      1  0.6549240000000  0.6351970000000  0.6613040000000 1.0
C      1  0.3450750000000  0.4279060000000  0.6977360000000 1.0
C      1  0.6549240000000  0.2927080000000  0.5364330000000 1.0
C      1  0.3450760000000  0.3648030000000  0.3386960000000 1.0
C      1  0.6549250000000  0.5720940000000  0.3022640000000 1.0
C      1  0.3138130000000  0.6152280000000  0.5063230000000 1.0
C      1  0.6861870000000  0.5521370000000  0.6029520000000 1.0
C      1  0.3138120000000  0.4369100000000  0.5966280000000 1.0
C      1  0.6861870000000  0.3847720000000  0.4936770000000 1.0
C      1  0.3138130000000  0.4478630000000  0.3970480000000 1.0
C      1  0.6861880000000  0.5630900000000  0.4033720000000 1.0
C      1  0.6603010000000  0.3857470000000  0.4019140000000 1.0
C      1  0.3397000000000  0.5278190000000  0.3520110000000 1.0
C      1  0.6603010000000  0.6420710000000  0.4500980000000 1.0
C      1  0.3396990000000  0.6142530000000  0.5980860000000 1.0
C      1  0.6603000000000  0.4721810000000  0.6479890000000 1.0
C      1  0.3396990000000  0.3579290000000  0.5499020000000 1.0
C      1  0.6438830000000  0.3868460000000  0.5991740000000 1.0
C      1  0.3561170000000  0.3575360000000  0.4515920000000 1.0
C      1  0.6438830000000  0.4706900000000  0.3524190000000 1.0
C      1  0.3561170000000  0.6131540000000  0.4008260000000 1.0
C      1  0.6438830000000  0.6424640000000  0.5484080000000 1.0
C      1  0.3561170000000  0.5293100000000  0.6475810000000 1.0
END
