TITL C-3036480-97-491 0.000223131776674904 3375 -358.096838841392 0 0 60 (C5) n - 1
REM
REM in /home/bkarasulu/work/CARBON/AIRSS/Generating-Clusters/REBO/Higher-Symm/Only-C60
REM
REM
REM
REM
REM
REM ./C.cell (a2850807a9bf4ad07a5b6933b78d9264)
REM AIRSS Version 0.9.1 bugfix July 2018 build 013d7b7c2542+ Fri, 06 Jul 2018 19:26:36 +0100
REM compiler GCC version 9.2.1 20190827 (Red Hat 9.2.1-1)
REM options -cpp -mtune=generic -march=x86-64 -g -O0 -fpre-include=/usr/include/finclude/math-vector-fortran.h
REM seed 1703405563 -2124843724 -1798371415 1038778060 -174302598 -253377091 -1200255724 1038523462 2008389438 1110782929 -412498368 420757441 -1525918454 -646169070 191837150 405217581 2073924548 -472287618 268608725 -1100619019 18503457 -1847406035 235756585 2125544156 1788142290 -767575565 681249261 757833260 1197206686 636470491 1315820294 1826296610 -1883181492
REM
CELL 1.54180   15.00000   15.00000   15.00000   90.00000   90.00000   90.00000
LATT -1
SFAC C  
C      1  0.2801870000000  0.4043440000000  0.4941220000000 1.0
C      1  0.4264730000000  0.4043510000000  0.7072410000000 1.0
C      1  0.6743750000000  0.4043520000000  0.6339700000000 1.0
C      1  0.6812900000000  0.4043430000000  0.3755560000000 1.0
C      1  0.4376640000000  0.4043420000000  0.2891350000000 1.0
C      1  0.4001470000000  0.4943880000000  0.2784450000000 1.0
C      1  0.2584080000000  0.4943910000000  0.5264940000000 1.0
C      1  0.4505350000000  0.4943960000000  0.7379480000000 1.0
C      1  0.7110020000000  0.4943940000000  0.6205560000000 1.0
C      1  0.6798520000000  0.4943850000000  0.3365740000000 1.0
C      1  0.5391660000000  0.4110320000000  0.3001100000000 1.0
C      1  0.3219990000000  0.4110410000000  0.4009860000000 1.0
C      1  0.3508190000000  0.4110460000000  0.6386920000000 1.0
C      1  0.5858030000000  0.4110430000000  0.6847470000000 1.0
C      1  0.7022190000000  0.4110330000000  0.4754840000000 1.0
C      1  0.4447030000000  0.4227260000000  0.5765030000000 1.0
C      1  0.5556670000000  0.4227140000000  0.5762340000000 1.0
C      1  0.5897040000000  0.4227030000000  0.4706200000000 1.0
C      1  0.4997770000000  0.4227080000000  0.4056120000000 1.0
C      1  0.4101580000000  0.4227230000000  0.4710510000000 1.0
C      1  0.6829930000000  0.5736830000000  0.6666360000000 1.0
C      1  0.7150310000000  0.5736800000000  0.3774330000000 1.0
C      1  0.4498790000000  0.5736810000000  0.2576120000000 1.0
C      1  0.2539830000000  0.5736820000000  0.4727490000000 1.0
C      1  0.3980500000000  0.5736810000000  0.7255340000000 1.0
C      1  0.4411210000000  0.7573200000000  0.4352250000000 1.0
C      1  0.4202060000000  0.7573140000000  0.5359870000000 1.0
C      1  0.5095730000000  0.7573020000000  0.5870160000000 1.0
C      1  0.5857200000000  0.7573000000000  0.5177910000000 1.0
C      1  0.5434140000000  0.7573110000000  0.4239790000000 1.0
C      1  0.5685090000000  0.5305050000000  0.4336320000000 1.0
C      1  0.4580660000000  0.5305150000000  0.4143530000000 1.0
C      1  0.4056060000000  0.5305320000000  0.5134300000000 1.0
C      1  0.4836180000000  0.5305300000000  0.5939420000000 1.0
C      1  0.5843000000000  0.5305120000000  0.5446270000000 1.0
C      1  0.5955630000000  0.6502120000000  0.4832370000000 1.0
C      1  0.5135930000000  0.6502250000000  0.4039260000000 1.0
C      1  0.4128330000000  0.6502310000000  0.4573740000000 1.0
C      1  0.4325300000000  0.6502200000000  0.5697180000000 1.0
C      1  0.5454610000000  0.6502090000000  0.5857020000000 1.0
C      1  0.3356530000000  0.3496980000000  0.5535280000000 1.0
C      1  0.5001120000000  0.3497000000000  0.6728530000000 1.0
C      1  0.6644270000000  0.3496910000000  0.5533130000000 1.0
C      1  0.6015040000000  0.3496840000000  0.3600970000000 1.0
C      1  0.3983070000000  0.3496900000000  0.3602420000000 1.0
C      1  0.5821860000000  0.3019790000000  0.5273140000000 1.0
C      1  0.5513680000000  0.3019710000000  0.4302810000000 1.0
C      1  0.4495630000000  0.3019770000000  0.4296090000000 1.0
C      1  0.4174650000000  0.3019900000000  0.5262200000000 1.0
C      1  0.4994260000000  0.3019920000000  0.5866050000000 1.0
C      1  0.6932360000000  0.5095430000000  0.5207100000000 1.0
C      1  0.5793990000000  0.5095430000000  0.3226320000000 1.0
C      1  0.3558720000000  0.5095430000000  0.3696850000000 1.0
C      1  0.3315100000000  0.5095370000000  0.5967840000000 1.0
C      1  0.5399890000000  0.5095400000000  0.6901740000000 1.0
C      1  0.3759870000000  0.5945580000000  0.6379760000000 1.0
C      1  0.5929020000000  0.5945630000000  0.6605850000000 1.0
C      1  0.6814490000000  0.5945690000000  0.4612480000000 1.0
C      1  0.5192120000000  0.5945700000000  0.3154550000000 1.0
C      1  0.3304340000000  0.5945650000000  0.4247050000000 1.0
END
