TITL C-3036482-790-141 -5.31889183528106e-06 3375 -349.664054448348 0 0 60 (C5) n - 1
REM
REM in /home/bkarasulu/work/CARBON/AIRSS/Generating-Clusters/REBO/Higher-Symm/Only-C60
REM
REM
REM
REM
REM
REM ./C.cell (a2850807a9bf4ad07a5b6933b78d9264)
REM AIRSS Version 0.9.1 bugfix July 2018 build 013d7b7c2542+ Fri, 06 Jul 2018 19:26:36 +0100
REM compiler GCC version 9.2.1 20190827 (Red Hat 9.2.1-1)
REM options -cpp -mtune=generic -march=x86-64 -g -O0 -fpre-include=/usr/include/finclude/math-vector-fortran.h
REM seed -1582492768 -2066269394 1269264619 -692150145 1413972364 2121709274 -74756831 2101235873 -1282307819 760001649 933309835 1372670999 222668716 1729484416 569685787 -115845183 -1001908788 -1842870388 1070064830 -1714090211 -1222957990 1118454163 1843053427 465159410 -1179480106 -790660728 -1188850844 1699734431 -566487281 -966777576 -1231909549 -1071233324 903901900
REM
CELL 1.54180   15.00000   15.00000   15.00000   90.00000   90.00000   90.00000
LATT -1
SFAC C  
C      1  0.3759390000000  0.3857700000000  0.3653470000000 1.0
C      1  0.3759390000000  0.5927630000000  0.3497510000000 1.0
C      1  0.3759380000000  0.6715610000000  0.5417940000000 1.0
C      1  0.3759380000000  0.5132670000000  0.6760790000000 1.0
C      1  0.3759390000000  0.3366390000000  0.5670290000000 1.0
C      1  0.6240610000000  0.3857700000000  0.3653470000000 1.0
C      1  0.6240610000000  0.5927630000000  0.3497510000000 1.0
C      1  0.6240620000000  0.6715610000000  0.5417940000000 1.0
C      1  0.6240620000000  0.5132670000000  0.6760790000000 1.0
C      1  0.6240610000000  0.3366390000000  0.5670290000000 1.0
C      1  0.4457100000000  0.4948350000000  0.4063060000000 1.0
C      1  0.4457100000000  0.5875130000000  0.4661350000000 1.0
C      1  0.4457100000000  0.5592510000000  0.5727650000000 1.0
C      1  0.4457100000000  0.4491060000000  0.5788360000000 1.0
C      1  0.4457100000000  0.4092950000000  0.4759590000000 1.0
C      1  0.5542900000000  0.4948350000000  0.4063060000000 1.0
C      1  0.5542900000000  0.5875130000000  0.4661350000000 1.0
C      1  0.5542900000000  0.5592510000000  0.5727650000000 1.0
C      1  0.5542900000000  0.4491060000000  0.5788360000000 1.0
C      1  0.5542900000000  0.4092950000000  0.4759590000000 1.0
C      1  0.5975780000000  0.3180090000000  0.4344480000000 1.0
C      1  0.5975780000000  0.5061060000000  0.3066600000000 1.0
C      1  0.5975780000000  0.6857650000000  0.4460610000000 1.0
C      1  0.5975780000000  0.6087030000000  0.6600050000000 1.0
C      1  0.5975780000000  0.3814180000000  0.6528270000000 1.0
C      1  0.4024220000000  0.3180090000000  0.4344480000000 1.0
C      1  0.4024220000000  0.5061060000000  0.3066600000000 1.0
C      1  0.4024220000000  0.6857650000000  0.4460610000000 1.0
C      1  0.4024220000000  0.6087030000000  0.6600050000000 1.0
C      1  0.4024220000000  0.3814180000000  0.6528270000000 1.0
C      1  0.4486650000000  0.6877700000000  0.6990080000000 1.0
C      1  0.4486650000000  0.3687560000000  0.7400770000000 1.0
C      1  0.4486650000000  0.2311170000000  0.4493670000000 1.0
C      1  0.4486650000000  0.4650650000000  0.2286310000000 1.0
C      1  0.4486650000000  0.7472920000000  0.3829170000000 1.0
C      1  0.5513350000000  0.6877700000000  0.6990080000000 1.0
C      1  0.5513350000000  0.3687570000000  0.7400770000000 1.0
C      1  0.5513350000000  0.2311170000000  0.4493670000000 1.0
C      1  0.5513350000000  0.4650650000000  0.2286310000000 1.0
C      1  0.5513350000000  0.7472920000000  0.3829170000000 1.0
C      1  0.6762200000000  0.4176160000000  0.5279720000000 1.0
C      1  0.6762190000000  0.4479390000000  0.4302930000000 1.0
C      1  0.6762200000000  0.5502070000000  0.4289460000000 1.0
C      1  0.6762200000000  0.5830910000000  0.5257940000000 1.0
C      1  0.6762200000000  0.5011450000000  0.5869950000000 1.0
C      1  0.3237800000000  0.4176160000000  0.5279720000000 1.0
C      1  0.3237810000000  0.4479390000000  0.4302930000000 1.0
C      1  0.3237800000000  0.5502070000000  0.4289460000000 1.0
C      1  0.3237800000000  0.5830910000000  0.5257940000000 1.0
C      1  0.3237800000000  0.5011450000000  0.5869950000000 1.0
C      1  0.5559340000000  0.3807180000000  0.2944410000000 1.0
C      1  0.5559340000000  0.6586380000000  0.3230350000000 1.0
C      1  0.5559340000000  0.7173260000000  0.5961880000000 1.0
C      1  0.5559350000000  0.4756770000000  0.7364130000000 1.0
C      1  0.5559340000000  0.2676420000000  0.5499230000000 1.0
C      1  0.4440660000000  0.3807180000000  0.2944410000000 1.0
C      1  0.4440660000000  0.6586380000000  0.3230350000000 1.0
C      1  0.4440660000000  0.7173260000000  0.5961880000000 1.0
C      1  0.4440660000000  0.4756770000000  0.7364130000000 1.0
C      1  0.4440660000000  0.2676420000000  0.5499230000000 1.0
END
