TITL C-3036482-790-491 -9.44370850301828e-07 3375 -343.659550881696 0 0 60 (C1) n - 1
REM
REM in /home/bkarasulu/work/CARBON/AIRSS/Generating-Clusters/REBO/Higher-Symm/Only-C60
REM
REM
REM
REM
REM
REM ./C.cell (a2850807a9bf4ad07a5b6933b78d9264)
REM AIRSS Version 0.9.1 bugfix July 2018 build 013d7b7c2542+ Fri, 06 Jul 2018 19:26:36 +0100
REM compiler GCC version 9.2.1 20190827 (Red Hat 9.2.1-1)
REM options -cpp -mtune=generic -march=x86-64 -g -O0 -fpre-include=/usr/include/finclude/math-vector-fortran.h
REM seed 595157461 1805944036 907280900 -1375023228 1418073800 -1409298960 -1716508924 -2086751352 805447031 -1481532736 -1163188515 1841625437 -96403060 -146114117 1278510312 -1156830692 -590079806 1327769360 146071257 -629431111 -2108419819 -1839176311 1459653735 -1968642604 1862446505 -1349031185 832116761 -471536893 -304297682 611958791 -1376711386 -754904073 -913152707
REM
CELL 1.54180   15.00000   15.00000   15.00000   90.00000   90.00000   90.00000
LATT -1
SFAC C  
C      1  0.4560600000000  0.5188850000000  0.5346960000000 1.0
C      1  0.5067600000000  0.4175520000000  0.2856780000000 1.0
C      1  0.2811250000000  0.3436520000000  0.4760930000000 1.0
C      1  0.6131130000000  0.3455180000000  0.4319890000000 1.0
C      1  0.2272500000000  0.4274160000000  0.4858900000000 1.0
C      1  0.4762410000000  0.4406440000000  0.6579630000000 1.0
C      1  0.3823790000000  0.7374220000000  0.4802870000000 1.0
C      1  0.4376290000000  0.2912310000000  0.5268610000000 1.0
C      1  0.5388300000000  0.7174960000000  0.6542860000000 1.0
C      1  0.4036370000000  0.5811980000000  0.5926920000000 1.0
C      1  0.5500370000000  0.6274070000000  0.4208420000000 1.0
C      1  0.6763660000000  0.6254190000000  0.6407170000000 1.0
C      1  0.2723080000000  0.5008430000000  0.5244620000000 1.0
C      1  0.5938200000000  0.3244830000000  0.3227480000000 1.0
C      1  0.4325170000000  0.7096380000000  0.5766730000000 1.0
C      1  0.4149150000000  0.4903940000000  0.7400450000000 1.0
C      1  0.5954630000000  0.3078480000000  0.5583310000000 1.0
C      1  0.3264200000000  0.4042360000000  0.4000250000000 1.0
C      1  0.5029550000000  0.4678490000000  0.7854710000000 1.0
C      1  0.3133110000000  0.5787640000000  0.4606190000000 1.0
C      1  0.6817260000000  0.4704290000000  0.3820190000000 1.0
C      1  0.5944920000000  0.6055910000000  0.3296890000000 1.0
C      1  0.4074880000000  0.3969270000000  0.3368590000000 1.0
C      1  0.3169890000000  0.4812410000000  0.6058520000000 1.0
C      1  0.6875330000000  0.3248220000000  0.5036710000000 1.0
C      1  0.4918310000000  0.5956030000000  0.3059910000000 1.0
C      1  0.4015950000000  0.4775810000000  0.4428330000000 1.0
C      1  0.4264660000000  0.3940250000000  0.4997000000000 1.0
C      1  0.3684660000000  0.5760930000000  0.3602530000000 1.0
C      1  0.5304280000000  0.7574420000000  0.4407490000000 1.0
C      1  0.5506400000000  0.4928700000000  0.3853440000000 1.0
C      1  0.6511180000000  0.4334080000000  0.6622180000000 1.0
C      1  0.3534960000000  0.5371710000000  0.6811420000000 1.0
C      1  0.6676630000000  0.6021830000000  0.4834640000000 1.0
C      1  0.6964600000000  0.5678700000000  0.5678900000000 1.0
C      1  0.5666100000000  0.3892590000000  0.6183150000000 1.0
C      1  0.5370150000000  0.4546070000000  0.5411970000000 1.0
C      1  0.2862720000000  0.5017380000000  0.3840550000000 1.0
C      1  0.4436000000000  0.7360940000000  0.4071160000000 1.0
C      1  0.6115880000000  0.4320980000000  0.3114920000000 1.0
C      1  0.5367610000000  0.7482820000000  0.5535590000000 1.0
C      1  0.5190450000000  0.5455060000000  0.6787090000000 1.0
C      1  0.4401190000000  0.5025450000000  0.3109970000000 1.0
C      1  0.5257420000000  0.2663670000000  0.5062900000000 1.0
C      1  0.7075670000000  0.4783950000000  0.6000090000000 1.0
C      1  0.5410170000000  0.2635560000000  0.4028700000000 1.0
C      1  0.5724570000000  0.4321420000000  0.4579140000000 1.0
C      1  0.6049840000000  0.6874060000000  0.4896580000000 1.0
C      1  0.4320820000000  0.6647360000000  0.3471430000000 1.0
C      1  0.6638300000000  0.5622410000000  0.3970600000000 1.0
C      1  0.7881270000000  0.3733810000000  0.5142430000000 1.0
C      1  0.7262160000000  0.4149470000000  0.4400060000000 1.0
C      1  0.5900200000000  0.6326930000000  0.6751660000000 1.0
C      1  0.3355140000000  0.3161230000000  0.5508020000000 1.0
C      1  0.4587040000000  0.6404900000000  0.6634170000000 1.0
C      1  0.4802490000000  0.3124030000000  0.3204830000000 1.0
C      1  0.5861720000000  0.4702100000000  0.7270530000000 1.0
C      1  0.3875970000000  0.4047140000000  0.6013170000000 1.0
C      1  0.3529470000000  0.6432520000000  0.5247180000000 1.0
C      1  0.4782400000000  0.5556690000000  0.4323690000000 1.0
END
