TITL C-3036484-3770-1081 0.00298384667547083 3375 -360.01944427315 0 0 60 (C2) n - 1
REM
REM in /home/bkarasulu/work/CARBON/AIRSS/Generating-Clusters/REBO/Higher-Symm/Only-C60
REM
REM
REM
REM
REM
REM ./C.cell (a2850807a9bf4ad07a5b6933b78d9264)
REM AIRSS Version 0.9.1 bugfix July 2018 build 013d7b7c2542+ Fri, 06 Jul 2018 19:26:36 +0100
REM compiler GCC version 9.2.1 20190827 (Red Hat 9.2.1-1)
REM options -cpp -mtune=generic -march=x86-64 -g -O0 -fpre-include=/usr/include/finclude/math-vector-fortran.h
REM seed 876714395 -1584065114 -9784622 173901235 116195536 -1062897946 -1384875563 227838234 -567066793 1702227480 -350209299 1218886541 1225435293 1271851893 1339218793 155617347 281494005 1188166453 -1041042030 -2074601757 873952708 -657404635 -657282570 1152581712 1385073999 1431824874 884250506 -499563644 243480629 2120812009 -136537940 869884817 -491683957
REM
CELL 1.54180   15.00000   15.00000   15.00000   90.00000   90.00000   90.00000
LATT -1
SFAC C  
C      1  0.5386480000000  0.3929670000000  0.6092700000000 1.0
C      1  0.4613670000000  0.3929610000000  0.3907330000000 1.0
C      1  0.6014260000000  0.4657140000000  0.4577140000000 1.0
C      1  0.3985760000000  0.4657090000000  0.5422830000000 1.0
C      1  0.5568060000000  0.3603540000000  0.3405170000000 1.0
C      1  0.4432100000000  0.3603620000000  0.6594780000000 1.0
C      1  0.4661670000000  0.6346200000000  0.6045550000000 1.0
C      1  0.5338340000000  0.6346280000000  0.3954470000000 1.0
C      1  0.3226880000000  0.4053400000000  0.4439020000000 1.0
C      1  0.6772870000000  0.4053480000000  0.5561090000000 1.0
C      1  0.3824420000000  0.6745920000000  0.4533570000000 1.0
C      1  0.6175440000000  0.6745960000000  0.5466350000000 1.0
C      1  0.3055140000000  0.5036570000000  0.4550810000000 1.0
C      1  0.6944420000000  0.5036720000000  0.5449170000000 1.0
C      1  0.4708460000000  0.2798790000000  0.5905690000000 1.0
C      1  0.5291580000000  0.2798640000000  0.4094290000000 1.0
C      1  0.4031650000000  0.6300130000000  0.3079350000000 1.0
C      1  0.5968380000000  0.6300100000000  0.6920640000000 1.0
C      1  0.4210480000000  0.5639970000000  0.5559560000000 1.0
C      1  0.5789270000000  0.5640030000000  0.4440510000000 1.0
C      1  0.3378900000000  0.3485340000000  0.5270100000000 1.0
C      1  0.6620960000000  0.3485350000000  0.4730000000000 1.0
C      1  0.5208600000000  0.6859070000000  0.5440640000000 1.0
C      1  0.4791250000000  0.6859060000000  0.4559380000000 1.0
C      1  0.3079610000000  0.4932620000000  0.6347500000000 1.0
C      1  0.6920390000000  0.4932500000000  0.3652690000000 1.0
C      1  0.4523870000000  0.4882720000000  0.2976830000000 1.0
C      1  0.5476130000000  0.4882540000000  0.7022960000000 1.0
C      1  0.3566930000000  0.4003210000000  0.6184150000000 1.0
C      1  0.6433230000000  0.4003190000000  0.3815840000000 1.0
C      1  0.2793940000000  0.5251660000000  0.5470480000000 1.0
C      1  0.7206600000000  0.5251860000000  0.4529590000000 1.0
C      1  0.3227600000000  0.6421460000000  0.6871430000000 1.0
C      1  0.6772570000000  0.6421470000000  0.3128500000000 1.0
C      1  0.3731970000000  0.3435490000000  0.3720880000000 1.0
C      1  0.6268040000000  0.3435100000000  0.6279230000000 1.0
C      1  0.3481800000000  0.5519330000000  0.6968630000000 1.0
C      1  0.6518330000000  0.5519240000000  0.3031400000000 1.0
C      1  0.4720730000000  0.4238510000000  0.7357420000000 1.0
C      1  0.5279370000000  0.4238500000000  0.2642620000000 1.0
C      1  0.3149360000000  0.6965380000000  0.6150890000000 1.0
C      1  0.6850560000000  0.6965390000000  0.3848990000000 1.0
C      1  0.5662780000000  0.2679520000000  0.5750600000000 1.0
C      1  0.4337120000000  0.2679560000000  0.4249400000000 1.0
C      1  0.5533670000000  0.5562970000000  0.5415870000000 1.0
C      1  0.4466420000000  0.5563250000000  0.4584000000000 1.0
C      1  0.5880200000000  0.5151830000000  0.6260300000000 1.0
C      1  0.4119820000000  0.5151810000000  0.3739710000000 1.0
C      1  0.4442310000000  0.5336360000000  0.7295060000000 1.0
C      1  0.5557800000000  0.5336340000000  0.2705060000000 1.0
C      1  0.4056630000000  0.2781030000000  0.5182380000000 1.0
C      1  0.5943290000000  0.2781000000000  0.4817630000000 1.0
C      1  0.6628490000000  0.5943400000000  0.6061300000000 1.0
C      1  0.3371550000000  0.5943450000000  0.3938650000000 1.0
C      1  0.4577020000000  0.4252330000000  0.4794410000000 1.0
C      1  0.5423120000000  0.4252420000000  0.5205600000000 1.0
C      1  0.5052760000000  0.6134780000000  0.6885460000000 1.0
C      1  0.4947200000000  0.6134920000000  0.3114580000000 1.0
C      1  0.3339700000000  0.7051580000000  0.5274790000000 1.0
C      1  0.6660080000000  0.7051580000000  0.4725050000000 1.0
END
