TITL C-3036479-9801-1021 -2.00925781237576e-05 3375 -355.90991790953 0 0 60 (C10) n - 1
REM
REM in /home/bkarasulu/work/CARBON/AIRSS/Generating-Clusters/REBO/Higher-Symm/Only-C60
REM
REM
REM
REM
REM
REM ./C.cell (a2850807a9bf4ad07a5b6933b78d9264)
REM AIRSS Version 0.9.1 bugfix July 2018 build 013d7b7c2542+ Fri, 06 Jul 2018 19:26:36 +0100
REM compiler GCC version 9.2.1 20190827 (Red Hat 9.2.1-1)
REM options -cpp -mtune=generic -march=x86-64 -g -O0 -fpre-include=/usr/include/finclude/math-vector-fortran.h
REM seed -1901318247 -1129586755 -875830610 -134359755 -1094073360 1851541712 71926054 758649151 1091795983 1629019195 327718821 -238107316 -384891777 1931683570 100876635 777862129 1880052243 -1411479008 655223815 -1013829459 -1571849988 -1585547610 2026378247 -656324295 1608699301 18608352 1907775786 -34249158 1308593786 -1026388924 587304069 -6363690 -867062410
REM
CELL 1.54180   15.00000   15.00000   15.00000   90.00000   90.00000   90.00000
LATT -1
SFAC C  
C      1  0.6909000000000  0.5464850000000  0.3396400000000 1.0
C      1  0.6909000000000  0.6318640000000  0.3975890000000 1.0
C      1  0.6909000000000  0.6668760000000  0.4946560000000 1.0
C      1  0.6909000000000  0.6381470000000  0.5937640000000 1.0
C      1  0.6909000000000  0.5566500000000  0.6570570000000 1.0
C      1  0.6909000000000  0.4535150000000  0.6603600000000 1.0
C      1  0.6909000000000  0.3681360000000  0.6024110000000 1.0
C      1  0.6909000000000  0.3331240000000  0.5053440000000 1.0
C      1  0.6909000000000  0.3618530000000  0.4062360000000 1.0
C      1  0.6909000000000  0.4433500000000  0.3429430000000 1.0
C      1  0.4806000000000  0.6039860000000  0.3474330000000 1.0
C      1  0.4806010000000  0.6738040000000  0.4376930000000 1.0
C      1  0.4806010000000  0.6772350000000  0.5517520000000 1.0
C      1  0.4806000000000  0.6129670000000  0.6460430000000 1.0
C      1  0.4806000000000  0.5055500000000  0.6845510000000 1.0
C      1  0.4806000000000  0.3960140000000  0.6525670000000 1.0
C      1  0.4806010000000  0.3261960000000  0.5623080000000 1.0
C      1  0.4806010000000  0.3227650000000  0.4482480000000 1.0
C      1  0.4806010000000  0.3870330000000  0.3539570000000 1.0
C      1  0.4806000000000  0.4944500000000  0.3154490000000 1.0
C      1  0.3749280000000  0.6798930000000  0.5179540000000 1.0
C      1  0.3749280000000  0.6349830000000  0.6202630000000 1.0
C      1  0.3749280000000  0.5385150000000  0.6766350000000 1.0
C      1  0.3749280000000  0.4273360000000  0.6655380000000 1.0
C      1  0.3749280000000  0.3439110000000  0.5912120000000 1.0
C      1  0.3749280000000  0.3201070000000  0.4820460000000 1.0
C      1  0.3749280000000  0.3650170000000  0.3797370000000 1.0
C      1  0.3749280000000  0.4614850000000  0.3233650000000 1.0
C      1  0.3749280000000  0.5726640000000  0.3344620000000 1.0
C      1  0.3749280000000  0.6560890000000  0.4087880000000 1.0
C      1  0.2675400000000  0.4098410000000  0.6328740000000 1.0
C      1  0.2675400000000  0.3489570000000  0.5545040000000 1.0
C      1  0.2675400000000  0.3457650000000  0.4553140000000 1.0
C      1  0.2675400000000  0.4014870000000  0.3731920000000 1.0
C      1  0.2675400000000  0.4948370000000  0.3395080000000 1.0
C      1  0.2675400000000  0.5901590000000  0.3671260000000 1.0
C      1  0.2675400000000  0.6510430000000  0.4454960000000 1.0
C      1  0.2675400000000  0.6542350000000  0.5446860000000 1.0
C      1  0.2675400000000  0.5985130000000  0.6268080000000 1.0
C      1  0.2675400000000  0.5051630000000  0.6604920000000 1.0
C      1  0.6197950000000  0.5823650000000  0.7283540000000 1.0
C      1  0.6197950000000  0.4324120000000  0.7331550000000 1.0
C      1  0.6197950000000  0.3082740000000  0.6488990000000 1.0
C      1  0.6197950000000  0.2573690000000  0.5077680000000 1.0
C      1  0.6197950000000  0.2991410000000  0.3636700000000 1.0
C      1  0.6197950000000  0.4176350000000  0.2716460000000 1.0
C      1  0.6197950000000  0.5675880000000  0.2668450000000 1.0
C      1  0.6197950000000  0.6917260000000  0.3511010000000 1.0
C      1  0.6197950000000  0.7426310000000  0.4922320000000 1.0
C      1  0.6197950000000  0.7008590000000  0.6363300000000 1.0
C      1  0.5662360000000  0.6394100000000  0.2946000000000 1.0
C      1  0.5662360000000  0.7335170000000  0.4157710000000 1.0
C      1  0.5662360000000  0.7384280000000  0.5691150000000 1.0
C      1  0.5662360000000  0.6522670000000  0.6960590000000 1.0
C      1  0.5662360000000  0.5079460000000  0.7481150000000 1.0
C      1  0.5662360000000  0.3605900000000  0.7054000000000 1.0
C      1  0.5662360000000  0.2664830000000  0.5842290000000 1.0
C      1  0.5662360000000  0.2615720000000  0.4308850000000 1.0
C      1  0.5662360000000  0.3477330000000  0.3039410000000 1.0
C      1  0.5662360000000  0.4920540000000  0.2518850000000 1.0
END
