TITL C-3036486-2224-1115 -5.09774067910141e-06 3375 -345.275359102295 0 0 60 (C1) n - 1
REM
REM in /home/bkarasulu/work/CARBON/AIRSS/Generating-Clusters/REBO/Higher-Symm/Only-C60
REM
REM
REM
REM
REM
REM ./C.cell (a2850807a9bf4ad07a5b6933b78d9264)
REM AIRSS Version 0.9.1 bugfix July 2018 build 013d7b7c2542+ Fri, 06 Jul 2018 19:26:36 +0100
REM compiler GCC version 9.2.1 20190827 (Red Hat 9.2.1-1)
REM options -cpp -mtune=generic -march=x86-64 -g -O0 -fpre-include=/usr/include/finclude/math-vector-fortran.h
REM seed 26580751 -617348602 -410382755 1004743708 -2035109901 -364453841 -148046230 -135400085 -1461707858 -755455627 -1408236879 110092788 1717784714 695978041 1488997595 2038887200 1065730779 1665544893 1904135915 -649424859 996497449 1321688774 -553924543 213277873 -1588497266 -934819510 181390127 761869256 -1475843354 -20842303 262436547 -1953316636 543482933
REM
CELL 1.54180   15.00000   15.00000   15.00000   90.00000   90.00000   90.00000
LATT -1
SFAC C  
C      1  0.4615280000000  0.6726270000000  0.7291110000000 1.0
C      1  0.2647780000000  0.6910190000000  0.4609730000000 1.0
C      1  0.5269950000000  0.6835130000000  0.2650640000000 1.0
C      1  0.7293550000000  0.6829440000000  0.5278460000000 1.0
C      1  0.4441540000000  0.6703280000000  0.2649350000000 1.0
C      1  0.2659590000000  0.6867130000000  0.5446740000000 1.0
C      1  0.5453290000000  0.6664420000000  0.7293160000000 1.0
C      1  0.7281760000000  0.6703040000000  0.4449310000000 1.0
C      1  0.2856900000000  0.3707630000000  0.5318170000000 1.0
C      1  0.4382150000000  0.3488300000000  0.2593360000000 1.0
C      1  0.7460580000000  0.3527940000000  0.4386350000000 1.0
C      1  0.5345220000000  0.3535650000000  0.7424400000000 1.0
C      1  0.2750390000000  0.3668860000000  0.4256030000000 1.0
C      1  0.4265150000000  0.3525420000000  0.7506280000000 1.0
C      1  0.7247690000000  0.3716220000000  0.5423890000000 1.0
C      1  0.5411590000000  0.3698970000000  0.2810760000000 1.0
C      1  0.4112620000000  0.6146940000000  0.6631640000000 1.0
C      1  0.3307860000000  0.6363980000000  0.4107870000000 1.0
C      1  0.5812370000000  0.6342260000000  0.3322260000000 1.0
C      1  0.6633630000000  0.6335620000000  0.5836160000000 1.0
C      1  0.4061300000000  0.6103950000000  0.3366570000000 1.0
C      1  0.3350230000000  0.6301130000000  0.5876490000000 1.0
C      1  0.5880710000000  0.6082950000000  0.6584280000000 1.0
C      1  0.6564340000000  0.6103040000000  0.4068130000000 1.0
C      1  0.6017800000000  0.5054080000000  0.6825440000000 1.0
C      1  0.3331870000000  0.5231540000000  0.6060820000000 1.0
C      1  0.3938880000000  0.5078010000000  0.3134200000000 1.0
C      1  0.6804670000000  0.5082070000000  0.3953310000000 1.0
C      1  0.6042390000000  0.5308100000000  0.3139560000000 1.0
C      1  0.3130290000000  0.5324370000000  0.3903900000000 1.0
C      1  0.3998310000000  0.5156420000000  0.6974270000000 1.0
C      1  0.6824230000000  0.5306270000000  0.6063640000000 1.0
C      1  0.6387490000000  0.3218640000000  0.4540780000000 1.0
C      1  0.5606510000000  0.3140440000000  0.6418400000000 1.0
C      1  0.3900940000000  0.3415020000000  0.5587770000000 1.0
C      1  0.4528790000000  0.3229530000000  0.3687100000000 1.0
C      1  0.6221590000000  0.3432900000000  0.5645040000000 1.0
C      1  0.5632900000000  0.3445430000000  0.3850610000000 1.0
C      1  0.3851740000000  0.3523820000000  0.4456620000000 1.0
C      1  0.4492260000000  0.3287330000000  0.6437980000000 1.0
C      1  0.7563290000000  0.4577570000000  0.4475560000000 1.0
C      1  0.5531950000000  0.4542600000000  0.7595500000000 1.0
C      1  0.2587830000000  0.4687260000000  0.5523700000000 1.0
C      1  0.4469490000000  0.4529390000000  0.2404720000000 1.0
C      1  0.7496730000000  0.4713230000000  0.5519850000000 1.0
C      1  0.5516030000000  0.4673340000000  0.2483190000000 1.0
C      1  0.2506500000000  0.4664230000000  0.4470570000000 1.0
C      1  0.4496530000000  0.4530450000000  0.7636880000000 1.0
C      1  0.4383360000000  0.4422570000000  0.6306360000000 1.0
C      1  0.3833560000000  0.4675010000000  0.4391150000000 1.0
C      1  0.5579350000000  0.4594030000000  0.3809180000000 1.0
C      1  0.6174650000000  0.4577490000000  0.5598030000000 1.0
C      1  0.4592540000000  0.4344330000000  0.3714030000000 1.0
C      1  0.3897940000000  0.4533690000000  0.5368920000000 1.0
C      1  0.5405150000000  0.4251820000000  0.6303580000000 1.0
C      1  0.6263070000000  0.4333360000000  0.4613110000000 1.0
C      1  0.4437790000000  0.6323800000000  0.5549230000000 1.0
C      1  0.4400430000000  0.6338820000000  0.4428590000000 1.0
C      1  0.5508390000000  0.6344140000000  0.4419940000000 1.0
C      1  0.5539260000000  0.6335300000000  0.5527350000000 1.0
END
