TITL C-3036485-3770-615 -3.42242554743293e-06 3375 -344.157782207305 0 0 60 (C3) n - 1
REM
REM in /home/bkarasulu/work/CARBON/AIRSS/Generating-Clusters/REBO/Higher-Symm/Only-C60
REM
REM
REM
REM
REM
REM ./C.cell (a2850807a9bf4ad07a5b6933b78d9264)
REM AIRSS Version 0.9.1 bugfix July 2018 build 013d7b7c2542+ Fri, 06 Jul 2018 19:26:36 +0100
REM compiler GCC version 9.2.1 20190827 (Red Hat 9.2.1-1)
REM options -cpp -mtune=generic -march=x86-64 -g -O0 -fpre-include=/usr/include/finclude/math-vector-fortran.h
REM seed -1034272171 -420651074 1347986261 1431508246 -567733974 -440656377 1761923387 1308987614 1436542610 726123074 -1270304195 -69402777 1437909700 -262224305 1855641989 932213371 -2004472650 723107098 134943842 -378391465 -1292798048 2081805882 1455966777 -688373021 -2072813075 -1329668713 1672197695 1700388399 -423155636 492692387 -1869557729 299866879 576545137
REM
CELL 1.54180   15.00000   15.00000   15.00000   90.00000   90.00000   90.00000
LATT -1
SFAC C  
C      1  0.5118390000000  0.6560310000000  0.3134490000000 1.0
C      1  0.3589560000000  0.4322360000000  0.3134480000000 1.0
C      1  0.6292100000000  0.4117330000000  0.3134510000000 1.0
C      1  0.3163080000000  0.5448790000000  0.3702890000000 1.0
C      1  0.5529810000000  0.3184770000000  0.3702920000000 1.0
C      1  0.6307150000000  0.6366430000000  0.3702920000000 1.0
C      1  0.4700060000000  0.7753010000000  0.5204920000000 1.0
C      1  0.2765790000000  0.3363740000000  0.5204910000000 1.0
C      1  0.7534140000000  0.3883250000000  0.5204950000000 1.0
C      1  0.2702330000000  0.6095670000000  0.5119220000000 1.0
C      1  0.5199960000000  0.2462320000000  0.5119250000000 1.0
C      1  0.7097710000000  0.6442010000000  0.5119270000000 1.0
C      1  0.3829600000000  0.4403170000000  0.5892660000000 1.0
C      1  0.6102050000000  0.4284830000000  0.5892680000000 1.0
C      1  0.5068320000000  0.6312000000000  0.5892670000000 1.0
C      1  0.7399790000000  0.4733110000000  0.4609780000000 1.0
C      1  0.4031250000000  0.7211720000000  0.4609750000000 1.0
C      1  0.3568980000000  0.3055170000000  0.4609750000000 1.0
C      1  0.4162380000000  0.5659370000000  0.4196520000000 1.0
C      1  0.4847790000000  0.3944910000000  0.4196530000000 1.0
C      1  0.5989850000000  0.5395720000000  0.4196540000000 1.0
C      1  0.4350230000000  0.4928320000000  0.3390930000000 1.0
C      1  0.5386990000000  0.4473110000000  0.3390940000000 1.0
C      1  0.5262830000000  0.5598570000000  0.3390940000000 1.0
C      1  0.5542580000000  0.5325670000000  0.7418040000000 1.0
C      1  0.4446640000000  0.5307080000000  0.7418030000000 1.0
C      1  0.5010710000000  0.4367260000000  0.7418030000000 1.0
C      1  0.4317530000000  0.2526050000000  0.4879090000000 1.0
C      1  0.7483740000000  0.5645930000000  0.4879120000000 1.0
C      1  0.3198740000000  0.6828010000000  0.4879070000000 1.0
C      1  0.2635620000000  0.5721320000000  0.3083840000000 1.0
C      1  0.5557540000000  0.2591710000000  0.3083870000000 1.0
C      1  0.6806900000000  0.6686970000000  0.3083880000000 1.0
C      1  0.4333310000000  0.7113020000000  0.5898810000000 1.0
C      1  0.3503400000000  0.3366120000000  0.5898800000000 1.0
C      1  0.7163270000000  0.4520860000000  0.5898840000000 1.0
C      1  0.5662890000000  0.7534910000000  0.5020740000000 1.0
C      1  0.2473260000000  0.4306630000000  0.5020710000000 1.0
C      1  0.6863850000000  0.3158460000000  0.5020750000000 1.0
C      1  0.3756950000000  0.5656680000000  0.6887000000000 1.0
C      1  0.5052790000000  0.3595170000000  0.6887010000000 1.0
C      1  0.6190200000000  0.5748160000000  0.6887020000000 1.0
C      1  0.6359370000000  0.5315550000000  0.5924830000000 1.0
C      1  0.4047030000000  0.6019480000000  0.5924810000000 1.0
C      1  0.4593580000000  0.3664970000000  0.5924810000000 1.0
C      1  0.3862510000000  0.3884160000000  0.4115540000000 1.0
C      1  0.6535110000000  0.4572810000000  0.4115570000000 1.0
C      1  0.4602410000000  0.6543030000000  0.4115540000000 1.0
C      1  0.3288690000000  0.4709360000000  0.4481510000000 1.0
C      1  0.6107360000000  0.3663280000000  0.4481540000000 1.0
C      1  0.5603960000000  0.6627360000000  0.4481530000000 1.0
C      1  0.3911530000000  0.5294030000000  0.5214050000000 1.0
C      1  0.5289600000000  0.3910340000000  0.5214060000000 1.0
C      1  0.5798870000000  0.5795630000000  0.5214070000000 1.0
C      1  0.5834380000000  0.3367860000000  0.6301760000000 1.0
C      1  0.5996260000000  0.6538680000000  0.6301760000000 1.0
C      1  0.3169320000000  0.5093460000000  0.6301730000000 1.0
C      1  0.2593880000000  0.5231090000000  0.5523250000000 1.0
C      1  0.6002920000000  0.2800700000000  0.5523290000000 1.0
C      1  0.6403180000000  0.6968220000000  0.5523290000000 1.0
END
