TITL C-3036484-3770-855 2.09690203357946e-06 3375 -337.374076916059 0 0 60 (D3) n - 1
REM
REM in /home/bkarasulu/work/CARBON/AIRSS/Generating-Clusters/REBO/Higher-Symm/Only-C60
REM
REM
REM
REM
REM
REM ./C.cell (a2850807a9bf4ad07a5b6933b78d9264)
REM AIRSS Version 0.9.1 bugfix July 2018 build 013d7b7c2542+ Fri, 06 Jul 2018 19:26:36 +0100
REM compiler GCC version 9.2.1 20190827 (Red Hat 9.2.1-1)
REM options -cpp -mtune=generic -march=x86-64 -g -O0 -fpre-include=/usr/include/finclude/math-vector-fortran.h
REM seed -1376374031 1627492200 1877346790 661702179 -538347654 -1216712393 -293997292 3635186 1487851266 73493036 615814948 -935721160 1452686656 -535527475 -286556014 464496457 -1272239074 -2131320962 -901753293 67867827 915595099 -285489350 1256771769 -2037701766 -813988904 -210966769 -1623274467 1056352212 -585487362 -91724433 -1055831278 248626056 1694311964
REM
CELL 1.54180   15.00000   15.00000   15.00000   90.00000   90.00000   90.00000
LATT -1
SFAC C  
C      1  0.2845730000000  0.4582090000000  0.3704580000000 1.0
C      1  0.2845770000000  0.4087110000000  0.6009610000000 1.0
C      1  0.2845790000000  0.6330760000000  0.5285790000000 1.0
C      1  0.7103810000000  0.4594540000000  0.3710010000000 1.0
C      1  0.7103840000000  0.4085590000000  0.5996160000000 1.0
C      1  0.7103870000000  0.6319870000000  0.5293790000000 1.0
C      1  0.2896190000000  0.5405470000000  0.3710000000000 1.0
C      1  0.2896130000000  0.5914370000000  0.5996160000000 1.0
C      1  0.2896160000000  0.3680120000000  0.5293830000000 1.0
C      1  0.7154260000000  0.5417920000000  0.3704580000000 1.0
C      1  0.7154210000000  0.5912880000000  0.6009580000000 1.0
C      1  0.7154240000000  0.3669220000000  0.5285790000000 1.0
C      1  0.4002760000000  0.6471680000000  0.6476320000000 1.0
C      1  0.4002850000000  0.5542650000000  0.2987330000000 1.0
C      1  0.4002770000000  0.2985620000000  0.5536380000000 1.0
C      1  0.5958020000000  0.6385670000000  0.6342070000000 1.0
C      1  0.5958040000000  0.5469470000000  0.3128940000000 1.0
C      1  0.5958020000000  0.3144930000000  0.5528970000000 1.0
C      1  0.4041970000000  0.3614320000000  0.6342100000000 1.0
C      1  0.4041970000000  0.4530540000000  0.3128960000000 1.0
C      1  0.4041990000000  0.6855080000000  0.5528990000000 1.0
C      1  0.5997190000000  0.3528320000000  0.6476300000000 1.0
C      1  0.5997170000000  0.4457350000000  0.2987310000000 1.0
C      1  0.5997260000000  0.7014380000000  0.5536360000000 1.0
C      1  0.4503980000000  0.7355380000000  0.4636540000000 1.0
C      1  0.4503940000000  0.3507510000000  0.3141900000000 1.0
C      1  0.4503950000000  0.4137050000000  0.7221610000000 1.0
C      1  0.5474110000000  0.7360980000000  0.4611910000000 1.0
C      1  0.5474070000000  0.3483420000000  0.3149360000000 1.0
C      1  0.5474080000000  0.4155590000000  0.7238740000000 1.0
C      1  0.4525910000000  0.2639020000000  0.4611910000000 1.0
C      1  0.4525940000000  0.6516600000000  0.3149350000000 1.0
C      1  0.4525890000000  0.5844400000000  0.7238730000000 1.0
C      1  0.5496030000000  0.2644620000000  0.4636520000000 1.0
C      1  0.5496070000000  0.6492510000000  0.3141870000000 1.0
C      1  0.5496020000000  0.5862940000000  0.7221570000000 1.0
C      1  0.3518350000000  0.3173600000000  0.4513160000000 1.0
C      1  0.3518320000000  0.5491570000000  0.6825170000000 1.0
C      1  0.3518410000000  0.6334780000000  0.3661730000000 1.0
C      1  0.6516670000000  0.3150960000000  0.4521810000000 1.0
C      1  0.6516640000000  0.5510400000000  0.6840410000000 1.0
C      1  0.6516710000000  0.6338680000000  0.3637730000000 1.0
C      1  0.3483360000000  0.6849020000000  0.4521820000000 1.0
C      1  0.3483320000000  0.4489580000000  0.6840450000000 1.0
C      1  0.3483290000000  0.3661330000000  0.3637750000000 1.0
C      1  0.6481690000000  0.6826430000000  0.4513140000000 1.0
C      1  0.6481630000000  0.4508420000000  0.6825130000000 1.0
C      1  0.6481600000000  0.3665230000000  0.3661730000000 1.0
C      1  0.4438130000000  0.5440730000000  0.4013510000000 1.0
C      1  0.4438080000000  0.3925250000000  0.5111560000000 1.0
C      1  0.4438020000000  0.5633920000000  0.5875000000000 1.0
C      1  0.5522780000000  0.5637020000000  0.4163780000000 1.0
C      1  0.5522740000000  0.3957360000000  0.4866460000000 1.0
C      1  0.5522700000000  0.5405730000000  0.5969730000000 1.0
C      1  0.4477220000000  0.4362990000000  0.4163810000000 1.0
C      1  0.4477300000000  0.6042640000000  0.4866500000000 1.0
C      1  0.4477270000000  0.4594280000000  0.5969770000000 1.0
C      1  0.5561870000000  0.4559270000000  0.4013470000000 1.0
C      1  0.5561980000000  0.6074760000000  0.5111510000000 1.0
C      1  0.5561920000000  0.4366070000000  0.5874960000000 1.0
END
