TITL C-3036485-3770-217 -4.8945936165121e-06 3375 -338.881503014966 0 0 60 (C1) n - 1
REM
REM in /home/bkarasulu/work/CARBON/AIRSS/Generating-Clusters/REBO/Higher-Symm/Only-C60
REM
REM
REM
REM
REM
REM ./C.cell (a2850807a9bf4ad07a5b6933b78d9264)
REM AIRSS Version 0.9.1 bugfix July 2018 build 013d7b7c2542+ Fri, 06 Jul 2018 19:26:36 +0100
REM compiler GCC version 9.2.1 20190827 (Red Hat 9.2.1-1)
REM options -cpp -mtune=generic -march=x86-64 -g -O0 -fpre-include=/usr/include/finclude/math-vector-fortran.h
REM seed 938710471 2059317491 292386908 1176104919 1078122780 -1382012743 -1943234641 -90128875 8436046 172676379 -1073616697 -1434733146 -1247494599 163826335 1528844792 -833290430 1594313743 609151302 -910765274 1683116630 -1188744462 109660620 152399721 -877950906 2052709926 727785331 519067669 -647101677 1985816773 -1257594554 -734700812 -1093082041 -454335152
REM
CELL 1.54180   15.00000   15.00000   15.00000   90.00000   90.00000   90.00000
LATT -1
SFAC C  
C      1  0.4486450000000  0.5153100000000  0.4066530000000 1.0
C      1  0.4499730000000  0.4823900000000  0.5870930000000 1.0
C      1  0.5523530000000  0.5252100000000  0.5929150000000 1.0
C      1  0.5527580000000  0.4809050000000  0.4128260000000 1.0
C      1  0.4507570000000  0.4027830000000  0.5235990000000 1.0
C      1  0.4524840000000  0.5914910000000  0.4737130000000 1.0
C      1  0.5545820000000  0.5910860000000  0.5161780000000 1.0
C      1  0.5532590000000  0.4164310000000  0.4876320000000 1.0
C      1  0.5803300000000  0.3837020000000  0.2820470000000 1.0
C      1  0.5823560000000  0.6172420000000  0.7176450000000 1.0
C      1  0.4239840000000  0.3659420000000  0.6954280000000 1.0
C      1  0.4129640000000  0.6296040000000  0.2929750000000 1.0
C      1  0.5738380000000  0.3058740000000  0.3656980000000 1.0
C      1  0.5760110000000  0.6931680000000  0.6318940000000 1.0
C      1  0.4265190000000  0.7081280000000  0.3762720000000 1.0
C      1  0.4173490000000  0.2815480000000  0.6182530000000 1.0
C      1  0.5388570000000  0.5272290000000  0.7694640000000 1.0
C      1  0.5435150000000  0.4779860000000  0.2408840000000 1.0
C      1  0.4456360000000  0.5329910000000  0.2433440000000 1.0
C      1  0.4473970000000  0.4620740000000  0.7519700000000 1.0
C      1  0.5491420000000  0.7566010000000  0.5405000000000 1.0
C      1  0.5515690000000  0.2504750000000  0.4625090000000 1.0
C      1  0.4605900000000  0.2306480000000  0.5275520000000 1.0
C      1  0.4608030000000  0.7647600000000  0.4690380000000 1.0
C      1  0.5196210000000  0.3149940000000  0.6178810000000 1.0
C      1  0.5363840000000  0.6945360000000  0.3851910000000 1.0
C      1  0.4637520000000  0.3119360000000  0.3832570000000 1.0
C      1  0.4662940000000  0.6833400000000  0.6142850000000 1.0
C      1  0.5160090000000  0.6237130000000  0.3216580000000 1.0
C      1  0.5332240000000  0.3846850000000  0.6856390000000 1.0
C      1  0.4764350000000  0.3795820000000  0.3125290000000 1.0
C      1  0.4801210000000  0.6165410000000  0.6844050000000 1.0
C      1  0.4385690000000  0.6841360000000  0.5268020000000 1.0
C      1  0.4337970000000  0.3112620000000  0.4705210000000 1.0
C      1  0.5684000000000  0.6869120000000  0.4704570000000 1.0
C      1  0.5583880000000  0.3203840000000  0.5337870000000 1.0
C      1  0.4405690000000  0.5326410000000  0.6804730000000 1.0
C      1  0.4343720000000  0.4630150000000  0.3150810000000 1.0
C      1  0.5627340000000  0.4716630000000  0.6868430000000 1.0
C      1  0.5535310000000  0.5387770000000  0.3209490000000 1.0
C      1  0.6563940000000  0.4097640000000  0.5312150000000 1.0
C      1  0.6590520000000  0.5904220000000  0.4721100000000 1.0
C      1  0.3438990000000  0.4066140000000  0.4875270000000 1.0
C      1  0.3456100000000  0.5917230000000  0.5107750000000 1.0
C      1  0.6579410000000  0.5162290000000  0.4035550000000 1.0
C      1  0.6584610000000  0.4853100000000  0.5970490000000 1.0
C      1  0.3447890000000  0.4709660000000  0.4123450000000 1.0
C      1  0.3471340000000  0.5272510000000  0.5863970000000 1.0
C      1  0.6553460000000  0.5869940000000  0.6503320000000 1.0
C      1  0.6509140000000  0.4135350000000  0.3529290000000 1.0
C      1  0.3414140000000  0.5561160000000  0.3359950000000 1.0
C      1  0.3472250000000  0.4400980000000  0.6606090000000 1.0
C      1  0.6588160000000  0.6600460000000  0.5631330000000 1.0
C      1  0.6515490000000  0.3400510000000  0.4405570000000 1.0
C      1  0.3463030000000  0.3514550000000  0.5882740000000 1.0
C      1  0.3492450000000  0.6443210000000  0.4086820000000 1.0
C      1  0.7212550000000  0.4301150000000  0.4406960000000 1.0
C      1  0.7249810000000  0.5679320000000  0.5616920000000 1.0
C      1  0.2762460000000  0.4398740000000  0.5717430000000 1.0
C      1  0.2755590000000  0.5594860000000  0.4285450000000 1.0
END
