TITL C-3036479-9801-611 -5.43929195935462e-06 3375 -343.229788903489 0 0 60 (C1) n - 1
REM
REM in /home/bkarasulu/work/CARBON/AIRSS/Generating-Clusters/REBO/Higher-Symm/Only-C60
REM
REM
REM
REM
REM
REM ./C.cell (a2850807a9bf4ad07a5b6933b78d9264)
REM AIRSS Version 0.9.1 bugfix July 2018 build 013d7b7c2542+ Fri, 06 Jul 2018 19:26:36 +0100
REM compiler GCC version 9.2.1 20190827 (Red Hat 9.2.1-1)
REM options -cpp -mtune=generic -march=x86-64 -g -O0 -fpre-include=/usr/include/finclude/math-vector-fortran.h
REM seed 1062326657 1105907596 -1308354529 -1535487096 -23459531 1368879807 22652340 -374071382 266454465 830718359 -1065814663 -704095021 -818001825 934501074 -1192867107 -2097176585 189653746 481033341 897117286 -393996816 -1422636265 -2072959800 -610857304 558853318 -1869139762 2089955425 815230252 328884882 39079742 1660667487 1800894521 2022238884 1488133789
REM
CELL 1.54180   15.00000   15.00000   15.00000   90.00000   90.00000   90.00000
LATT -1
SFAC C  
C      1  0.5988370000000  0.3183150000000  0.3935430000000 1.0
C      1  0.7376670000000  0.5828530000000  0.4608650000000 1.0
C      1  0.5607310000000  0.5064590000000  0.7300640000000 1.0
C      1  0.5732980000000  0.5835800000000  0.3289380000000 1.0
C      1  0.3650870000000  0.2800100000000  0.3991060000000 1.0
C      1  0.3111830000000  0.4630580000000  0.5519220000000 1.0
C      1  0.3540480000000  0.5313310000000  0.6020770000000 1.0
C      1  0.6769400000000  0.5031260000000  0.6632750000000 1.0
C      1  0.6228700000000  0.7029620000000  0.5211000000000 1.0
C      1  0.6378200000000  0.6615380000000  0.3568250000000 1.0
C      1  0.4274630000000  0.6814240000000  0.5863350000000 1.0
C      1  0.4117200000000  0.5929450000000  0.3469000000000 1.0
C      1  0.5640610000000  0.6865180000000  0.6808290000000 1.0
C      1  0.6885350000000  0.4086350000000  0.6082780000000 1.0
C      1  0.5652570000000  0.6471120000000  0.4449900000000 1.0
C      1  0.6533540000000  0.4683890000000  0.3422450000000 1.0
C      1  0.4933860000000  0.4023590000000  0.4198740000000 1.0
C      1  0.3894160000000  0.4954860000000  0.7247530000000 1.0
C      1  0.6278730000000  0.3189810000000  0.6441930000000 1.0
C      1  0.3054020000000  0.6088130000000  0.4702040000000 1.0
C      1  0.3905500000000  0.7384780000000  0.4157810000000 1.0
C      1  0.5199690000000  0.2647420000000  0.4043810000000 1.0
C      1  0.3956510000000  0.2865820000000  0.5043800000000 1.0
C      1  0.5037540000000  0.3966870000000  0.5246370000000 1.0
C      1  0.5226850000000  0.3199880000000  0.6731610000000 1.0
C      1  0.6646830000000  0.5150820000000  0.7753790000000 1.0
C      1  0.6208740000000  0.4140030000000  0.7026750000000 1.0
C      1  0.5183530000000  0.6038160000000  0.7100910000000 1.0
C      1  0.5844010000000  0.5374650000000  0.4321090000000 1.0
C      1  0.4911630000000  0.2664190000000  0.4993910000000 1.0
C      1  0.5174840000000  0.5002090000000  0.5060210000000 1.0
C      1  0.6961290000000  0.6640650000000  0.4437600000000 1.0
C      1  0.6238430000000  0.5678350000000  0.6133280000000 1.0
C      1  0.4079700000000  0.4634010000000  0.3751580000000 1.0
C      1  0.6948670000000  0.5010650000000  0.2721220000000 1.0
C      1  0.4690760000000  0.4657310000000  0.6889810000000 1.0
C      1  0.5763200000000  0.4048940000000  0.3401660000000 1.0
C      1  0.4672360000000  0.3912770000000  0.3104060000000 1.0
C      1  0.3462100000000  0.6208470000000  0.5544560000000 1.0
C      1  0.5737270000000  0.3105510000000  0.5509310000000 1.0
C      1  0.4789140000000  0.3901320000000  0.6320930000000 1.0
C      1  0.5333010000000  0.5443300000000  0.5923220000000 1.0
C      1  0.3119020000000  0.4435670000000  0.3897850000000 1.0
C      1  0.4658260000000  0.6587030000000  0.4491570000000 1.0
C      1  0.6887800000000  0.4136200000000  0.5065910000000 1.0
C      1  0.6381130000000  0.6614720000000  0.6161010000000 1.0
C      1  0.4875170000000  0.5929570000000  0.2893680000000 1.0
C      1  0.2708920000000  0.5138460000000  0.4644150000000 1.0
C      1  0.2134420000000  0.4907090000000  0.3720860000000 1.0
C      1  0.3268740000000  0.3699380000000  0.5323820000000 1.0
C      1  0.4481830000000  0.7548080000000  0.5081750000000 1.0
C      1  0.3057930000000  0.3525320000000  0.4329960000000 1.0
C      1  0.5303680000000  0.7305040000000  0.5815190000000 1.0
C      1  0.1442340000000  0.5014810000000  0.3234350000000 1.0
C      1  0.6824050000000  0.4943270000000  0.4442660000000 1.0
C      1  0.3454210000000  0.6506620000000  0.3932690000000 1.0
C      1  0.4478010000000  0.5467530000000  0.4408530000000 1.0
C      1  0.6401590000000  0.3372120000000  0.4753820000000 1.0
C      1  0.4456870000000  0.2900270000000  0.3463800000000 1.0
C      1  0.4444980000000  0.5853900000000  0.6357950000000 1.0
END
