TITL C-3036483-1610-157 7.28575237851232e-06 3375 -365.190424125586 0 0 60 (Ci) n - 1
REM
REM in /home/bkarasulu/work/CARBON/AIRSS/Generating-Clusters/REBO/Higher-Symm/Only-C60
REM
REM
REM
REM
REM
REM ./C.cell (a2850807a9bf4ad07a5b6933b78d9264)
REM AIRSS Version 0.9.1 bugfix July 2018 build 013d7b7c2542+ Fri, 06 Jul 2018 19:26:36 +0100
REM compiler GCC version 9.2.1 20190827 (Red Hat 9.2.1-1)
REM options -cpp -mtune=generic -march=x86-64 -g -O0 -fpre-include=/usr/include/finclude/math-vector-fortran.h
REM seed -1910581994 -1008660278 489472898 995710040 -1834915279 -2116858162 -661527890 -1708333882 -1103490113 1129765713 -671143258 225454534 1136532253 1629052118 1461640153 -1327550461 1804844065 2101020526 -172223018 -1430919178 -1422924145 -3936661 1648659877 575242569 -57790282 419392273 -523595195 -424150380 1153343070 -416965994 903434798 858410669 -356274435
REM
CELL 1.54180   15.00000   15.00000   15.00000   90.00000   90.00000   90.00000
LATT -1
SFAC C  
C      1  0.3130170000000  0.5187230000000  0.4992200000000 1.0
C      1  0.6869830000000  0.4812770000000  0.5007800000000 1.0
C      1  0.2745130000000  0.3986950000000  0.4098790000000 1.0
C      1  0.7254870000000  0.6013060000000  0.5901210000000 1.0
C      1  0.5159820000000  0.5868200000000  0.2812420000000 1.0
C      1  0.4840180000000  0.4131800000000  0.7187570000000 1.0
C      1  0.5033310000000  0.7594500000000  0.3522970000000 1.0
C      1  0.4966700000000  0.2405510000000  0.6476990000000 1.0
C      1  0.4075280000000  0.6586300000000  0.3966330000000 1.0
C      1  0.5924730000000  0.3413690000000  0.6033670000000 1.0
C      1  0.5714860000000  0.3183030000000  0.4443660000000 1.0
C      1  0.4285140000000  0.6816970000000  0.5556340000000 1.0
C      1  0.3456260000000  0.5305970000000  0.6506330000000 1.0
C      1  0.6543740000000  0.4694030000000  0.3493680000000 1.0
C      1  0.5159900000000  0.5074960000000  0.7173060000000 1.0
C      1  0.4840100000000  0.4925040000000  0.2826930000000 1.0
C      1  0.6000560000000  0.7201130000000  0.5376970000000 1.0
C      1  0.3999430000000  0.2798860000000  0.4623020000000 1.0
C      1  0.4833680000000  0.6543810000000  0.6282960000000 1.0
C      1  0.5166320000000  0.3456190000000  0.3717050000000 1.0
C      1  0.6395650000000  0.4243410000000  0.6632330000000 1.0
C      1  0.3604360000000  0.5756590000000  0.3367660000000 1.0
C      1  0.6959200000000  0.4204260000000  0.4268160000000 1.0
C      1  0.3040800000000  0.5795750000000  0.5731850000000 1.0
C      1  0.5764470000000  0.7095230000000  0.3723140000000 1.0
C      1  0.4235530000000  0.2904780000000  0.6276840000000 1.0
C      1  0.5401950000000  0.4612120000000  0.5781840000000 1.0
C      1  0.4598040000000  0.5387870000000  0.4218180000000 1.0
C      1  0.4655520000000  0.6619200000000  0.4709040000000 1.0
C      1  0.5344480000000  0.3380800000000  0.5290960000000 1.0
C      1  0.7228220000000  0.7041340000000  0.4344420000000 1.0
C      1  0.2771770000000  0.2958660000000  0.5655570000000 1.0
C      1  0.5952590000000  0.6262680000000  0.3246360000000 1.0
C      1  0.4047410000000  0.3737320000000  0.6753630000000 1.0
C      1  0.7413260000000  0.5603310000000  0.5038000000000 1.0
C      1  0.2586740000000  0.4396690000000  0.4962000000000 1.0
C      1  0.7331260000000  0.6107230000000  0.4206160000000 1.0
C      1  0.2668740000000  0.3892770000000  0.5793840000000 1.0
C      1  0.5540780000000  0.4245830000000  0.3213670000000 1.0
C      1  0.4459220000000  0.5754180000000  0.6786330000000 1.0
C      1  0.4512360000000  0.4100700000000  0.5298190000000 1.0
C      1  0.5487640000000  0.5899280000000  0.4701820000000 1.0
C      1  0.4238260000000  0.3364600000000  0.3891840000000 1.0
C      1  0.5761730000000  0.6635400000000  0.6108160000000 1.0
C      1  0.4395440000000  0.4852040000000  0.6113450000000 1.0
C      1  0.5604560000000  0.5147970000000  0.3886540000000 1.0
C      1  0.5646930000000  0.3575980000000  0.7055580000000 1.0
C      1  0.4353070000000  0.6424010000000  0.2944420000000 1.0
C      1  0.6730150000000  0.5749470000000  0.3517240000000 1.0
C      1  0.3269850000000  0.4250530000000  0.6482760000000 1.0
C      1  0.5978240000000  0.5096990000000  0.5250610000000 1.0
C      1  0.4021760000000  0.4903000000000  0.4749420000000 1.0
C      1  0.3674780000000  0.2699310000000  0.5510200000000 1.0
C      1  0.6325220000000  0.7300690000000  0.4489800000000 1.0
C      1  0.3931740000000  0.4839800000000  0.3200480000000 1.0
C      1  0.6068260000000  0.5160200000000  0.6799520000000 1.0
C      1  0.3346650000000  0.6684910000000  0.5638660000000 1.0
C      1  0.6653350000000  0.3315090000000  0.4361350000000 1.0
C      1  0.6404920000000  0.5963190000000  0.6368110000000 1.0
C      1  0.3595070000000  0.4036810000000  0.3631890000000 1.0
END
