TITL C-3036484-3770-1168 0.0372417202382787 3375 -347.898823716377 0 0 60 (C1) n - 1
REM
REM in /home/bkarasulu/work/CARBON/AIRSS/Generating-Clusters/REBO/Higher-Symm/Only-C60
REM
REM
REM
REM
REM
REM ./C.cell (a2850807a9bf4ad07a5b6933b78d9264)
REM AIRSS Version 0.9.1 bugfix July 2018 build 013d7b7c2542+ Fri, 06 Jul 2018 19:26:36 +0100
REM compiler GCC version 9.2.1 20190827 (Red Hat 9.2.1-1)
REM options -cpp -mtune=generic -march=x86-64 -g -O0 -fpre-include=/usr/include/finclude/math-vector-fortran.h
REM seed -138015726 -335526635 -947976171 -1179372945 109033775 599744184 -1563817767 -7898906 122036006 -520988964 -1960756155 2140678080 -1808990050 1395875117 1207644618 -1816276556 -941203072 -1423747252 1818180548 -1202009536 1643182539 -89620329 1891177027 -1442057841 1994966387 -698074145 -279273285 986916531 183646579 -455914345 256608565 2117768886 1481299494
REM
CELL 1.54180   15.00000   15.00000   15.00000   90.00000   90.00000   90.00000
LATT -1
SFAC C  
C      1  0.7174110000000  0.5755240000000  0.5273640000000 1.0
C      1  0.3502390000000  0.5782940000000  0.3620600000000 1.0
C      1  0.3097220000000  0.6683370000000  0.3981620000000 1.0
C      1  0.7125920000000  0.5834770000000  0.6244070000000 1.0
C      1  0.6104350000000  0.4027920000000  0.3195820000000 1.0
C      1  0.5888910000000  0.3292000000000  0.5166670000000 1.0
C      1  0.3943990000000  0.5154390000000  0.5215560000000 1.0
C      1  0.6690520000000  0.4768950000000  0.3543750000000 1.0
C      1  0.4057740000000  0.2882610000000  0.5848260000000 1.0
C      1  0.6158870000000  0.3980270000000  0.7044000000000 1.0
C      1  0.3507830000000  0.3695090000000  0.3217050000000 1.0
C      1  0.4934270000000  0.4139710000000  0.4794300000000 1.0
C      1  0.4453250000000  0.3732540000000  0.2877290000000 1.0
C      1  0.4997230000000  0.6472030000000  0.4253700000000 1.0
C      1  0.4781780000000  0.3176820000000  0.6423390000000 1.0
C      1  0.2477110000000  0.5285430000000  0.4897100000000 1.0
C      1  0.4135960000000  0.4157790000000  0.5471800000000 1.0
C      1  0.4168950000000  0.5232380000000  0.4265740000000 1.0
C      1  0.5668480000000  0.6300420000000  0.3353750000000 1.0
C      1  0.5012310000000  0.5185430000000  0.8140300000000 1.0
C      1  0.5179050000000  0.3787020000000  0.7193690000000 1.0
C      1  0.5771280000000  0.4875720000000  0.4964660000000 1.0
C      1  0.4247550000000  0.2782180000000  0.4836150000000 1.0
C      1  0.3340370000000  0.6585940000000  0.5545600000000 1.0
C      1  0.5506640000000  0.5831210000000  0.6669420000000 1.0
C      1  0.7343160000000  0.4998480000000  0.6655590000000 1.0
C      1  0.4877290000000  0.8329150000000  0.4819130000000 1.0
C      1  0.5511990000000  0.3711320000000  0.5911240000000 1.0
C      1  0.4556910000000  0.6042880000000  0.3293880000000 1.0
C      1  0.7281660000000  0.4389590000000  0.4219860000000 1.0
C      1  0.6060820000000  0.3327690000000  0.3861840000000 1.0
C      1  0.5501090000000  0.5984620000000  0.5051780000000 1.0
C      1  0.3182790000000  0.3383560000000  0.5988430000000 1.0
C      1  0.3493290000000  0.7051950000000  0.4728200000000 1.0
C      1  0.5140190000000  0.3089900000000  0.4413990000000 1.0
C      1  0.6815420000000  0.3527580000000  0.4648650000000 1.0
C      1  0.5791760000000  0.7355540000000  0.3425120000000 1.0
C      1  0.3215370000000  0.4133030000000  0.6525480000000 1.0
C      1  0.3143030000000  0.4040350000000  0.4028350000000 1.0
C      1  0.5210850000000  0.4931650000000  0.7267870000000 1.0
C      1  0.5267860000000  0.4623000000000  0.6170850000000 1.0
C      1  0.4083960000000  0.5915260000000  0.5768880000000 1.0
C      1  0.7611280000000  0.4934120000000  0.4969270000000 1.0
C      1  0.3409650000000  0.3543980000000  0.4890730000000 1.0
C      1  0.4436810000000  0.7311990000000  0.4572620000000 1.0
C      1  0.2769890000000  0.5727130000000  0.5693610000000 1.0
C      1  0.5140750000000  0.5179980000000  0.2914300000000 1.0
C      1  0.6431040000000  0.5691510000000  0.3718590000000 1.0
C      1  0.4176380000000  0.4731700000000  0.6452560000000 1.0
C      1  0.6738190000000  0.4315590000000  0.6382050000000 1.0
C      1  0.3132030000000  0.5175850000000  0.6372320000000 1.0
C      1  0.5001520000000  0.6058470000000  0.5920630000000 1.0
C      1  0.5243860000000  0.5178050000000  0.4030250000000 1.0
C      1  0.5300810000000  0.7808430000000  0.4015070000000 1.0
C      1  0.5308680000000  0.4268680000000  0.2681330000000 1.0
C      1  0.6606110000000  0.4393710000000  0.5363350000000 1.0
C      1  0.2880750000000  0.4961160000000  0.4093770000000 1.0
C      1  0.6369750000000  0.6220710000000  0.6672620000000 1.0
C      1  0.4553050000000  0.4302190000000  0.3775120000000 1.0
C      1  0.6485960000000  0.5959020000000  0.4664770000000 1.0
END
