TITL C-3036486-2224-1005 -0.0286076790282556 3375 -337.795851881692 0 0 60 (S4) n - 1
REM
REM in /home/bkarasulu/work/CARBON/AIRSS/Generating-Clusters/REBO/Higher-Symm/Only-C60
REM
REM
REM
REM
REM
REM ./C.cell (a2850807a9bf4ad07a5b6933b78d9264)
REM AIRSS Version 0.9.1 bugfix July 2018 build 013d7b7c2542+ Fri, 06 Jul 2018 19:26:36 +0100
REM compiler GCC version 9.2.1 20190827 (Red Hat 9.2.1-1)
REM options -cpp -mtune=generic -march=x86-64 -g -O0 -fpre-include=/usr/include/finclude/math-vector-fortran.h
REM seed -1495944307 1406077423 -1201881016 1821573361 576871082 -2111110899 1307759255 1605532695 -46032365 852113414 -214762302 1045833113 1144155156 649780996 -1365990430 -1835712743 1265690107 -259073506 1698682936 1169965807 -988960567 887727066 -982504416 -1229192140 -930590599 159239461 968448855 204174635 1066040454 392294678 1844191043 -266918263 -432746957
REM
CELL 1.54180   15.00000   15.00000   15.00000   90.00000   90.00000   90.00000
LATT -1
SFAC C  
C      1  0.6115920000000  0.4505200000000  0.3838880000000 1.0
C      1  0.6143500000000  0.3889800000000  0.5472640000000 1.0
C      1  0.6115660000000  0.5494880000000  0.6161050000000 1.0
C      1  0.6143470000000  0.6110280000000  0.4527350000000 1.0
C      1  0.3967480000000  0.4527700000000  0.3890550000000 1.0
C      1  0.3994920000000  0.3838290000000  0.5495280000000 1.0
C      1  0.3967590000000  0.5472550000000  0.6109840000000 1.0
C      1  0.3994820000000  0.6161950000000  0.4504970000000 1.0
C      1  0.5494590000000  0.5878970000000  0.5362570000000 1.0
C      1  0.5495030000000  0.5347720000000  0.4115190000000 1.0
C      1  0.5494660000000  0.4121200000000  0.4637310000000 1.0
C      1  0.5495020000000  0.4652250000000  0.5884800000000 1.0
C      1  0.4615640000000  0.5885130000000  0.5347430000000 1.0
C      1  0.4616070000000  0.5363160000000  0.4121340000000 1.0
C      1  0.4615690000000  0.4114920000000  0.4652500000000 1.0
C      1  0.4616070000000  0.4637160000000  0.5879030000000 1.0
C      1  0.6123510000000  0.8679940000000  0.3610260000000 1.0
C      1  0.5911610000000  0.3581670000000  0.1274930000000 1.0
C      1  0.6123650000000  0.1319910000000  0.6388940000000 1.0
C      1  0.5911940000000  0.6417870000000  0.8725200000000 1.0
C      1  0.4198810000000  0.8726280000000  0.3581570000000 1.0
C      1  0.3987420000000  0.3610920000000  0.1321290000000 1.0
C      1  0.4198800000000  0.1273720000000  0.6417920000000 1.0
C      1  0.3987780000000  0.6389000000000  0.8679220000000 1.0
C      1  0.4364660000000  0.6745070000000  0.9643840000000 1.0
C      1  0.4632340000000  0.9671520000000  0.3237710000000 1.0
C      1  0.4363970000000  0.3254720000000  0.0356631000000 1.0
C      1  0.4632380000000  0.0328344000000  0.6761300000000 1.0
C      1  0.5478790000000  0.6762060000000  0.9670310000000 1.0
C      1  0.5746550000000  0.9644890000000  0.3254670000000 1.0
C      1  0.5478080000000  0.3237310000000  0.0330003000000 1.0
C      1  0.5746580000000  0.0354884000000  0.6744190000000 1.0
C      1  0.6295640000000  0.2967780000000  0.5838880000000 1.0
C      1  0.6187160000000  0.5870530000000  0.7089120000000 1.0
C      1  0.6295540000000  0.7032210000000  0.4160860000000 1.0
C      1  0.6187790000000  0.4129390000000  0.2910830000000 1.0
C      1  0.3922810000000  0.2910070000000  0.5871050000000 1.0
C      1  0.3816040000000  0.5838580000000  0.7031730000000 1.0
C      1  0.3922720000000  0.7090120000000  0.4129070000000 1.0
C      1  0.3815800000000  0.4161450000000  0.2968810000000 1.0
C      1  0.3691300000000  0.3873610000000  0.2141730000000 1.0
C      1  0.3855170000000  0.2078660000000  0.6165340000000 1.0
C      1  0.3691450000000  0.6126380000000  0.7858820000000 1.0
C      1  0.3855210000000  0.7921450000000  0.3834540000000 1.0
C      1  0.6255310000000  0.3835000000000  0.2079530000000 1.0
C      1  0.6420040000000  0.2140610000000  0.6126940000000 1.0
C      1  0.6255280000000  0.6164670000000  0.7920430000000 1.0
C      1  0.6419800000000  0.7859300000000  0.3872530000000 1.0
C      1  0.7025680000000  0.5608650000000  0.4739770000000 1.0
C      1  0.7034230000000  0.4686790000000  0.4267640000000 1.0
C      1  0.7025700000000  0.4391560000000  0.5260460000000 1.0
C      1  0.7034080000000  0.5313430000000  0.5732590000000 1.0
C      1  0.3076470000000  0.5732780000000  0.4686830000000 1.0
C      1  0.3085260000000  0.4739780000000  0.4391740000000 1.0
C      1  0.3076520000000  0.4267490000000  0.5313650000000 1.0
C      1  0.3085270000000  0.5260510000000  0.5608810000000 1.0
C      1  0.4948060000000  0.4020640000000  0.0968889000000 1.0
C      1  0.5162700000000  0.0968527000000  0.5979280000000 1.0
C      1  0.4948390000000  0.5979040000000  0.9031380000000 1.0
C      1  0.5162730000000  0.9031740000000  0.4020010000000 1.0
END
