TITL C-3036480-97-438 1.77133762914556e-06 3375 -337.220940179004 0 0 60 (C2) n - 1
REM
REM in /home/bkarasulu/work/CARBON/AIRSS/Generating-Clusters/REBO/Higher-Symm/Only-C60
REM
REM
REM
REM
REM
REM ./C.cell (a2850807a9bf4ad07a5b6933b78d9264)
REM AIRSS Version 0.9.1 bugfix July 2018 build 013d7b7c2542+ Fri, 06 Jul 2018 19:26:36 +0100
REM compiler GCC version 9.2.1 20190827 (Red Hat 9.2.1-1)
REM options -cpp -mtune=generic -march=x86-64 -g -O0 -fpre-include=/usr/include/finclude/math-vector-fortran.h
REM seed -731068574 -1950755531 1628874766 -1534958407 -1576226063 -912437189 -1835115804 -315134610 911182886 2103544639 -1568464453 816701983 198510121 1884385047 423487988 2096976117 1203928895 -2048426587 1570702237 -1292708924 333472347 -264601161 591790839 271101355 1060210746 2077186192 1876185815 -870573827 1526872987 -1332888761 -260968692 -1347108573 -609213183
REM
CELL 1.54180   15.00000   15.00000   15.00000   90.00000   90.00000   90.00000
LATT -1
SFAC C  
C      1  0.7820930000000  0.4055390000000  0.3902370000000 1.0
C      1  0.7820930000000  0.5944620000000  0.6097630000000 1.0
C      1  0.2203920000000  0.4026450000000  0.3925550000000 1.0
C      1  0.2203920000000  0.5973540000000  0.6074450000000 1.0
C      1  0.2685620000000  0.4969180000000  0.4123480000000 1.0
C      1  0.2685620000000  0.5030810000000  0.5876520000000 1.0
C      1  0.7340960000000  0.4988370000000  0.4148440000000 1.0
C      1  0.7340950000000  0.5011640000000  0.5851560000000 1.0
C      1  0.4046540000000  0.7056180000000  0.5163970000000 1.0
C      1  0.4046540000000  0.2943820000000  0.4836030000000 1.0
C      1  0.5868710000000  0.7058050000000  0.5177870000000 1.0
C      1  0.5868710000000  0.2941960000000  0.4822130000000 1.0
C      1  0.4145600000000  0.4674070000000  0.4673570000000 1.0
C      1  0.4145600000000  0.5325930000000  0.5326430000000 1.0
C      1  0.5805700000000  0.4668540000000  0.4680750000000 1.0
C      1  0.5805700000000  0.5331460000000  0.5319250000000 1.0
C      1  0.6009380000000  0.4158490000000  0.6463900000000 1.0
C      1  0.6009380000000  0.5841520000000  0.3536100000000 1.0
C      1  0.4039500000000  0.4135750000000  0.6466190000000 1.0
C      1  0.4039500000000  0.5864250000000  0.3533810000000 1.0
C      1  0.5567070000000  0.3712000000000  0.7346210000000 1.0
C      1  0.5567070000000  0.6288000000000  0.2653790000000 1.0
C      1  0.4549320000000  0.3622290000000  0.7277980000000 1.0
C      1  0.4549320000000  0.6377710000000  0.2722020000000 1.0
C      1  0.3132580000000  0.4095400000000  0.5812220000000 1.0
C      1  0.3132580000000  0.5904600000000  0.4187780000000 1.0
C      1  0.6882580000000  0.4077830000000  0.5784870000000 1.0
C      1  0.6882580000000  0.5922180000000  0.4215130000000 1.0
C      1  0.5455120000000  0.7040170000000  0.3425910000000 1.0
C      1  0.5455120000000  0.2959830000000  0.6574090000000 1.0
C      1  0.4420210000000  0.7135690000000  0.3468120000000 1.0
C      1  0.4420220000000  0.2864310000000  0.6531880000000 1.0
C      1  0.4489230000000  0.3841000000000  0.4932360000000 1.0
C      1  0.4489220000000  0.6159000000000  0.5067640000000 1.0
C      1  0.5432350000000  0.3842730000000  0.4931890000000 1.0
C      1  0.5432350000000  0.6157270000000  0.5068110000000 1.0
C      1  0.5485930000000  0.2600500000000  0.4002250000000 1.0
C      1  0.5485920000000  0.7399500000000  0.5997750000000 1.0
C      1  0.4407180000000  0.2538510000000  0.4054820000000 1.0
C      1  0.4407170000000  0.7461490000000  0.5945180000000 1.0
C      1  0.7286560000000  0.5836490000000  0.5166920000000 1.0
C      1  0.7286560000000  0.4163510000000  0.4833080000000 1.0
C      1  0.2728200000000  0.5813550000000  0.5144690000000 1.0
C      1  0.2728200000000  0.4186450000000  0.4855310000000 1.0
C      1  0.4158160000000  0.5920730000000  0.6809880000000 1.0
C      1  0.4158160000000  0.4079270000000  0.3190120000000 1.0
C      1  0.5914820000000  0.5843330000000  0.6884910000000 1.0
C      1  0.5914820000000  0.4156670000000  0.3115090000000 1.0
C      1  0.4568020000000  0.3213660000000  0.3263050000000 1.0
C      1  0.4568020000000  0.6786340000000  0.6736950000000 1.0
C      1  0.5593690000000  0.3264770000000  0.3168250000000 1.0
C      1  0.5593690000000  0.6735230000000  0.6831760000000 1.0
C      1  0.3745150000000  0.3183250000000  0.5815700000000 1.0
C      1  0.3745150000000  0.6816750000000  0.4184290000000 1.0
C      1  0.6180480000000  0.3204160000000  0.5821520000000 1.0
C      1  0.6180480000000  0.6795840000000  0.4178480000000 1.0
C      1  0.4475220000000  0.5041580000000  0.6276190000000 1.0
C      1  0.4475220000000  0.4958420000000  0.3723810000000 1.0
C      1  0.5561290000000  0.5049240000000  0.6275790000000 1.0
C      1  0.5561290000000  0.4950760000000  0.3724210000000 1.0
END
