TITL C-3036486-2224-24 -0.0220891126805025 3375 -336.248374417508 0 0 60 (C2h) n - 1
REM
REM in /home/bkarasulu/work/CARBON/AIRSS/Generating-Clusters/REBO/Higher-Symm/Only-C60
REM
REM
REM
REM
REM
REM ./C.cell (a2850807a9bf4ad07a5b6933b78d9264)
REM AIRSS Version 0.9.1 bugfix July 2018 build 013d7b7c2542+ Fri, 06 Jul 2018 19:26:36 +0100
REM compiler GCC version 9.2.1 20190827 (Red Hat 9.2.1-1)
REM options -cpp -mtune=generic -march=x86-64 -g -O0 -fpre-include=/usr/include/finclude/math-vector-fortran.h
REM seed 611531522 726702313 1516746048 -2094393817 -1781613689 2100283648 145586344 -891221904 120061514 496372340 1353879896 865202100 1356350410 -2109612017 654119130 -120532487 1776894534 1218325417 1792566551 713040754 -1507599751 147236506 -806952224 723523920 3954737 -1906024820 -1038175318 -138929163 -599580051 1127176864 -1844558041 -929356218 650467638
REM
CELL 1.54180   15.00000   15.00000   15.00000   90.00000   90.00000   90.00000
LATT -1
SFAC C  
C      1  0.7131340000000  0.6267430000000  0.3892330000000 1.0
C      1  0.2885800000000  0.6128640000000  0.3929960000000 1.0
C      1  0.5072330000000  0.2731120000000  0.3948760000000 1.0
C      1  0.2868650000000  0.6267430000000  0.6107670000000 1.0
C      1  0.7114200000000  0.6128640000000  0.6070050000000 1.0
C      1  0.4927670000000  0.2731110000000  0.6051240000000 1.0
C      1  0.2868680000000  0.3732600000000  0.6107680000000 1.0
C      1  0.7114210000000  0.3871360000000  0.6070030000000 1.0
C      1  0.4927680000000  0.7269080000000  0.6051170000000 1.0
C      1  0.7131310000000  0.3732600000000  0.3892310000000 1.0
C      1  0.2885790000000  0.3871360000000  0.3929970000000 1.0
C      1  0.5072330000000  0.7269240000000  0.3948840000000 1.0
C      1  0.5270650000000  0.3564830000000  0.5443280000000 1.0
C      1  0.6318480000000  0.6019560000000  0.5362430000000 1.0
C      1  0.3357050000000  0.5560590000000  0.5456670000000 1.0
C      1  0.4729340000000  0.3564840000000  0.4556700000000 1.0
C      1  0.3681500000000  0.6019570000000  0.4637600000000 1.0
C      1  0.6642940000000  0.5560590000000  0.4543350000000 1.0
C      1  0.4729350000000  0.6435430000000  0.4557100000000 1.0
C      1  0.3681520000000  0.3980460000000  0.4637580000000 1.0
C      1  0.6642900000000  0.4439460000000  0.4543290000000 1.0
C      1  0.5270640000000  0.6435360000000  0.5443030000000 1.0
C      1  0.6318480000000  0.3980470000000  0.5362420000000 1.0
C      1  0.3357100000000  0.4439460000000  0.5456710000000 1.0
C      1  0.2391060000000  0.5453180000000  0.3585300000000 1.0
C      1  0.5905020000000  0.2591320000000  0.3625760000000 1.0
C      1  0.6722320000000  0.7019890000000  0.3592770000000 1.0
C      1  0.7608940000000  0.5453170000000  0.6414700000000 1.0
C      1  0.4094990000000  0.2591320000000  0.6374240000000 1.0
C      1  0.3277690000000  0.7019890000000  0.6407230000000 1.0
C      1  0.7608940000000  0.4546830000000  0.6414700000000 1.0
C      1  0.4094990000000  0.7408690000000  0.6374210000000 1.0
C      1  0.3277670000000  0.2980120000000  0.6407230000000 1.0
C      1  0.2391060000000  0.4546830000000  0.3585300000000 1.0
C      1  0.5905020000000  0.7408690000000  0.3625770000000 1.0
C      1  0.6722330000000  0.2980120000000  0.3592770000000 1.0
C      1  0.5082640000000  0.5995610000000  0.3566120000000 1.0
C      1  0.4107570000000  0.4477020000000  0.3819750000000 1.0
C      1  0.6035720000000  0.4452530000000  0.3660540000000 1.0
C      1  0.4917410000000  0.5995940000000  0.6433500000000 1.0
C      1  0.5892430000000  0.4477050000000  0.6180250000000 1.0
C      1  0.3964280000000  0.4452500000000  0.6339450000000 1.0
C      1  0.4917460000000  0.4003710000000  0.6432970000000 1.0
C      1  0.5892570000000  0.5522950000000  0.6180360000000 1.0
C      1  0.3964260000000  0.5547470000000  0.6339460000000 1.0
C      1  0.5082540000000  0.4003690000000  0.3567050000000 1.0
C      1  0.4107410000000  0.5522910000000  0.3819640000000 1.0
C      1  0.6035690000000  0.5547490000000  0.3660550000000 1.0
C      1  0.5828780000000  0.5513340000000  0.7278790000000 1.0
C      1  0.4168490000000  0.5509760000000  0.7421510000000 1.0
C      1  0.5021850000000  0.3979860000000  0.7576500000000 1.0
C      1  0.4171320000000  0.5513390000000  0.2721280000000 1.0
C      1  0.5831430000000  0.5509830000000  0.2578650000000 1.0
C      1  0.4978150000000  0.3979860000000  0.2423490000000 1.0
C      1  0.4171040000000  0.4486630000000  0.2720910000000 1.0
C      1  0.5831720000000  0.4490250000000  0.2578290000000 1.0
C      1  0.4978180000000  0.6020040000000  0.2423500000000 1.0
C      1  0.5828960000000  0.4486630000000  0.7279070000000 1.0
C      1  0.4168280000000  0.4490260000000  0.7421680000000 1.0
C      1  0.5021830000000  0.6020050000000  0.7576550000000 1.0
END
