TITL C-3036485-3770-135 -6.46354172743196e-06 3375 -350.874970691361 0 0 60 (Ci) n - 1
REM
REM in /home/bkarasulu/work/CARBON/AIRSS/Generating-Clusters/REBO/Higher-Symm/Only-C60
REM
REM
REM
REM
REM
REM ./C.cell (a2850807a9bf4ad07a5b6933b78d9264)
REM AIRSS Version 0.9.1 bugfix July 2018 build 013d7b7c2542+ Fri, 06 Jul 2018 19:26:36 +0100
REM compiler GCC version 9.2.1 20190827 (Red Hat 9.2.1-1)
REM options -cpp -mtune=generic -march=x86-64 -g -O0 -fpre-include=/usr/include/finclude/math-vector-fortran.h
REM seed -91857870 2072362947 1447369707 -795588714 -1833694571 -694278710 1858181326 -216330574 31550071 -604082001 -1026552122 1671235084 -1367497052 -673568722 537903992 1950159847 700104842 2123154474 1690986135 -1952921556 -2043273522 1606303458 -1637490506 -39526779 -689404937 2070436729 -2093339164 1811219010 -1744982233 1122895791 -1306540338 56995008 -1724269617
REM
CELL 1.54180   15.00000   15.00000   15.00000   90.00000   90.00000   90.00000
LATT -1
SFAC C  
C      1  0.3959690000000  0.3482850000000  0.4978890000000 1.0
C      1  0.6049670000000  0.3531610000000  0.4952440000000 1.0
C      1  0.3950330000000  0.6468390000000  0.5047560000000 1.0
C      1  0.6040310000000  0.6517150000000  0.5021110000000 1.0
C      1  0.4592580000000  0.6811260000000  0.6782330000000 1.0
C      1  0.5389870000000  0.6737730000000  0.3266650000000 1.0
C      1  0.4610130000000  0.3262270000000  0.6733350000000 1.0
C      1  0.5407420000000  0.3188740000000  0.3217670000000 1.0
C      1  0.7944680000000  0.5475910000000  0.5556620000000 1.0
C      1  0.2049430000000  0.5450510000000  0.4499390000000 1.0
C      1  0.7950570000000  0.4549490000000  0.5500610000000 1.0
C      1  0.2055320000000  0.4524090000000  0.4443380000000 1.0
C      1  0.4120500000000  0.5407880000000  0.2956890000000 1.0
C      1  0.5945240000000  0.5725910000000  0.7216400000000 1.0
C      1  0.4054760000000  0.4274090000000  0.2783600000000 1.0
C      1  0.5879500000000  0.4592120000000  0.7043110000000 1.0
C      1  0.5009620000000  0.5549430000000  0.6722630000000 1.0
C      1  0.5089710000000  0.5472940000000  0.3537260000000 1.0
C      1  0.4910290000000  0.4527060000000  0.6462740000000 1.0
C      1  0.4990380000000  0.4450570000000  0.3277370000000 1.0
C      1  0.3377850000000  0.5582990000000  0.6597800000000 1.0
C      1  0.6614820000000  0.5418880000000  0.3571570000000 1.0
C      1  0.3385180000000  0.4581120000000  0.6428430000000 1.0
C      1  0.6622150000000  0.4417010000000  0.3402200000000 1.0
C      1  0.4345860000000  0.3301030000000  0.3123620000000 1.0
C      1  0.5666550000000  0.3502570000000  0.6815040000000 1.0
C      1  0.4333450000000  0.6497430000000  0.3184960000000 1.0
C      1  0.5654140000000  0.6698970000000  0.6876380000000 1.0
C      1  0.6962870000000  0.4437260000000  0.6909990000000 1.0
C      1  0.3089700000000  0.4569660000000  0.3030710000000 1.0
C      1  0.6910300000000  0.5430340000000  0.6969290000000 1.0
C      1  0.3037130000000  0.5562750000000  0.3090010000000 1.0
C      1  0.4446610000000  0.6693560000000  0.4193350000000 1.0
C      1  0.5534880000000  0.6799430000000  0.5854450000000 1.0
C      1  0.4465120000000  0.3200570000000  0.4145550000000 1.0
C      1  0.5553390000000  0.3306440000000  0.5806650000000 1.0
C      1  0.3510280000000  0.4448900000000  0.5373620000000 1.0
C      1  0.6503280000000  0.4467880000000  0.4491750000000 1.0
C      1  0.3496720000000  0.5532120000000  0.5508250000000 1.0
C      1  0.6489720000000  0.5551100000000  0.4626380000000 1.0
C      1  0.4508660000000  0.6937280000000  0.5754310000000 1.0
C      1  0.5452320000000  0.6927020000000  0.4291330000000 1.0
C      1  0.4547680000000  0.3072980000000  0.5708670000000 1.0
C      1  0.5491340000000  0.3062720000000  0.4245690000000 1.0
C      1  0.2598150000000  0.5990080000000  0.3769470000000 1.0
C      1  0.7369920000000  0.5916630000000  0.6331110000000 1.0
C      1  0.2630080000000  0.4083370000000  0.3668890000000 1.0
C      1  0.7401850000000  0.4009920000000  0.6230530000000 1.0
C      1  0.2919610000000  0.3847720000000  0.4709620000000 1.0
C      1  0.7103120000000  0.3883990000000  0.5173110000000 1.0
C      1  0.2896880000000  0.6116010000000  0.4826890000000 1.0
C      1  0.7080390000000  0.6152280000000  0.5290380000000 1.0
C      1  0.5905170000000  0.4020620000000  0.2947730000000 1.0
C      1  0.4046870000000  0.4084360000000  0.6907610000000 1.0
C      1  0.5953130000000  0.5915640000000  0.3092390000000 1.0
C      1  0.4094830000000  0.5979380000000  0.7052270000000 1.0
C      1  0.4935270000000  0.4467520000000  0.5381270000000 1.0
C      1  0.4948670000000  0.4455950000000  0.4369900000000 1.0
C      1  0.5051330000000  0.5544050000000  0.5630100000000 1.0
C      1  0.5064730000000  0.5532480000000  0.4618730000000 1.0
END
