TITL C-3036484-3770-978 -1.23520417099782e-05 3375 -340.503346300562 0 0 60 (C1) n - 1
REM
REM in /home/bkarasulu/work/CARBON/AIRSS/Generating-Clusters/REBO/Higher-Symm/Only-C60
REM
REM
REM
REM
REM
REM ./C.cell (a2850807a9bf4ad07a5b6933b78d9264)
REM AIRSS Version 0.9.1 bugfix July 2018 build 013d7b7c2542+ Fri, 06 Jul 2018 19:26:36 +0100
REM compiler GCC version 9.2.1 20190827 (Red Hat 9.2.1-1)
REM options -cpp -mtune=generic -march=x86-64 -g -O0 -fpre-include=/usr/include/finclude/math-vector-fortran.h
REM seed -1975969405 1034237442 1331286114 -964052859 -1750952574 2093831103 1072631496 1560844660 -740756362 2109913105 1601706638 -1362672335 1115678668 -1556307021 273003278 111673817 501497116 1317913068 -1517685328 -376517796 296870599 1858429330 679944982 257692524 1388038980 -353429794 -1634920263 1094403420 907115076 1201099252 -949300511 2033130499 -942042745
REM
CELL 1.54180   15.00000   15.00000   15.00000   90.00000   90.00000   90.00000
LATT -1
SFAC C  
C      1  0.6199810000000  0.5867990000000  0.4552380000000 1.0
C      1  0.6423370000000  0.4252550000000  0.4186440000000 1.0
C      1  0.6696860000000  0.4611320000000  0.6269680000000 1.0
C      1  0.4227200000000  0.2235960000000  0.4940270000000 1.0
C      1  0.4158090000000  0.6317350000000  0.7460260000000 1.0
C      1  0.4341310000000  0.6497110000000  0.2643400000000 1.0
C      1  0.3092690000000  0.5605410000000  0.4804790000000 1.0
C      1  0.3102040000000  0.4519580000000  0.4547320000000 1.0
C      1  0.3061200000000  0.4830180000000  0.5613360000000 1.0
C      1  0.5179380000000  0.6124130000000  0.2146850000000 1.0
C      1  0.5311030000000  0.2084980000000  0.5688450000000 1.0
C      1  0.5269620000000  0.6979410000000  0.7172380000000 1.0
C      1  0.6182740000000  0.3468000000000  0.6717060000000 1.0
C      1  0.6114470000000  0.6919920000000  0.5525250000000 1.0
C      1  0.6089410000000  0.4333520000000  0.2825690000000 1.0
C      1  0.5307300000000  0.3991380000000  0.7240160000000 1.0
C      1  0.5355450000000  0.7399460000000  0.4795340000000 1.0
C      1  0.5340580000000  0.3464610000000  0.2963170000000 1.0
C      1  0.4567430000000  0.4678410000000  0.7187910000000 1.0
C      1  0.4564940000000  0.7080590000000  0.4234640000000 1.0
C      1  0.4574710000000  0.3277280000000  0.3614720000000 1.0
C      1  0.5041250000000  0.7081480000000  0.5838640000000 1.0
C      1  0.4985650000000  0.4509750000000  0.2752530000000 1.0
C      1  0.5132220000000  0.3319790000000  0.6334620000000 1.0
C      1  0.5010480000000  0.4106130000000  0.5610580000000 1.0
C      1  0.4941850000000  0.5999420000000  0.5576080000000 1.0
C      1  0.4990010000000  0.5013890000000  0.3768580000000 1.0
C      1  0.6328400000000  0.3416230000000  0.3458900000000 1.0
C      1  0.6345140000000  0.4433230000000  0.7292680000000 1.0
C      1  0.6299400000000  0.6957500000000  0.4405680000000 1.0
C      1  0.5861550000000  0.5616080000000  0.5436550000000 1.0
C      1  0.5998590000000  0.5102730000000  0.3909600000000 1.0
C      1  0.5933690000000  0.4617830000000  0.5558270000000 1.0
C      1  0.6536610000000  0.5496000000000  0.7119020000000 1.0
C      1  0.6457360000000  0.6290170000000  0.3522500000000 1.0
C      1  0.6448230000000  0.3218080000000  0.4565040000000 1.0
C      1  0.4371410000000  0.2559960000000  0.4113330000000 1.0
C      1  0.4353690000000  0.5447860000000  0.7595060000000 1.0
C      1  0.4345860000000  0.7069900000000  0.3365680000000 1.0
C      1  0.4020700000000  0.5467820000000  0.4161260000000 1.0
C      1  0.4050690000000  0.4095900000000  0.5004630000000 1.0
C      1  0.3953510000000  0.5499120000000  0.5816960000000 1.0
C      1  0.4375940000000  0.2616700000000  0.5953720000000 1.0
C      1  0.4288440000000  0.7020430000000  0.6634670000000 1.0
C      1  0.4391510000000  0.5376310000000  0.2472850000000 1.0
C      1  0.5980270000000  0.6429210000000  0.7158270000000 1.0
C      1  0.6047770000000  0.6175960000000  0.2472170000000 1.0
C      1  0.5982910000000  0.2525720000000  0.5269190000000 1.0
C      1  0.4234730000000  0.6292130000000  0.4784410000000 1.0
C      1  0.4269690000000  0.4174410000000  0.3971580000000 1.0
C      1  0.4235870000000  0.4582360000000  0.6231610000000 1.0
C      1  0.3791460000000  0.6623520000000  0.5799150000000 1.0
C      1  0.3798210000000  0.4900270000000  0.3201990000000 1.0
C      1  0.3868800000000  0.3526920000000  0.5972640000000 1.0
C      1  0.3010630000000  0.4411730000000  0.3614870000000 1.0
C      1  0.3016020000000  0.4058450000000  0.6157710000000 1.0
C      1  0.2981610000000  0.6459910000000  0.5192280000000 1.0
C      1  0.6490750000000  0.5298650000000  0.2954450000000 1.0
C      1  0.6246470000000  0.3533580000000  0.5635440000000 1.0
C      1  0.6422980000000  0.6135720000000  0.6187290000000 1.0
END
