TITL C-3036481-494-988 0.00156722576389413 3375 -346.575212432445 0 0 60 (C1) n - 1
REM
REM in /home/bkarasulu/work/CARBON/AIRSS/Generating-Clusters/REBO/Higher-Symm/Only-C60
REM
REM
REM
REM
REM
REM ./C.cell (a2850807a9bf4ad07a5b6933b78d9264)
REM AIRSS Version 0.9.1 bugfix July 2018 build 013d7b7c2542+ Fri, 06 Jul 2018 19:26:36 +0100
REM compiler GCC version 9.2.1 20190827 (Red Hat 9.2.1-1)
REM options -cpp -mtune=generic -march=x86-64 -g -O0 -fpre-include=/usr/include/finclude/math-vector-fortran.h
REM seed 245462391 1712415472 1372444136 230070028 -508311543 1364206234 -109441027 -122911771 1982839375 1488741039 -353975274 -193556662 -1667842764 -1857002309 -1977829145 1687236920 -1167733764 120696064 -458435361 -1269113976 -1189542256 681919649 965193493 -120504486 -1375105290 76478716 -1863558042 2026647151 845223470 -1051398983 -561822388 -1045063192 -2118204682
REM
CELL 1.54180   15.00000   15.00000   15.00000   90.00000   90.00000   90.00000
LATT -1
SFAC C  
C      1  0.6444790000000  0.3743340000000  0.4420320000000 1.0
C      1  0.4437650000000  0.5592640000000  0.5345100000000 1.0
C      1  0.4463690000000  0.6559570000000  0.3189010000000 1.0
C      1  0.6436090000000  0.6381370000000  0.3801250000000 1.0
C      1  0.4544520000000  0.5968480000000  0.4072250000000 1.0
C      1  0.5475300000000  0.3394360000000  0.3275330000000 1.0
C      1  0.5034510000000  0.3145390000000  0.4950020000000 1.0
C      1  0.3221420000000  0.5801840000000  0.6501660000000 1.0
C      1  0.6518350000000  0.6613220000000  0.5510140000000 1.0
C      1  0.6185190000000  0.3378210000000  0.6063260000000 1.0
C      1  0.3990090000000  0.2736360000000  0.4244990000000 1.0
C      1  0.4886460000000  0.2942730000000  0.3870030000000 1.0
C      1  0.4715840000000  0.6014170000000  0.7227550000000 1.0
C      1  0.4731820000000  0.2672710000000  0.6173420000000 1.0
C      1  0.5167210000000  0.5322030000000  0.6142670000000 1.0
C      1  0.6150150000000  0.4685560000000  0.4248320000000 1.0
C      1  0.6382480000000  0.3283580000000  0.3579770000000 1.0
C      1  0.5185100000000  0.5137620000000  0.4306620000000 1.0
C      1  0.5019290000000  0.4396630000000  0.6218130000000 1.0
C      1  0.6559150000000  0.5590620000000  0.5136350000000 1.0
C      1  0.3658550000000  0.5119300000000  0.3498200000000 1.0
C      1  0.2364570000000  0.6062530000000  0.3313170000000 1.0
C      1  0.7000250000000  0.4928980000000  0.5735030000000 1.0
C      1  0.6087500000000  0.5003210000000  0.3078960000000 1.0
C      1  0.3298090000000  0.4128460000000  0.4306470000000 1.0
C      1  0.5225850000000  0.6456400000000  0.2653080000000 1.0
C      1  0.4805620000000  0.7276070000000  0.5893540000000 1.0
C      1  0.6217950000000  0.6942020000000  0.4542850000000 1.0
C      1  0.2710390000000  0.4260640000000  0.5239580000000 1.0
C      1  0.5398990000000  0.3192610000000  0.6630960000000 1.0
C      1  0.5970370000000  0.6017370000000  0.3028510000000 1.0
C      1  0.6874980000000  0.3980640000000  0.6240680000000 1.0
C      1  0.7113070000000  0.4751870000000  0.3334270000000 1.0
C      1  0.3335660000000  0.3325400000000  0.3906220000000 1.0
C      1  0.3873680000000  0.7250110000000  0.5735800000000 1.0
C      1  0.3475340000000  0.4341020000000  0.6058510000000 1.0
C      1  0.3395930000000  0.6932070000000  0.4840800000000 1.0
C      1  0.7173010000000  0.4825130000000  0.6803200000000 1.0
C      1  0.4615760000000  0.3968680000000  0.5479980000000 1.0
C      1  0.6101100000000  0.6630360000000  0.6365000000000 1.0
C      1  0.6494050000000  0.5302180000000  0.7254690000000 1.0
C      1  0.7752620000000  0.4234630000000  0.3079180000000 1.0
C      1  0.4023840000000  0.2782060000000  0.5348150000000 1.0
C      1  0.6010170000000  0.3289850000000  0.5140740000000 1.0
C      1  0.5477740000000  0.5941940000000  0.5019110000000 1.0
C      1  0.5279260000000  0.4328190000000  0.3075140000000 1.0
C      1  0.2457680000000  0.5105400000000  0.4612010000000 1.0
C      1  0.4508840000000  0.4753910000000  0.3534520000000 1.0
C      1  0.2818960000000  0.5440860000000  0.3796050000000 1.0
C      1  0.3588680000000  0.4996350000000  0.6754510000000 1.0
C      1  0.5871250000000  0.5690330000000  0.6656770000000 1.0
C      1  0.3966370000000  0.4640290000000  0.5021660000000 1.0
C      1  0.6895350000000  0.5497490000000  0.4125550000000 1.0
C      1  0.3622580000000  0.6198380000000  0.5653190000000 1.0
C      1  0.3243700000000  0.3341720000000  0.5646150000000 1.0
C      1  0.3866200000000  0.6766360000000  0.4068960000000 1.0
C      1  0.5105250000000  0.6775930000000  0.6712250000000 1.0
C      1  0.5324390000000  0.7039570000000  0.5122780000000 1.0
C      1  0.4433850000000  0.5050260000000  0.7220600000000 1.0
C      1  0.5013460000000  0.4071020000000  0.7197000000000 1.0
END
