TITL C-3036483-1610-773 -3.64622029766519e-06 3375 -345.33939859843 0 0 60 (D3) n - 1
REM
REM in /home/bkarasulu/work/CARBON/AIRSS/Generating-Clusters/REBO/Higher-Symm/Only-C60
REM
REM
REM
REM
REM
REM ./C.cell (a2850807a9bf4ad07a5b6933b78d9264)
REM AIRSS Version 0.9.1 bugfix July 2018 build 013d7b7c2542+ Fri, 06 Jul 2018 19:26:36 +0100
REM compiler GCC version 9.2.1 20190827 (Red Hat 9.2.1-1)
REM options -cpp -mtune=generic -march=x86-64 -g -O0 -fpre-include=/usr/include/finclude/math-vector-fortran.h
REM seed -1767200198 -1325939451 -341524871 999903573 -1914968016 298444837 -1112232978 -1251261990 -1919182835 723356296 -1412140535 -887898162 810965814 500348483 -2121101504 -346292162 22126490 1078525819 -1983075247 1352577783 1552057073 906308109 -143178370 1913911471 1011532955 15920111 -1131501714 973576149 228590269 -1692890794 577601825 -954558135 1630983431
REM
CELL 1.54180   15.00000   15.00000   15.00000   90.00000   90.00000   90.00000
LATT -1
SFAC C  
C      1  0.5057540000000  0.5980910000000  0.2805460000000 1.0
C      1  0.4121790000000  0.4559350000000  0.2805450000000 1.0
C      1  0.5820760000000  0.4459750000000  0.2805470000000 1.0
C      1  0.4942460000000  0.5980910000000  0.7194540000000 1.0
C      1  0.5878210000000  0.4559350000000  0.7194550000000 1.0
C      1  0.4179240000000  0.4459750000000  0.7194530000000 1.0
C      1  0.3982390000000  0.4206890000000  0.4533770000000 1.0
C      1  0.6195670000000  0.4515280000000  0.4533800000000 1.0
C      1  0.4821960000000  0.6277820000000  0.4533780000000 1.0
C      1  0.6017610000000  0.4206890000000  0.5466230000000 1.0
C      1  0.3804330000000  0.4515280000000  0.5466200000000 1.0
C      1  0.5178040000000  0.6277820000000  0.5466220000000 1.0
C      1  0.3575020000000  0.4000120000000  0.6463770000000 1.0
C      1  0.6578380000000  0.4265900000000  0.6463800000000 1.0
C      1  0.4846530000000  0.6733990000000  0.6463780000000 1.0
C      1  0.6424980000000  0.4000120000000  0.3536230000000 1.0
C      1  0.3421620000000  0.4265900000000  0.3536200000000 1.0
C      1  0.5153470000000  0.6733990000000  0.3536220000000 1.0
C      1  0.3854160000000  0.6771590000000  0.4714990000000 1.0
C      1  0.4038680000000  0.3121860000000  0.4714990000000 1.0
C      1  0.7107180000000  0.5106540000000  0.4715030000000 1.0
C      1  0.6145840000000  0.6771590000000  0.5285010000000 1.0
C      1  0.5961320000000  0.3121860000000  0.5285010000000 1.0
C      1  0.2892820000000  0.5106540000000  0.5284970000000 1.0
C      1  0.6405130000000  0.5702200000000  0.6391680000000 1.0
C      1  0.3689280000000  0.5865810000000  0.6391650000000 1.0
C      1  0.4905520000000  0.3432000000000  0.6391670000000 1.0
C      1  0.3594870000000  0.5702200000000  0.3608320000000 1.0
C      1  0.6310720000000  0.5865810000000  0.3608350000000 1.0
C      1  0.5094480000000  0.3432000000000  0.3608330000000 1.0
C      1  0.6086710000000  0.6821410000000  0.4176280000000 1.0
C      1  0.2879280000000  0.5030400000000  0.4176250000000 1.0
C      1  0.6034050000000  0.3148200000000  0.4176290000000 1.0
C      1  0.3913290000000  0.6821410000000  0.5823720000000 1.0
C      1  0.7120720000000  0.5030400000000  0.5823750000000 1.0
C      1  0.3965950000000  0.3148200000000  0.5823710000000 1.0
C      1  0.5745820000000  0.7288010000000  0.6096990000000 1.0
C      1  0.2645590000000  0.4501910000000  0.6096970000000 1.0
C      1  0.6608530000000  0.3210080000000  0.6097020000000 1.0
C      1  0.4254180000000  0.7288010000000  0.3903010000000 1.0
C      1  0.7354410000000  0.4501910000000  0.3903030000000 1.0
C      1  0.3391470000000  0.3210080000000  0.3902980000000 1.0
C      1  0.5634120000000  0.5072470000000  0.5988570000000 1.0
C      1  0.4620150000000  0.5512940000000  0.5988560000000 1.0
C      1  0.4745680000000  0.4414580000000  0.5988560000000 1.0
C      1  0.4365880000000  0.5072470000000  0.4011430000000 1.0
C      1  0.5379850000000  0.5512940000000  0.4011440000000 1.0
C      1  0.5254320000000  0.4414580000000  0.4011440000000 1.0
C      1  0.4990200000000  0.2721630000000  0.5552680000000 1.0
C      1  0.6978010000000  0.6130710000000  0.5552700000000 1.0
C      1  0.3031760000000  0.6147660000000  0.5552660000000 1.0
C      1  0.5009800000000  0.2721630000000  0.4447320000000 1.0
C      1  0.3021990000000  0.6130710000000  0.4447300000000 1.0
C      1  0.6968240000000  0.6147660000000  0.4447340000000 1.0
C      1  0.4222360000000  0.5536420000000  0.2773800000000 1.0
C      1  0.4924310000000  0.4058310000000  0.2773810000000 1.0
C      1  0.5853420000000  0.5405270000000  0.2773820000000 1.0
C      1  0.5777640000000  0.5536420000000  0.7226200000000 1.0
C      1  0.5075690000000  0.4058310000000  0.7226190000000 1.0
C      1  0.4146580000000  0.5405270000000  0.7226180000000 1.0
END
