TITL C-3036480-97-372 0.00364283098366531 3375 -341.035936586452 0 0 60 (C1) n - 1
REM
REM in /home/bkarasulu/work/CARBON/AIRSS/Generating-Clusters/REBO/Higher-Symm/Only-C60
REM
REM
REM
REM
REM
REM ./C.cell (a2850807a9bf4ad07a5b6933b78d9264)
REM AIRSS Version 0.9.1 bugfix July 2018 build 013d7b7c2542+ Fri, 06 Jul 2018 19:26:36 +0100
REM compiler GCC version 9.2.1 20190827 (Red Hat 9.2.1-1)
REM options -cpp -mtune=generic -march=x86-64 -g -O0 -fpre-include=/usr/include/finclude/math-vector-fortran.h
REM seed 106139846 -1939583869 -340580417 -978056092 -1556163254 -1517419219 -629708298 -909874372 -182338389 1693542216 -444741737 1342402517 -308226861 1550076825 -1054325831 117597874 -168029139 -1106263858 1180830110 -397504126 1166450599 -1917628323 -1664353087 350270938 531147253 -10131838 564485808 -239775922 -27879545 163754811 -1575798869 1238788379 -1813203534
REM
CELL 1.54180   15.00000   15.00000   15.00000   90.00000   90.00000   90.00000
LATT -1
SFAC C  
C      1  0.4773840000000  0.4139090000000  0.5960560000000 1.0
C      1  0.3909650000000  0.3317770000000  0.4812890000000 1.0
C      1  0.4862960000000  0.6914900000000  0.5880290000000 1.0
C      1  0.5852250000000  0.7280070000000  0.4482820000000 1.0
C      1  0.6059270000000  0.3619600000000  0.4647120000000 1.0
C      1  0.4783930000000  0.4517930000000  0.3786340000000 1.0
C      1  0.5634750000000  0.3789260000000  0.6364900000000 1.0
C      1  0.4987820000000  0.4857270000000  0.5106680000000 1.0
C      1  0.3348290000000  0.4545360000000  0.2952810000000 1.0
C      1  0.6964040000000  0.3934880000000  0.5057750000000 1.0
C      1  0.4845580000000  0.4275030000000  0.7282810000000 1.0
C      1  0.4096940000000  0.4352390000000  0.4620090000000 1.0
C      1  0.4423800000000  0.3310400000000  0.3360050000000 1.0
C      1  0.6662560000000  0.4231110000000  0.3995980000000 1.0
C      1  0.7057270000000  0.5893040000000  0.6535680000000 1.0
C      1  0.6414930000000  0.6528660000000  0.5961790000000 1.0
C      1  0.4194750000000  0.5788960000000  0.7381570000000 1.0
C      1  0.6289610000000  0.5760500000000  0.3085980000000 1.0
C      1  0.4686940000000  0.5982570000000  0.4458870000000 1.0
C      1  0.2569040000000  0.4244990000000  0.4766920000000 1.0
C      1  0.7345480000000  0.5641400000000  0.4561740000000 1.0
C      1  0.5727670000000  0.2988780000000  0.5875830000000 1.0
C      1  0.5174550000000  0.5345930000000  0.7225730000000 1.0
C      1  0.2893460000000  0.5700020000000  0.4117450000000 1.0
C      1  0.6896880000000  0.4905170000000  0.6854330000000 1.0
C      1  0.3061240000000  0.5714670000000  0.5254190000000 1.0
C      1  0.2177230000000  0.4934590000000  0.4287940000000 1.0
C      1  0.6485860000000  0.6588830000000  0.3840600000000 1.0
C      1  0.5564710000000  0.6863390000000  0.3255580000000 1.0
C      1  0.6517920000000  0.5274310000000  0.4047580000000 1.0
C      1  0.6228070000000  0.4101470000000  0.3044150000000 1.0
C      1  0.3514460000000  0.3960650000000  0.6354560000000 1.0
C      1  0.3061310000000  0.3599090000000  0.4270680000000 1.0
C      1  0.3855910000000  0.5383810000000  0.4587380000000 1.0
C      1  0.3873630000000  0.4267750000000  0.7181700000000 1.0
C      1  0.3542580000000  0.5379070000000  0.3293940000000 1.0
C      1  0.4558350000000  0.5510110000000  0.3466310000000 1.0
C      1  0.4094160000000  0.3268820000000  0.5830290000000 1.0
C      1  0.7247090000000  0.5614500000000  0.5488600000000 1.0
C      1  0.5637460000000  0.5506350000000  0.4622690000000 1.0
C      1  0.6444180000000  0.4856580000000  0.2544370000000 1.0
C      1  0.5947790000000  0.4521880000000  0.7087040000000 1.0
C      1  0.3078690000000  0.4645590000000  0.5619900000000 1.0
C      1  0.4975130000000  0.2757710000000  0.5373460000000 1.0
C      1  0.6188700000000  0.5226370000000  0.5790030000000 1.0
C      1  0.3562090000000  0.5120740000000  0.7526420000000 1.0
C      1  0.4942890000000  0.7452980000000  0.3845180000000 1.0
C      1  0.4830570000000  0.6939550000000  0.4852230000000 1.0
C      1  0.4637910000000  0.2698140000000  0.4288450000000 1.0
C      1  0.3523820000000  0.3715060000000  0.3389810000000 1.0
C      1  0.4395210000000  0.6013500000000  0.6304050000000 1.0
C      1  0.5185480000000  0.3640530000000  0.4390600000000 1.0
C      1  0.4130660000000  0.5017950000000  0.5834270000000 1.0
C      1  0.5301720000000  0.3844600000000  0.3083370000000 1.0
C      1  0.5473340000000  0.5595120000000  0.6220780000000 1.0
C      1  0.6295500000000  0.6366710000000  0.4943570000000 1.0
C      1  0.6919430000000  0.4387860000000  0.5873930000000 1.0
C      1  0.5224890000000  0.5985500000000  0.2880980000000 1.0
C      1  0.3373980000000  0.6316140000000  0.5922160000000 1.0
C      1  0.5691810000000  0.7065020000000  0.6266230000000 1.0
END
