TITL C-3036486-2224-1165 -2.96434012057746e-06 3375 -368.456699318575 0 0 60 (C5) n - 1
REM
REM in /home/bkarasulu/work/CARBON/AIRSS/Generating-Clusters/REBO/Higher-Symm/Only-C60
REM
REM
REM
REM
REM
REM ./C.cell (a2850807a9bf4ad07a5b6933b78d9264)
REM AIRSS Version 0.9.1 bugfix July 2018 build 013d7b7c2542+ Fri, 06 Jul 2018 19:26:36 +0100
REM compiler GCC version 9.2.1 20190827 (Red Hat 9.2.1-1)
REM options -cpp -mtune=generic -march=x86-64 -g -O0 -fpre-include=/usr/include/finclude/math-vector-fortran.h
REM seed -364841458 933678529 937423910 1685314728 -747177068 838408847 -1372479675 328842072 -464381804 -245604952 1161983822 -2065450566 -1270172961 1270451309 -1586987611 265125001 -1805246292 -1361633453 444077788 -1076116125 1063903547 -412952125 1450588654 -881913829 807656213 1478409242 797504951 -1132591991 1046527122 2125599094 -1065200994 -501376429 -201302569
REM
CELL 1.54180   15.00000   15.00000   15.00000   90.00000   90.00000   90.00000
LATT -1
SFAC C  
C      1  0.3507380000000  0.3981010000000  0.3661900000000 1.0
C      1  0.3507930000000  0.3412190000000  0.5556190000000 1.0
C      1  0.3508560000000  0.5037990000000  0.6682540000000 1.0
C      1  0.3508390000000  0.6611620000000  0.5484370000000 1.0
C      1  0.3507670000000  0.5958360000000  0.3617510000000 1.0
C      1  0.3921660000000  0.4220390000000  0.7019630000000 1.0
C      1  0.3921810000000  0.6679640000000  0.6365970000000 1.0
C      1  0.3920980000000  0.6817920000000  0.3825090000000 1.0
C      1  0.3920300000000  0.4444130000000  0.2908400000000 1.0
C      1  0.3920720000000  0.2838770000000  0.4882730000000 1.0
C      1  0.5705550000000  0.7045810000000  0.4068280000000 1.0
C      1  0.5704750000000  0.4746220000000  0.2766130000000 1.0
C      1  0.5705060000000  0.2797190000000  0.4550780000000 1.0
C      1  0.5706030000000  0.3892210000000  0.6955920000000 1.0
C      1  0.5706340000000  0.6518010000000  0.6657710000000 1.0
C      1  0.6274090000000  0.4865970000000  0.7119730000000 1.0
C      1  0.6273960000000  0.6974840000000  0.5782010000000 1.0
C      1  0.6273040000000  0.6354260000000  0.3362990000000 1.0
C      1  0.6272610000000  0.3861870000000  0.3205680000000 1.0
C      1  0.6273260000000  0.2942060000000  0.5527460000000 1.0
C      1  0.5322280000000  0.7351320000000  0.5704810000000 1.0
C      1  0.5321210000000  0.6396990000000  0.2981430000000 1.0
C      1  0.5320790000000  0.3511980000000  0.3047490000000 1.0
C      1  0.5321600000000  0.2683300000000  0.5811710000000 1.0
C      1  0.5322510000000  0.5056150000000  0.7454010000000 1.0
C      1  0.5152120000000  0.5268720000000  0.5766790000000 1.0
C      1  0.5151930000000  0.5812330000000  0.4981330000000 1.0
C      1  0.5151590000000  0.5233300000000  0.4221590000000 1.0
C      1  0.5151570000000  0.4331820000000  0.4537520000000 1.0
C      1  0.5151890000000  0.4353710000000  0.5492500000000 1.0
C      1  0.4761180000000  0.7151020000000  0.6493190000000 1.0
C      1  0.4760130000000  0.7084760000000  0.3415770000000 1.0
C      1  0.4759380000000  0.4137480000000  0.2527810000000 1.0
C      1  0.4759960000000  0.2382230000000  0.5056450000000 1.0
C      1  0.4761080000000  0.4244700000000  0.7507190000000 1.0
C      1  0.5017440000000  0.3570900000000  0.6173250000000 1.0
C      1  0.5017940000000  0.5674210000000  0.6721690000000 1.0
C      1  0.5017500000000  0.6845780000000  0.4890810000000 1.0
C      1  0.5016720000000  0.5466540000000  0.3210810000000 1.0
C      1  0.5016680000000  0.3442550000000  0.4003400000000 1.0
C      1  0.6838850000000  0.5682390000000  0.4365680000000 1.0
C      1  0.6838610000000  0.4607980000000  0.4154300000000 1.0
C      1  0.6838850000000  0.4074940000000  0.5110800000000 1.0
C      1  0.6839230000000  0.4819900000000  0.5913330000000 1.0
C      1  0.6839230000000  0.5813360000000  0.5452820000000 1.0
C      1  0.3033640000000  0.4200260000000  0.5257570000000 1.0
C      1  0.3033950000000  0.4997410000000  0.5840940000000 1.0
C      1  0.3033880000000  0.5798560000000  0.5263080000000 1.0
C      1  0.3033520000000  0.5496550000000  0.4322570000000 1.0
C      1  0.3033370000000  0.4508750000000  0.4319160000000 1.0
C      1  0.6454750000000  0.5286940000000  0.3374310000000 1.0
C      1  0.6454770000000  0.3542850000000  0.4224180000000 1.0
C      1  0.6455460000000  0.3812180000000  0.6145540000000 1.0
C      1  0.6455870000000  0.5722720000000  0.6483120000000 1.0
C      1  0.6455430000000  0.6634180000000  0.4770410000000 1.0
C      1  0.4012400000000  0.5383100000000  0.3058580000000 1.0
C      1  0.4012410000000  0.3271780000000  0.4036100000000 1.0
C      1  0.4013230000000  0.3549010000000  0.6346150000000 1.0
C      1  0.4013730000000  0.5831670000000  0.6796330000000 1.0
C      1  0.4013220000000  0.6965210000000  0.4764500000000 1.0
END
