TITL C-3036480-97-22 0.006408777520399 3375 -344.256094467621 0 0 60 (C1) n - 1
REM
REM in /home/bkarasulu/work/CARBON/AIRSS/Generating-Clusters/REBO/Higher-Symm/Only-C60
REM
REM
REM
REM
REM
REM ./C.cell (a2850807a9bf4ad07a5b6933b78d9264)
REM AIRSS Version 0.9.1 bugfix July 2018 build 013d7b7c2542+ Fri, 06 Jul 2018 19:26:36 +0100
REM compiler GCC version 9.2.1 20190827 (Red Hat 9.2.1-1)
REM options -cpp -mtune=generic -march=x86-64 -g -O0 -fpre-include=/usr/include/finclude/math-vector-fortran.h
REM seed 1366821015 -929042681 1172567067 908972228 -980778879 745191385 1297143270 1748786875 -1139128596 949488189 544003768 1921796978 -1129883512 1001834344 -831633448 -1981726880 1820285971 -2086822941 481198855 1342077144 1954750627 -1983355712 -1147801051 -173561703 -1575760005 -1850983437 1230005854 -311421317 -1077290877 751163392 -903474338 -672843550 -1130963071
REM
CELL 1.54180   15.00000   15.00000   15.00000   90.00000   90.00000   90.00000
LATT -1
SFAC C  
C      1  0.6189890000000  0.4020520000000  0.4332020000000 1.0
C      1  0.7109350000000  0.4827580000000  0.4861820000000 1.0
C      1  0.2923710000000  0.4826220000000  0.6994320000000 1.0
C      1  0.4725700000000  0.4486000000000  0.7142250000000 1.0
C      1  0.5786590000000  0.7381450000000  0.4445210000000 1.0
C      1  0.6392620000000  0.5950110000000  0.3749950000000 1.0
C      1  0.2823060000000  0.4309090000000  0.4504470000000 1.0
C      1  0.5593170000000  0.6969680000000  0.6675930000000 1.0
C      1  0.2520150000000  0.5680360000000  0.5490880000000 1.0
C      1  0.5406490000000  0.4564320000000  0.4730370000000 1.0
C      1  0.7570610000000  0.5665010000000  0.5379600000000 1.0
C      1  0.4719710000000  0.2509120000000  0.3364610000000 1.0
C      1  0.6234460000000  0.2953040000000  0.4411870000000 1.0
C      1  0.6761130000000  0.3825980000000  0.5267670000000 1.0
C      1  0.6438720000000  0.6689340000000  0.4340620000000 1.0
C      1  0.4756420000000  0.4211330000000  0.2828680000000 1.0
C      1  0.4636300000000  0.3286030000000  0.2842160000000 1.0
C      1  0.6464680000000  0.6620210000000  0.6334250000000 1.0
C      1  0.4050570000000  0.5562940000000  0.4881210000000 1.0
C      1  0.6081270000000  0.5008230000000  0.6639500000000 1.0
C      1  0.4509730000000  0.6415140000000  0.4410020000000 1.0
C      1  0.4867550000000  0.3913130000000  0.5453980000000 1.0
C      1  0.5561450000000  0.2354120000000  0.3794550000000 1.0
C      1  0.3211730000000  0.4433310000000  0.6169290000000 1.0
C      1  0.3781120000000  0.6199350000000  0.6594360000000 1.0
C      1  0.6385420000000  0.4367460000000  0.3381180000000 1.0
C      1  0.2745150000000  0.4753330000000  0.5381440000000 1.0
C      1  0.4276420000000  0.4336530000000  0.6140480000000 1.0
C      1  0.3204160000000  0.6212740000000  0.4495270000000 1.0
C      1  0.4351050000000  0.6909890000000  0.5636490000000 1.0
C      1  0.2980100000000  0.4882210000000  0.3714090000000 1.0
C      1  0.4436900000000  0.5787380000000  0.2967400000000 1.0
C      1  0.4148390000000  0.5416840000000  0.5861030000000 1.0
C      1  0.4110260000000  0.6513540000000  0.3462640000000 1.0
C      1  0.6844840000000  0.5097080000000  0.3902210000000 1.0
C      1  0.6806460000000  0.5778270000000  0.6724290000000 1.0
C      1  0.5444420000000  0.5626620000000  0.3265460000000 1.0
C      1  0.4053720000000  0.2206240000000  0.3994700000000 1.0
C      1  0.5195250000000  0.6223800000000  0.5957870000000 1.0
C      1  0.5735970000000  0.3324700000000  0.5374210000000 1.0
C      1  0.3392250000000  0.3525600000000  0.4546680000000 1.0
C      1  0.4191210000000  0.4768200000000  0.4251580000000 1.0
C      1  0.6385610000000  0.4069070000000  0.6892680000000 1.0
C      1  0.5284990000000  0.5587150000000  0.4388570000000 1.0
C      1  0.5802560000000  0.5932780000000  0.5230070000000 1.0
C      1  0.4951920000000  0.7264390000000  0.4782440000000 1.0
C      1  0.3988700000000  0.4836580000000  0.3199090000000 1.0
C      1  0.6756610000000  0.3598650000000  0.6303770000000 1.0
C      1  0.3174410000000  0.5675790000000  0.7244650000000 1.0
C      1  0.3347160000000  0.6450990000000  0.5575840000000 1.0
C      1  0.7642360000000  0.5542700000000  0.6307350000000 1.0
C      1  0.6831780000000  0.6418930000000  0.5280760000000 1.0
C      1  0.5445140000000  0.2321000000000  0.4932910000000 1.0
C      1  0.4408090000000  0.2069460000000  0.4846390000000 1.0
C      1  0.2729490000000  0.5794040000000  0.3851540000000 1.0
C      1  0.6375040000000  0.5155530000000  0.5617800000000 1.0
C      1  0.5052290000000  0.5326560000000  0.6565650000000 1.0
C      1  0.4278570000000  0.3876150000000  0.4600050000000 1.0
C      1  0.5595700000000  0.4653910000000  0.2929080000000 1.0
C      1  0.4531420000000  0.7034290000000  0.6754710000000 1.0
END
