TITL C-3036485-3770-472 -1.22936675186777e-06 3375 -404.523739150879 0 0 60 (D6h) n - 1
REM
REM in /home/bkarasulu/work/CARBON/AIRSS/Generating-Clusters/REBO/Higher-Symm/Only-C60
REM
REM
REM
REM
REM
REM ./C.cell (a2850807a9bf4ad07a5b6933b78d9264)
REM AIRSS Version 0.9.1 bugfix July 2018 build 013d7b7c2542+ Fri, 06 Jul 2018 19:26:36 +0100
REM compiler GCC version 9.2.1 20190827 (Red Hat 9.2.1-1)
REM options -cpp -mtune=generic -march=x86-64 -g -O0 -fpre-include=/usr/include/finclude/math-vector-fortran.h
REM seed -2032386967 -143026588 -1955863661 1676043359 -164841613 -1863452179 755629398 1334890986 1941727593 1580865241 -1558531131 1135714304 2068718553 -403391304 -872117388 1612800311 -206704250 297964682 -469968809 1343393537 1509247534 -1876121710 137761907 478967731 1287030246 402697141 -301800678 -1363173085 1688623135 -419398990 -1323247790 1762303044 -1347514032
REM
CELL 1.54180   15.00000   15.00000   15.00000   90.00000   90.00000   90.00000
LATT -1
SFAC C  
C      1  0.5851320000000  0.3586810000000  0.4065970000000 1.0
C      1  0.6649620000000  0.5030740000000  0.4066160000000 1.0
C      1  0.5798290000000  0.6444050000000  0.4066350000000 1.0
C      1  0.4148660000000  0.6413440000000  0.4066360000000 1.0
C      1  0.3350360000000  0.4969510000000  0.4066180000000 1.0
C      1  0.4201690000000  0.3556190000000  0.4065980000000 1.0
C      1  0.5851340000000  0.3586560000000  0.5933640000000 1.0
C      1  0.6649640000000  0.5030490000000  0.5933820000000 1.0
C      1  0.5798310000000  0.6443810000000  0.5934010000000 1.0
C      1  0.4148680000000  0.6413190000000  0.5934020000000 1.0
C      1  0.3350380000000  0.4969260000000  0.5933840000000 1.0
C      1  0.4201710000000  0.3555940000000  0.5933650000000 1.0
C      1  0.4158750000000  0.4493690000000  0.1822010000000 1.0
C      1  0.5018200000000  0.4018530000000  0.1821940000000 1.0
C      1  0.5859430000000  0.4525260000000  0.1822000000000 1.0
C      1  0.5841200000000  0.5507150000000  0.1822130000000 1.0
C      1  0.4981750000000  0.5982310000000  0.1822200000000 1.0
C      1  0.4140520000000  0.5475580000000  0.1822140000000 1.0
C      1  0.4158800000000  0.4492850000000  0.8177870000000 1.0
C      1  0.5018250000000  0.4017690000000  0.8177800000000 1.0
C      1  0.5859480000000  0.4524420000000  0.8177860000000 1.0
C      1  0.5841260000000  0.5506310000000  0.8177990000000 1.0
C      1  0.4981800000000  0.5981470000000  0.8178060000000 1.0
C      1  0.4140570000000  0.5474740000000  0.8178000000000 1.0
C      1  0.6675280000000  0.5031340000000  0.3112600000000 1.0
C      1  0.5810700000000  0.6466650000000  0.3112800000000 1.0
C      1  0.4135410000000  0.6435550000000  0.3112810000000 1.0
C      1  0.3324690000000  0.4969160000000  0.3112620000000 1.0
C      1  0.4189260000000  0.3533850000000  0.3112420000000 1.0
C      1  0.5864560000000  0.3564950000000  0.3112410000000 1.0
C      1  0.6675310000000  0.5030840000000  0.6887380000000 1.0
C      1  0.5810740000000  0.6466150000000  0.6887580000000 1.0
C      1  0.4135440000000  0.6435050000000  0.6887590000000 1.0
C      1  0.3324720000000  0.4968660000000  0.6887400000000 1.0
C      1  0.4189300000000  0.3533350000000  0.6887200000000 1.0
C      1  0.5864590000000  0.3564450000000  0.6887190000000 1.0
C      1  0.6401960000000  0.5844560000000  0.4522990000000 1.0
C      1  0.4969620000000  0.6636450000000  0.4523110000000 1.0
C      1  0.3567660000000  0.5791960000000  0.4523010000000 1.0
C      1  0.3598030000000  0.4155560000000  0.4522790000000 1.0
C      1  0.5030370000000  0.3363670000000  0.4522680000000 1.0
C      1  0.6432340000000  0.4208170000000  0.4522780000000 1.0
C      1  0.6401970000000  0.5844430000000  0.5477210000000 1.0
C      1  0.4969630000000  0.6636330000000  0.5477320000000 1.0
C      1  0.3567660000000  0.5791830000000  0.5477220000000 1.0
C      1  0.3598040000000  0.4155440000000  0.5477010000000 1.0
C      1  0.5030370000000  0.3363540000000  0.5476890000000 1.0
C      1  0.6432340000000  0.4208040000000  0.5476990000000 1.0
C      1  0.4970700000000  0.6579260000000  0.7372130000000 1.0
C      1  0.3617410000000  0.5764080000000  0.7372030000000 1.0
C      1  0.3646730000000  0.4184510000000  0.7371820000000 1.0
C      1  0.5029340000000  0.3420110000000  0.7371710000000 1.0
C      1  0.6382630000000  0.4235290000000  0.7371800000000 1.0
C      1  0.6353310000000  0.5814860000000  0.7372010000000 1.0
C      1  0.4970660000000  0.6579890000000  0.2628290000000 1.0
C      1  0.3617370000000  0.5764710000000  0.2628200000000 1.0
C      1  0.3646690000000  0.4185140000000  0.2627990000000 1.0
C      1  0.5029300000000  0.3420740000000  0.2627870000000 1.0
C      1  0.6382590000000  0.4235920000000  0.2627970000000 1.0
C      1  0.6353270000000  0.5815490000000  0.2628180000000 1.0
END
