TITL C-3036480-97-808 2.10164134218783e-06 3375 -339.633428783868 0 0 60 (C3i) n - 1
REM
REM in /home/bkarasulu/work/CARBON/AIRSS/Generating-Clusters/REBO/Higher-Symm/Only-C60
REM
REM
REM
REM
REM
REM ./C.cell (a2850807a9bf4ad07a5b6933b78d9264)
REM AIRSS Version 0.9.1 bugfix July 2018 build 013d7b7c2542+ Fri, 06 Jul 2018 19:26:36 +0100
REM compiler GCC version 9.2.1 20190827 (Red Hat 9.2.1-1)
REM options -cpp -mtune=generic -march=x86-64 -g -O0 -fpre-include=/usr/include/finclude/math-vector-fortran.h
REM seed -2146735319 -1666966414 1944048714 1999382953 1891886525 589075399 -569366664 1005658226 -399655305 -521946490 397212761 1093638801 -1175311100 -1974923306 680599507 1806108775 -1399164513 1072047151 -1786637672 -1830332436 1047995700 -190948200 1529082963 1466373436 455057399 -1485054986 1342531178 -936489967 -29560235 179069109 -1433390368 1563877457 -1679917491
REM
CELL 1.54180   15.00000   15.00000   15.00000   90.00000   90.00000   90.00000
LATT -1
SFAC C  
C      1  0.2548250000000  0.4476660000000  0.4357590000000 1.0
C      1  0.4549470000000  0.2542000000000  0.4514250000000 1.0
C      1  0.4558290000000  0.4498520000000  0.2535470000000 1.0
C      1  0.7464620000000  0.5441070000000  0.4498460000000 1.0
C      1  0.7457990000000  0.4513690000000  0.5450020000000 1.0
C      1  0.2457570000000  0.5566920000000  0.5690400000000 1.0
C      1  0.5642940000000  0.7451490000000  0.4476110000000 1.0
C      1  0.5501010000000  0.2535380000000  0.5441640000000 1.0
C      1  0.4310130000000  0.7542700000000  0.5566330000000 1.0
C      1  0.5485890000000  0.5449860000000  0.2541880000000 1.0
C      1  0.5523720000000  0.4357510000000  0.7451660000000 1.0
C      1  0.4433780000000  0.5690570000000  0.7542550000000 1.0
C      1  0.2535380000000  0.4558930000000  0.5501540000000 1.0
C      1  0.4357060000000  0.2548510000000  0.5523890000000 1.0
C      1  0.4514110000000  0.4550140000000  0.7458120000000 1.0
C      1  0.7451750000000  0.5523340000000  0.5642410000000 1.0
C      1  0.7542430000000  0.4433080000000  0.4309600000000 1.0
C      1  0.2542010000000  0.5486310000000  0.4549980000000 1.0
C      1  0.5450530000000  0.7458000000000  0.5485750000000 1.0
C      1  0.5689870000000  0.2457300000000  0.4433670000000 1.0
C      1  0.4498990000000  0.7464620000000  0.4558360000000 1.0
C      1  0.5441710000000  0.5501480000000  0.7464530000000 1.0
C      1  0.5566220000000  0.4309430000000  0.2457450000000 1.0
C      1  0.4476280000000  0.5642490000000  0.2548340000000 1.0
C      1  0.4062390000000  0.3098820000000  0.3687840000000 1.0
C      1  0.3766690000000  0.3973210000000  0.3106460000000 1.0
C      1  0.3165230000000  0.3657430000000  0.3955260000000 1.0
C      1  0.6045150000000  0.6834240000000  0.3657010000000 1.0
C      1  0.6026620000000  0.3106260000000  0.6233120000000 1.0
C      1  0.3860850000000  0.7009630000000  0.6416220000000 1.0
C      1  0.6312390000000  0.5936900000000  0.3098620000000 1.0
C      1  0.6342730000000  0.3954980000000  0.6834510000000 1.0
C      1  0.3584000000000  0.6139910000000  0.7009350000000 1.0
C      1  0.6893810000000  0.6232660000000  0.3972950000000 1.0
C      1  0.6901080000000  0.3687420000000  0.5937230000000 1.0
C      1  0.2990940000000  0.6416690000000  0.6139560000000 1.0
C      1  0.3954850000000  0.3165760000000  0.6342990000000 1.0
C      1  0.3687610000000  0.4063100000000  0.6901380000000 1.0
C      1  0.3106190000000  0.3767340000000  0.6027050000000 1.0
C      1  0.5937610000000  0.6901180000000  0.6312160000000 1.0
C      1  0.6139150000000  0.2990370000000  0.3583780000000 1.0
C      1  0.3973380000000  0.6893740000000  0.3766880000000 1.0
C      1  0.6233310000000  0.6026790000000  0.6893540000000 1.0
C      1  0.6416000000000  0.3860090000000  0.2990650000000 1.0
C      1  0.3657270000000  0.6045020000000  0.3165490000000 1.0
C      1  0.6834770000000  0.6342570000000  0.6044740000000 1.0
C      1  0.7009060000000  0.3583310000000  0.3860440000000 1.0
C      1  0.3098920000000  0.6312580000000  0.4062770000000 1.0
C      1  0.3572560000000  0.5007690000000  0.2810960000000 1.0
C      1  0.2810680000000  0.3573020000000  0.4992610000000 1.0
C      1  0.5074080000000  0.2720310000000  0.3514940000000 1.0
C      1  0.6485080000000  0.4925090000000  0.2720350000000 1.0
C      1  0.6427450000000  0.4992320000000  0.7189040000000 1.0
C      1  0.3514920000000  0.5074910000000  0.7279650000000 1.0
C      1  0.7189320000000  0.6426980000000  0.5007390000000 1.0
C      1  0.7279320000000  0.3514420000000  0.4925460000000 1.0
C      1  0.2720680000000  0.6485580000000  0.5074540000000 1.0
C      1  0.5007880000000  0.7189000000000  0.3572520000000 1.0
C      1  0.4992120000000  0.2811000000000  0.6427480000000 1.0
C      1  0.4925920000000  0.7279680000000  0.6485060000000 1.0
END
