TITL C-3036485-3770-44 1.00025857480787e-05 3375 -350.300101614799 0 0 60 (C5) n - 1
REM
REM in /home/bkarasulu/work/CARBON/AIRSS/Generating-Clusters/REBO/Higher-Symm/Only-C60
REM
REM
REM
REM
REM
REM ./C.cell (a2850807a9bf4ad07a5b6933b78d9264)
REM AIRSS Version 0.9.1 bugfix July 2018 build 013d7b7c2542+ Fri, 06 Jul 2018 19:26:36 +0100
REM compiler GCC version 9.2.1 20190827 (Red Hat 9.2.1-1)
REM options -cpp -mtune=generic -march=x86-64 -g -O0 -fpre-include=/usr/include/finclude/math-vector-fortran.h
REM seed 1302477686 -475990087 -803728735 2009440260 424036468 986855983 1767423269 -1350108060 -765411051 -2058577146 1485052811 -1872334725 1651078424 -963820065 -1875325856 -2133144725 -1663620172 1681520640 -414909297 1147449150 2103968190 1798081411 -1312411764 -874931604 1771019373 -298899276 -1536817839 -235564681 2068428458 124163289 172799112 1906292676 -797594573
REM
CELL 1.54180   15.00000   15.00000   15.00000   90.00000   90.00000   90.00000
LATT -1
SFAC C  
C      1  0.6014580000000  0.4210600000000  0.4578510000000 1.0
C      1  0.6014560000000  0.5156920000000  0.4118970000000 1.0
C      1  0.6014560000000  0.5886390000000  0.4876970000000 1.0
C      1  0.6014580000000  0.5390920000000  0.5804970000000 1.0
C      1  0.6014590000000  0.4355220000000  0.5620510000000 1.0
C      1  0.4619740000000  0.5898360000000  0.2573380000000 1.0
C      1  0.4619750000000  0.7585460000000  0.5104530000000 1.0
C      1  0.4619810000000  0.5699540000000  0.7491230000000 1.0
C      1  0.4619820000000  0.2846870000000  0.6435140000000 1.0
C      1  0.4619780000000  0.2969750000000  0.3395740000000 1.0
C      1  0.2584510000000  0.4200920000000  0.5496230000000 1.0
C      1  0.2584490000000  0.4281140000000  0.4393430000000 1.0
C      1  0.2584480000000  0.5354760000000  0.4128930000000 1.0
C      1  0.2584480000000  0.5938080000000  0.5068270000000 1.0
C      1  0.2584500000000  0.5224970000000  0.5913310000000 1.0
C      1  0.4940000000000  0.5928020000000  0.5252200000000 1.0
C      1  0.4940020000000  0.5046910000000  0.5960540000000 1.0
C      1  0.4940030000000  0.4100970000000  0.5341440000000 1.0
C      1  0.4940010000000  0.4397450000000  0.4250480000000 1.0
C      1  0.4939990000000  0.5526630000000  0.4195330000000 1.0
C      1  0.5405300000000  0.7142540000000  0.3694740000000 1.0
C      1  0.5405340000000  0.6903450000000  0.6634330000000 1.0
C      1  0.5405380000000  0.4033860000000  0.7315320000000 1.0
C      1  0.5405370000000  0.2499450000000  0.4796610000000 1.0
C      1  0.5405310000000  0.4420720000000  0.2558970000000 1.0
C      1  0.4550120000000  0.2564690000000  0.4249510000000 1.0
C      1  0.4550070000000  0.4961200000000  0.2451980000000 1.0
C      1  0.4550060000000  0.7411320000000  0.4175730000000 1.0
C      1  0.4550110000000  0.6529070000000  0.7038600000000 1.0
C      1  0.4550150000000  0.3533680000000  0.7084200000000 1.0
C      1  0.4709450000000  0.6788150000000  0.5745790000000 1.0
C      1  0.4709480000000  0.4843280000000  0.6931100000000 1.0
C      1  0.4709480000000  0.3114990000000  0.5447700000000 1.0
C      1  0.4709450000000  0.3991710000000  0.3345600000000 1.0
C      1  0.4709420000000  0.6261850000000  0.3529830000000 1.0
C      1  0.3057930000000  0.6352050000000  0.4160240000000 1.0
C      1  0.3057960000000  0.6216470000000  0.6026410000000 1.0
C      1  0.3057990000000  0.4399740000000  0.6474150000000 1.0
C      1  0.3057980000000  0.3412520000000  0.4884700000000 1.0
C      1  0.3057950000000  0.4619110000000  0.3454630000000 1.0
C      1  0.3805710000000  0.2901100000000  0.4848630000000 1.0
C      1  0.3805670000000  0.4495380000000  0.2957080000000 1.0
C      1  0.3805650000000  0.6787000000000  0.3888800000000 1.0
C      1  0.3805690000000  0.6609030000000  0.6356190000000 1.0
C      1  0.3805730000000  0.4207420000000  0.6949390000000 1.0
C      1  0.7268030000000  0.5897110000000  0.5324650000000 1.0
C      1  0.7268050000000  0.4968450000000  0.5953480000000 1.0
C      1  0.7268050000000  0.4083430000000  0.5264590000000 1.0
C      1  0.7268030000000  0.4465110000000  0.4210010000000 1.0
C      1  0.7268020000000  0.5586030000000  0.4247120000000 1.0
C      1  0.6767150000000  0.3472210000000  0.4449160000000 1.0
C      1  0.6767120000000  0.5051760000000  0.3376730000000 1.0
C      1  0.6767120000000  0.6559810000000  0.4547570000000 1.0
C      1  0.6767150000000  0.5912280000000  0.6343620000000 1.0
C      1  0.6767170000000  0.4004040000000  0.6282800000000 1.0
C      1  0.6277440000000  0.2589430000000  0.4593350000000 1.0
C      1  0.6277390000000  0.4641830000000  0.2581720000000 1.0
C      1  0.6277380000000  0.7189230000000  0.3912040000000 1.0
C      1  0.6277420000000  0.6711210000000  0.6745860000000 1.0
C      1  0.6277460000000  0.3868370000000  0.7166930000000 1.0
END
