TITL C-3036479-9801-602 0.0172833307000401 3375 -333.034444527508 0 0 60 (C1) n - 1
REM
REM in /home/bkarasulu/work/CARBON/AIRSS/Generating-Clusters/REBO/Higher-Symm/Only-C60
REM
REM
REM
REM
REM
REM ./C.cell (a2850807a9bf4ad07a5b6933b78d9264)
REM AIRSS Version 0.9.1 bugfix July 2018 build 013d7b7c2542+ Fri, 06 Jul 2018 19:26:36 +0100
REM compiler GCC version 9.2.1 20190827 (Red Hat 9.2.1-1)
REM options -cpp -mtune=generic -march=x86-64 -g -O0 -fpre-include=/usr/include/finclude/math-vector-fortran.h
REM seed 102005223 2009004232 18846404 885252196 -320918796 339240398 813201740 664291619 -399448333 1144607585 1407799477 -1752933119 -570910711 -1295626750 -1204871577 -1491392961 -2036394488 -812011748 -1065414380 1577554568 907783098 -1980408590 2028022545 480846605 -1824312871 -418127383 359013899 -1302693188 1762155768 -1390476868 -1371143318 -1730466523 -100224210
REM
CELL 1.54180   15.00000   15.00000   15.00000   90.00000   90.00000   90.00000
LATT -1
SFAC C  
C      1  0.5109820000000  0.3025160000000  0.2900430000000 1.0
C      1  0.5734400000000  0.6207780000000  0.3044150000000 1.0
C      1  0.5443410000000  0.8163660000000  0.5158930000000 1.0
C      1  0.5892400000000  0.5885360000000  0.8039930000000 1.0
C      1  0.5926000000000  0.3098190000000  0.6287830000000 1.0
C      1  0.5251310000000  0.3891630000000  0.5842160000000 1.0
C      1  0.5070730000000  0.3704490000000  0.3783520000000 1.0
C      1  0.5516960000000  0.5488070000000  0.3880260000000 1.0
C      1  0.4689440000000  0.7340430000000  0.5221540000000 1.0
C      1  0.5446050000000  0.5517410000000  0.6216050000000 1.0
C      1  0.3988840000000  0.5795750000000  0.6192480000000 1.0
C      1  0.3903370000000  0.4123260000000  0.5944310000000 1.0
C      1  0.3660290000000  0.3753340000000  0.4350090000000 1.0
C      1  0.3762680000000  0.5444910000000  0.3869520000000 1.0
C      1  0.3301970000000  0.7270520000000  0.5149870000000 1.0
C      1  0.6061710000000  0.7381310000000  0.5702060000000 1.0
C      1  0.5579540000000  0.4926440000000  0.8345690000000 1.0
C      1  0.5633040000000  0.2248860000000  0.5618460000000 1.0
C      1  0.4772870000000  0.3712540000000  0.2091090000000 1.0
C      1  0.5269270000000  0.7150500000000  0.3464200000000 1.0
C      1  0.4548100000000  0.8219930000000  0.4484200000000 1.0
C      1  0.5615470000000  0.6142930000000  0.7173910000000 1.0
C      1  0.5321730000000  0.3691990000000  0.6961840000000 1.0
C      1  0.4797980000000  0.2639750000000  0.3879960000000 1.0
C      1  0.5107910000000  0.5338310000000  0.2833240000000 1.0
C      1  0.5755310000000  0.6611330000000  0.6149620000000 1.0
C      1  0.5046890000000  0.4514380000000  0.7664360000000 1.0
C      1  0.4877000000000  0.2401840000000  0.5132760000000 1.0
C      1  0.4547430000000  0.4549280000000  0.2311930000000 1.0
C      1  0.4635060000000  0.6925490000000  0.4187730000000 1.0
C      1  0.6500410000000  0.2123900000000  0.6198100000000 1.0
C      1  0.5144380000000  0.2772370000000  0.1798900000000 1.0
C      1  0.6040650000000  0.7255510000000  0.2739760000000 1.0
C      1  0.6541530000000  0.8281730000000  0.5396270000000 1.0
C      1  0.6180560000000  0.5522200000000  0.9015220000000 1.0
C      1  0.3990360000000  0.6875510000000  0.5872920000000 1.0
C      1  0.4633210000000  0.5273920000000  0.6937300000000 1.0
C      1  0.4384950000000  0.3377230000000  0.5399710000000 1.0
C      1  0.4434040000000  0.4247240000000  0.4198460000000 1.0
C      1  0.4609750000000  0.5945110000000  0.4257680000000 1.0
C      1  0.4010820000000  0.5158470000000  0.3010750000000 1.0
C      1  0.3705050000000  0.7544620000000  0.4358370000000 1.0
C      1  0.4720620000000  0.6557830000000  0.6612900000000 1.0
C      1  0.4325480000000  0.4219170000000  0.6837390000000 1.0
C      1  0.3941050000000  0.2722470000000  0.4580210000000 1.0
C      1  0.4591360000000  0.5023850000000  0.4820680000000 1.0
C      1  0.5409880000000  0.4838720000000  0.5476670000000 1.0
C      1  0.3767060000000  0.5070480000000  0.5506090000000 1.0
C      1  0.0029362800000  0.4514420000000  0.3691070000000 1.0
C      1  0.9505340000000  0.4361680000000  0.4472330000000 1.0
C      1  0.0040692300000  0.4248320000000  0.5252600000000 1.0
C      1  0.5990690000000  0.4996720000000  0.4600000000000 1.0
C      1  0.0956161000000  0.4355000000000  0.5264050000000 1.0
C      1  0.6839970000000  0.4740430000000  0.4553370000000 1.0
C      1  0.7703370000000  0.4540430000000  0.4514910000000 1.0
C      1  0.8580300000000  0.4408970000000  0.4487000000000 1.0
C      1  0.2364930000000  0.4827450000000  0.4531090000000 1.0
C      1  0.3232850000000  0.5130520000000  0.4577870000000 1.0
C      1  0.1470980000000  0.4587420000000  0.4496460000000 1.0
C      1  0.0944833000000  0.4621110000000  0.3702570000000 1.0
END
