TITL C-3036483-1610-658 0.000319375314439579 3375 -349.780674050073 0 0 60 (C2h) n - 1
REM
REM in /home/bkarasulu/work/CARBON/AIRSS/Generating-Clusters/REBO/Higher-Symm/Only-C60
REM
REM
REM
REM
REM
REM ./C.cell (a2850807a9bf4ad07a5b6933b78d9264)
REM AIRSS Version 0.9.1 bugfix July 2018 build 013d7b7c2542+ Fri, 06 Jul 2018 19:26:36 +0100
REM compiler GCC version 9.2.1 20190827 (Red Hat 9.2.1-1)
REM options -cpp -mtune=generic -march=x86-64 -g -O0 -fpre-include=/usr/include/finclude/math-vector-fortran.h
REM seed -229510501 -1880311754 1535131632 510440922 -1256730914 -1772278751 -1051967949 1004720099 -1745474956 114957235 600252409 1568082688 -798104329 -2038862343 -908404503 -1200491540 -1393248162 -1744739897 -2012418878 -2105140851 -1577399492 -823355699 -2079948972 21904537 638146186 6555016 -764976200 -802077361 880941303 -726688092 -1822085618 -260919635 1885496326
REM
CELL 1.54180   15.00000   15.00000   15.00000   90.00000   90.00000   90.00000
LATT -1
SFAC C  
C      1  0.6088800000000  0.5186140000000  0.7174200000000 1.0
C      1  0.5341700000000  0.6019220000000  0.7106600000000 1.0
C      1  0.4260790000000  0.5781380000000  0.7106230000000 1.0
C      1  0.3932310000000  0.4711660000000  0.7173550000000 1.0
C      1  0.4671730000000  0.3877330000000  0.7213940000000 1.0
C      1  0.5767840000000  0.4118520000000  0.7214280000000 1.0
C      1  0.6067690000000  0.5288340000000  0.2826450000000 1.0
C      1  0.5328270000000  0.6122670000000  0.2786060000000 1.0
C      1  0.4232160000000  0.5881480000000  0.2785720000000 1.0
C      1  0.3911190000000  0.4813860000000  0.2825790000000 1.0
C      1  0.4658290000000  0.3980790000000  0.2893410000000 1.0
C      1  0.5739220000000  0.4218620000000  0.2893780000000 1.0
C      1  0.3070110000000  0.3238680000000  0.6249800000000 1.0
C      1  0.5581160000000  0.2356630000000  0.6355440000000 1.0
C      1  0.7490230000000  0.4211360000000  0.6251210000000 1.0
C      1  0.6916620000000  0.6648580000000  0.6171400000000 1.0
C      1  0.4467280000000  0.7419720000000  0.6067390000000 1.0
C      1  0.2567670000000  0.5691590000000  0.6170000000000 1.0
C      1  0.3083380000000  0.3351420000000  0.3828600000000 1.0
C      1  0.5532720000000  0.2580280000000  0.3932610000000 1.0
C      1  0.7432330000000  0.4308410000000  0.3830000000000 1.0
C      1  0.6929890000000  0.6761320000000  0.3750210000000 1.0
C      1  0.4418840000000  0.7643370000000  0.3644560000000 1.0
C      1  0.2509780000000  0.5788640000000  0.3748790000000 1.0
C      1  0.5721270000000  0.5852880000000  0.4459990000000 1.0
C      1  0.4734390000000  0.6207960000000  0.4375610000000 1.0
C      1  0.3987650000000  0.5471440000000  0.4459470000000 1.0
C      1  0.4184580000000  0.4420940000000  0.4464590000000 1.0
C      1  0.5197630000000  0.4102500000000  0.4577450000000 1.0
C      1  0.5983480000000  0.4816760000000  0.4465130000000 1.0
C      1  0.5815420000000  0.5579060000000  0.5535410000000 1.0
C      1  0.4802380000000  0.5897500000000  0.5422580000000 1.0
C      1  0.4016520000000  0.5183240000000  0.5534860000000 1.0
C      1  0.4278740000000  0.4147110000000  0.5540000000000 1.0
C      1  0.5265610000000  0.3792030000000  0.5624380000000 1.0
C      1  0.6012350000000  0.4528560000000  0.5540510000000 1.0
C      1  0.4679070000000  0.6456850000000  0.6295310000000 1.0
C      1  0.3506930000000  0.5386280000000  0.6377060000000 1.0
C      1  0.3849800000000  0.3857030000000  0.6432420000000 1.0
C      1  0.5366300000000  0.3333060000000  0.6510510000000 1.0
C      1  0.6522860000000  0.4445170000000  0.6433240000000 1.0
C      1  0.6192170000000  0.5977150000000  0.6377890000000 1.0
C      1  0.4633690000000  0.6666940000000  0.3489490000000 1.0
C      1  0.3477140000000  0.5554830000000  0.3566760000000 1.0
C      1  0.3807830000000  0.4022850000000  0.3622110000000 1.0
C      1  0.5320930000000  0.3543150000000  0.3704680000000 1.0
C      1  0.6493070000000  0.4613720000000  0.3622940000000 1.0
C      1  0.6150210000000  0.6142970000000  0.3567580000000 1.0
C      1  0.2062660000000  0.5886120000000  0.4524410000000 1.0
C      1  0.2720680000000  0.3006150000000  0.4573850000000 1.0
C      1  0.5646500000000  0.2062140000000  0.4655440000000 1.0
C      1  0.7906060000000  0.4147200000000  0.4575490000000 1.0
C      1  0.7294280000000  0.7037440000000  0.4526070000000 1.0
C      1  0.4330090000000  0.8045740000000  0.4449480000000 1.0
C      1  0.2093930000000  0.5852800000000  0.5424510000000 1.0
C      1  0.2705710000000  0.2962560000000  0.5473930000000 1.0
C      1  0.5669910000000  0.1954260000000  0.5550520000000 1.0
C      1  0.7937350000000  0.4113880000000  0.5475590000000 1.0
C      1  0.7279320000000  0.6993850000000  0.5426150000000 1.0
C      1  0.4353500000000  0.7937850000000  0.5344560000000 1.0
END
