TITL C-3036479-9801-1182 -0.00474176736823853 3375 -362.712813527731 0 0 60 (C1) n - 1
REM
REM in /home/bkarasulu/work/CARBON/AIRSS/Generating-Clusters/REBO/Higher-Symm/Only-C60
REM
REM
REM
REM
REM
REM ./C.cell (a2850807a9bf4ad07a5b6933b78d9264)
REM AIRSS Version 0.9.1 bugfix July 2018 build 013d7b7c2542+ Fri, 06 Jul 2018 19:26:36 +0100
REM compiler GCC version 9.2.1 20190827 (Red Hat 9.2.1-1)
REM options -cpp -mtune=generic -march=x86-64 -g -O0 -fpre-include=/usr/include/finclude/math-vector-fortran.h
REM seed 1283820954 221998113 -1196986825 1001983040 -1215495597 2130529167 -1385496407 873540034 1373145266 540652675 1290703949 1744092818 1033526179 -489018671 -702428718 1362790890 -265204001 -701629934 -406129848 -1348171318 -747015599 -864253910 -460904211 1517388945 -1304931722 199291710 -468665747 -781769736 1860100024 685318391 -348220829 906598535 1809280346
REM
CELL 1.54180   15.00000   15.00000   15.00000   90.00000   90.00000   90.00000
LATT -1
SFAC C  
C      1  0.3169770000000  0.4262830000000  0.5504960000000 1.0
C      1  0.6836460000000  0.4095870000000  0.4969980000000 1.0
C      1  0.3166100000000  0.4291630000000  0.4461960000000 1.0
C      1  0.6841440000000  0.4749720000000  0.4149030000000 1.0
C      1  0.3165580000000  0.5295230000000  0.4164220000000 1.0
C      1  0.6835920000000  0.5738390000000  0.4491810000000 1.0
C      1  0.3168270000000  0.5889690000000  0.5024420000000 1.0
C      1  0.6839290000000  0.5708000000000  0.5542400000000 1.0
C      1  0.3166650000000  0.5246970000000  0.5851970000000 1.0
C      1  0.6845870000000  0.4691670000000  0.5823540000000 1.0
C      1  0.4062400000000  0.4300940000000  0.6583580000000 1.0
C      1  0.5939110000000  0.3484640000000  0.5848020000000 1.0
C      1  0.4061330000000  0.3264260000000  0.4836200000000 1.0
C      1  0.5924120000000  0.3636770000000  0.3835120000000 1.0
C      1  0.4059010000000  0.4615820000000  0.3299940000000 1.0
C      1  0.5939150000000  0.5716370000000  0.3427750000000 1.0
C      1  0.4063680000000  0.6497350000000  0.4126290000000 1.0
C      1  0.5940360000000  0.6717300000000  0.5170200000000 1.0
C      1  0.4061450000000  0.6320050000000  0.6152510000000 1.0
C      1  0.5926400000000  0.5421170000000  0.6747260000000 1.0
C      1  0.6268940000000  0.4466700000000  0.6680640000000 1.0
C      1  0.3715730000000  0.3471340000000  0.6105410000000 1.0
C      1  0.6302330000000  0.3093130000000  0.4987700000000 1.0
C      1  0.3705030000000  0.3484800000000  0.3904760000000 1.0
C      1  0.6269550000000  0.4434370000000  0.3305620000000 1.0
C      1  0.3716820000000  0.5575350000000  0.3231790000000 1.0
C      1  0.6295910000000  0.6540440000000  0.3898460000000 1.0
C      1  0.3711820000000  0.6884400000000  0.4998770000000 1.0
C      1  0.6292480000000  0.6526960000000  0.6107730000000 1.0
C      1  0.3709400000000  0.5572720000000  0.6753360000000 1.0
C      1  0.4703220000000  0.7057970000000  0.6358240000000 1.0
C      1  0.5258040000000  0.5880180000000  0.7319540000000 1.0
C      1  0.4721760000000  0.4341410000000  0.7335320000000 1.0
C      1  0.5303860000000  0.3068070000000  0.6501480000000 1.0
C      1  0.4700560000000  0.2538980000000  0.5099640000000 1.0
C      1  0.5262100000000  0.2923730000000  0.3631400000000 1.0
C      1  0.4720990000000  0.4151910000000  0.2712380000000 1.0
C      1  0.5297900000000  0.5675860000000  0.2659200000000 1.0
C      1  0.4705620000000  0.6933800000000  0.3490530000000 1.0
C      1  0.5300250000000  0.7442170000000  0.4906190000000 1.0
C      1  0.4471750000000  0.7377250000000  0.5428180000000 1.0
C      1  0.5525390000000  0.6690850000000  0.6749650000000 1.0
C      1  0.4449310000000  0.5322660000000  0.7376320000000 1.0
C      1  0.5549030000000  0.3881840000000  0.7059510000000 1.0
C      1  0.4470270000000  0.2818410000000  0.6044180000000 1.0
C      1  0.5523820000000  0.2596450000000  0.4564010000000 1.0
C      1  0.4450690000000  0.3332000000000  0.3256150000000 1.0
C      1  0.5544680000000  0.4689920000000  0.2665340000000 1.0
C      1  0.4466780000000  0.6145220000000  0.2896330000000 1.0
C      1  0.5532500000000  0.7187140000000  0.3958730000000 1.0
C      1  0.5618570000000  0.5264940000000  0.4227560000000 1.0
C      1  0.4387390000000  0.5669260000000  0.4533910000000 1.0
C      1  0.5618340000000  0.5806080000000  0.5021630000000 1.0
C      1  0.4387750000000  0.5648190000000  0.5499840000000 1.0
C      1  0.5624850000000  0.5224940000000  0.5794790000000 1.0
C      1  0.4389630000000  0.4728900000000  0.5769200000000 1.0
C      1  0.5620290000000  0.4320050000000  0.5465810000000 1.0
C      1  0.4389280000000  0.4180900000000  0.4979130000000 1.0
C      1  0.5619360000000  0.4343540000000  0.4493440000000 1.0
C      1  0.4385660000000  0.4762480000000  0.4216950000000 1.0
END
