TITL C-3036484-3770-261 -3.69799971159989e-07 3375 -344.877865047772 0 0 60 (D3) n - 1
REM
REM in /home/bkarasulu/work/CARBON/AIRSS/Generating-Clusters/REBO/Higher-Symm/Only-C60
REM
REM
REM
REM
REM
REM ./C.cell (a2850807a9bf4ad07a5b6933b78d9264)
REM AIRSS Version 0.9.1 bugfix July 2018 build 013d7b7c2542+ Fri, 06 Jul 2018 19:26:36 +0100
REM compiler GCC version 9.2.1 20190827 (Red Hat 9.2.1-1)
REM options -cpp -mtune=generic -march=x86-64 -g -O0 -fpre-include=/usr/include/finclude/math-vector-fortran.h
REM seed 481024392 -1009650264 -1605892834 2079921530 608851432 -234205597 -274632083 1617792297 668000696 -1776154310 1411999266 -732061196 -1409131180 -1621646721 2042339788 615435337 691432666 1782726864 2132186 -1137816103 -388544678 -538661902 -1715471346 -628135308 1469210479 1548388462 1788604387 236735061 -1930389471 1074002355 -102398438 974725644 -1464842404
REM
CELL 1.54180   15.00000   15.00000   15.00000   90.00000   90.00000   90.00000
LATT -1
SFAC C  
C      1  0.3534110000000  0.5100880000000  0.6973830000000 1.0
C      1  0.3534110000000  0.6658950000000  0.3925720000000 1.0
C      1  0.3534110000000  0.3240170000000  0.4100450000000 1.0
C      1  0.6465890000000  0.5100880000000  0.3026170000000 1.0
C      1  0.6465890000000  0.6658950000000  0.6074280000000 1.0
C      1  0.6465890000000  0.3240170000000  0.5899550000000 1.0
C      1  0.3536710000000  0.7067000000000  0.4988780000000 1.0
C      1  0.3536700000000  0.3956780000000  0.3215540000000 1.0
C      1  0.3536710000000  0.3976220000000  0.6795680000000 1.0
C      1  0.6463290000000  0.7067000000000  0.5011220000000 1.0
C      1  0.6463300000000  0.3956780000000  0.6784460000000 1.0
C      1  0.6463290000000  0.3976220000000  0.3204320000000 1.0
C      1  0.6877830000000  0.6004040000000  0.5004100000000 1.0
C      1  0.6877830000000  0.4501530000000  0.4128430000000 1.0
C      1  0.6877830000000  0.4494430000000  0.5867480000000 1.0
C      1  0.3122170000000  0.6004040000000  0.4995900000000 1.0
C      1  0.3122170000000  0.4501530000000  0.5871570000000 1.0
C      1  0.3122170000000  0.4494430000000  0.4132520000000 1.0
C      1  0.4620450000000  0.6954260000000  0.4656300000000 1.0
C      1  0.4620450000000  0.3725210000000  0.3479410000000 1.0
C      1  0.4620450000000  0.4320530000000  0.6864290000000 1.0
C      1  0.5379550000000  0.6954260000000  0.5343700000000 1.0
C      1  0.5379550000000  0.3725210000000  0.6520590000000 1.0
C      1  0.5379550000000  0.4320530000000  0.3135710000000 1.0
C      1  0.5158850000000  0.2939730000000  0.3972350000000 1.0
C      1  0.5158860000000  0.5140160000000  0.7298070000000 1.0
C      1  0.5158850000000  0.6920110000000  0.3729580000000 1.0
C      1  0.4841150000000  0.2939730000000  0.6027650000000 1.0
C      1  0.4841140000000  0.5140160000000  0.2701930000000 1.0
C      1  0.4841150000000  0.6920110000000  0.6270420000000 1.0
C      1  0.4248840000000  0.5463990000000  0.7434650000000 1.0
C      1  0.4248840000000  0.6876470000000  0.3380850000000 1.0
C      1  0.4248840000000  0.2659540000000  0.4184500000000 1.0
C      1  0.5751160000000  0.5463990000000  0.2565350000000 1.0
C      1  0.5751160000000  0.6876470000000  0.6619150000000 1.0
C      1  0.5751160000000  0.2659540000000  0.5815500000000 1.0
C      1  0.3862490000000  0.3403040000000  0.5866150000000 1.0
C      1  0.3862490000000  0.6548590000000  0.5949930000000 1.0
C      1  0.3862490000000  0.5048370000000  0.3183920000000 1.0
C      1  0.6137510000000  0.3403040000000  0.4133850000000 1.0
C      1  0.6137510000000  0.6548590000000  0.4050070000000 1.0
C      1  0.6137510000000  0.5048370000000  0.6816080000000 1.0
C      1  0.5490680000000  0.4011540000000  0.4847960000000 1.0
C      1  0.5490680000000  0.5362550000000  0.5932060000000 1.0
C      1  0.5490680000000  0.5625910000000  0.4219990000000 1.0
C      1  0.4509320000000  0.4011540000000  0.5152040000000 1.0
C      1  0.4509320000000  0.5362550000000  0.4067940000000 1.0
C      1  0.4509320000000  0.5625910000000  0.5780010000000 1.0
C      1  0.6794320000000  0.5619410000000  0.3956160000000 1.0
C      1  0.6794330000000  0.3786300000000  0.4985500000000 1.0
C      1  0.6794330000000  0.5594290000000  0.6058350000000 1.0
C      1  0.3205680000000  0.5619410000000  0.6043840000000 1.0
C      1  0.3205670000000  0.3786300000000  0.5014500000000 1.0
C      1  0.3205670000000  0.5594290000000  0.3941650000000 1.0
C      1  0.5771880000000  0.4681110000000  0.4079810000000 1.0
C      1  0.5771890000000  0.4362540000000  0.5736260000000 1.0
C      1  0.5771880000000  0.5956350000000  0.5183930000000 1.0
C      1  0.4228120000000  0.4681110000000  0.5920190000000 1.0
C      1  0.4228110000000  0.4362540000000  0.4263740000000 1.0
C      1  0.4228120000000  0.5956350000000  0.4816070000000 1.0
END
