TITL C-3036480-97-1115 -1.45334908819491e-05 3375 -340.494308971539 0 0 60 (Td) n - 1
REM
REM in /home/bkarasulu/work/CARBON/AIRSS/Generating-Clusters/REBO/Higher-Symm/Only-C60
REM
REM
REM
REM
REM
REM ./C.cell (a2850807a9bf4ad07a5b6933b78d9264)
REM AIRSS Version 0.9.1 bugfix July 2018 build 013d7b7c2542+ Fri, 06 Jul 2018 19:26:36 +0100
REM compiler GCC version 9.2.1 20190827 (Red Hat 9.2.1-1)
REM options -cpp -mtune=generic -march=x86-64 -g -O0 -fpre-include=/usr/include/finclude/math-vector-fortran.h
REM seed -24436929 -860602015 732032007 -83667161 -1351480142 1511466404 -488581601 581286219 292907710 1002196653 325915708 -243025063 166866610 1146558043 -1840430164 472032291 1478720206 -1817164247 -64854841 -906905965 -1581573188 -1429893604 54041939 -1065133933 -944604389 -147263652 -1931652339 -790043442 -316066600 -1117625017 -1444377117 1726735138 2040530877
REM
CELL 1.54180   15.00000   15.00000   15.00000   90.00000   90.00000   90.00000
LATT -1
SFAC C  
C      1  0.2828300000000  0.3495440000000  0.5796490000000 1.0
C      1  0.3495440000000  0.5796490000000  0.2828300000000 1.0
C      1  0.5796490000000  0.2828300000000  0.3495440000000 1.0
C      1  0.2828300000000  0.6504560000000  0.4203510000000 1.0
C      1  0.7171700000000  0.3495440000000  0.4203510000000 1.0
C      1  0.7171700000000  0.6504560000000  0.5796490000000 1.0
C      1  0.3495440000000  0.4203510000000  0.7171700000000 1.0
C      1  0.6504560000000  0.5796490000000  0.7171700000000 1.0
C      1  0.6504560000000  0.4203510000000  0.2828300000000 1.0
C      1  0.5796490000000  0.7171700000000  0.6504560000000 1.0
C      1  0.4203510000000  0.2828300000000  0.6504560000000 1.0
C      1  0.4203510000000  0.7171700000000  0.3495440000000 1.0
C      1  0.2828300000000  0.5796490000000  0.3495440000000 1.0
C      1  0.3495440000000  0.2828300000000  0.5796490000000 1.0
C      1  0.5796490000000  0.3495440000000  0.2828300000000 1.0
C      1  0.2828300000000  0.4203510000000  0.6504560000000 1.0
C      1  0.7171700000000  0.4203510000000  0.3495440000000 1.0
C      1  0.7171700000000  0.5796490000000  0.6504560000000 1.0
C      1  0.3495440000000  0.7171700000000  0.4203510000000 1.0
C      1  0.6504560000000  0.7171700000000  0.5796490000000 1.0
C      1  0.6504560000000  0.2828300000000  0.4203510000000 1.0
C      1  0.5796490000000  0.6504560000000  0.7171700000000 1.0
C      1  0.4203510000000  0.6504560000000  0.2828300000000 1.0
C      1  0.4203510000000  0.3495440000000  0.7171700000000 1.0
C      1  0.2913680000000  0.4948310000000  0.4214720000000 1.0
C      1  0.4948310000000  0.4214720000000  0.2913680000000 1.0
C      1  0.4214720000000  0.2913680000000  0.4948310000000 1.0
C      1  0.2913680000000  0.5051690000000  0.5785280000000 1.0
C      1  0.7086320000000  0.4948310000000  0.5785280000000 1.0
C      1  0.7086320000000  0.5051690000000  0.4214720000000 1.0
C      1  0.4948310000000  0.5785280000000  0.7086320000000 1.0
C      1  0.5051690000000  0.4214720000000  0.7086320000000 1.0
C      1  0.5051690000000  0.5785280000000  0.2913680000000 1.0
C      1  0.4214720000000  0.7086320000000  0.5051690000000 1.0
C      1  0.5785280000000  0.2913680000000  0.5051690000000 1.0
C      1  0.5785280000000  0.7086320000000  0.4948310000000 1.0
C      1  0.2913680000000  0.4214720000000  0.4948310000000 1.0
C      1  0.4948310000000  0.2913680000000  0.4214720000000 1.0
C      1  0.4214720000000  0.4948310000000  0.2913680000000 1.0
C      1  0.2913680000000  0.5785280000000  0.5051690000000 1.0
C      1  0.7086320000000  0.5785280000000  0.4948310000000 1.0
C      1  0.7086320000000  0.4214720000000  0.5051690000000 1.0
C      1  0.4948310000000  0.7086320000000  0.5785280000000 1.0
C      1  0.5051690000000  0.7086320000000  0.4214720000000 1.0
C      1  0.5051690000000  0.2913680000000  0.5785280000000 1.0
C      1  0.4214720000000  0.5051690000000  0.7086320000000 1.0
C      1  0.5785280000000  0.5051690000000  0.2913680000000 1.0
C      1  0.5785280000000  0.4948310000000  0.7086320000000 1.0
C      1  0.6049200000000  0.4753800000000  0.3950800000000 1.0
C      1  0.3950800000000  0.4753800000000  0.6049200000000 1.0
C      1  0.3950800000000  0.5246200000000  0.3950800000000 1.0
C      1  0.5246200000000  0.3950800000000  0.3950800000000 1.0
C      1  0.4753800000000  0.3950800000000  0.6049200000000 1.0
C      1  0.3950800000000  0.6049200000000  0.4753800000000 1.0
C      1  0.4753800000000  0.6049200000000  0.3950800000000 1.0
C      1  0.6049200000000  0.3950800000000  0.4753800000000 1.0
C      1  0.3950800000000  0.3950800000000  0.5246200000000 1.0
C      1  0.5246200000000  0.6049200000000  0.6049200000000 1.0
C      1  0.6049200000000  0.6049200000000  0.5246200000000 1.0
C      1  0.6049200000000  0.5246200000000  0.6049200000000 1.0
END
