TITL C-3036483-1610-1182 -1.18103513264004e-06 3375 -346.593992788206 0 0 60 (C5) n - 1
REM
REM in /home/bkarasulu/work/CARBON/AIRSS/Generating-Clusters/REBO/Higher-Symm/Only-C60
REM
REM
REM
REM
REM
REM ./C.cell (a2850807a9bf4ad07a5b6933b78d9264)
REM AIRSS Version 0.9.1 bugfix July 2018 build 013d7b7c2542+ Fri, 06 Jul 2018 19:26:36 +0100
REM compiler GCC version 9.2.1 20190827 (Red Hat 9.2.1-1)
REM options -cpp -mtune=generic -march=x86-64 -g -O0 -fpre-include=/usr/include/finclude/math-vector-fortran.h
REM seed 872918158 -905664123 1170451482 613208307 -1511509864 -410452516 -1454489299 -970110763 743091609 1758104386 1457068607 465133514 -580457304 -1589062386 -63348522 53745541 -1284922473 -1400140380 42667679 -1903565050 863900484 942838462 -1730271690 -868821397 -61332313 1307001550 2109556351 1113926122 -750983267 785999622 722750296 455742943 -907566706
REM
CELL 1.54180   15.00000   15.00000   15.00000   90.00000   90.00000   90.00000
LATT -1
SFAC C  
C      1  0.4905400000000  0.6630040000000  0.5827190000000 1.0
C      1  0.5757510000000  0.6630020000000  0.5345580000000 1.0
C      1  0.5562780000000  0.6630010000000  0.4386360000000 1.0
C      1  0.4590340000000  0.6630020000000  0.4275140000000 1.0
C      1  0.4184050000000  0.6630040000000  0.5165620000000 1.0
C      1  0.3280320000000  0.5919760000000  0.6988080000000 1.0
C      1  0.6359390000000  0.5919730000000  0.7249870000000 1.0
C      1  0.7559840000000  0.5919680000000  0.4402390000000 1.0
C      1  0.5222700000000  0.5919680000000  0.2380770000000 1.0
C      1  0.2577800000000  0.5919730000000  0.3978820000000 1.0
C      1  0.6157950000000  0.6296990000000  0.3732370000000 1.0
C      1  0.4152260000000  0.6297010000000  0.3507000000000 1.0
C      1  0.3318140000000  0.6297040000000  0.5344890000000 1.0
C      1  0.4808310000000  0.6297050000000  0.6706120000000 1.0
C      1  0.6563410000000  0.6297020000000  0.5709530000000 1.0
C      1  0.4467920000000  0.6367460000000  0.2625150000000 1.0
C      1  0.2576990000000  0.6367510000000  0.4772170000000 1.0
C      1  0.4034600000000  0.6367530000000  0.7234010000000 1.0
C      1  0.6826380000000  0.6367490000000  0.6608500000000 1.0
C      1  0.7094190000000  0.6367450000000  0.3760070000000 1.0
C      1  0.7207980000000  0.4029120000000  0.4435980000000 1.0
C      1  0.5145860000000  0.4029110000000  0.2725790000000 1.0
C      1  0.2882160000000  0.4029160000000  0.4158510000000 1.0
C      1  0.3545220000000  0.4029180000000  0.6754160000000 1.0
C      1  0.6218730000000  0.4029160000000  0.6925640000000 1.0
C      1  0.2639000000000  0.4239920000000  0.4983000000000 1.0
C      1  0.4254230000000  0.4239930000000  0.7240200000000 1.0
C      1  0.6900080000000  0.4239890000000  0.6401530000000 1.0
C      1  0.6920080000000  0.4239860000000  0.3626010000000 1.0
C      1  0.4286580000000  0.4239870000000  0.2749310000000 1.0
C      1  0.4585310000000  0.4311500000000  0.5861500000000 1.0
C      1  0.5691180000000  0.4311490000000  0.5660620000000 1.0
C      1  0.5841860000000  0.4311470000000  0.4546790000000 1.0
C      1  0.4829110000000  0.4311470000000  0.4059300000000 1.0
C      1  0.4052520000000  0.4311490000000  0.4871830000000 1.0
C      1  0.3478000000000  0.5523250000000  0.3694850000000 1.0
C      1  0.3288410000000  0.5523290000000  0.6044200000000 1.0
C      1  0.5464190000000  0.5523280000000  0.6950490000000 1.0
C      1  0.6998480000000  0.5523240000000  0.5161260000000 1.0
C      1  0.5770940000000  0.5523220000000  0.3149170000000 1.0
C      1  0.6874780000000  0.3501120000000  0.5304280000000 1.0
C      1  0.5868700000000  0.3501110000000  0.3311010000000 1.0
C      1  0.3662090000000  0.3501130000000  0.3651890000000 1.0
C      1  0.3304410000000  0.3501170000000  0.5855840000000 1.0
C      1  0.5289960000000  0.3501160000000  0.6877080000000 1.0
C      1  0.4271590000000  0.5379530000000  0.5618850000000 1.0
C      1  0.5363480000000  0.5379520000000  0.5884000000000 1.0
C      1  0.5953060000000  0.5379510000000  0.4927480000000 1.0
C      1  0.5225550000000  0.5379500000000  0.4071180000000 1.0
C      1  0.4186340000000  0.5379520000000  0.4498470000000 1.0
C      1  0.2933920000000  0.4571010000000  0.5973980000000 1.0
C      1  0.5287850000000  0.4571010000000  0.7265940000000 1.0
C      1  0.7243970000000  0.4570960000000  0.5426460000000 1.0
C      1  0.6099000000000  0.4570940000000  0.2997640000000 1.0
C      1  0.3435240000000  0.4570970000000  0.3336020000000 1.0
C      1  0.5564160000000  0.3230320000000  0.4263920000000 1.0
C      1  0.4474240000000  0.3230330000000  0.4235990000000 1.0
C      1  0.4110880000000  0.3230350000000  0.5263930000000 1.0
C      1  0.4976230000000  0.3230350000000  0.5927160000000 1.0
C      1  0.5874400000000  0.3230330000000  0.5309120000000 1.0
END
