TITL C-3036482-790-1059 0.0242220805860611 3375 -345.075987508946 0 0 60 (D2) n - 1
REM
REM in /home/bkarasulu/work/CARBON/AIRSS/Generating-Clusters/REBO/Higher-Symm/Only-C60
REM
REM
REM
REM
REM
REM ./C.cell (a2850807a9bf4ad07a5b6933b78d9264)
REM AIRSS Version 0.9.1 bugfix July 2018 build 013d7b7c2542+ Fri, 06 Jul 2018 19:26:36 +0100
REM compiler GCC version 9.2.1 20190827 (Red Hat 9.2.1-1)
REM options -cpp -mtune=generic -march=x86-64 -g -O0 -fpre-include=/usr/include/finclude/math-vector-fortran.h
REM seed 1661759043 1317287892 -801027927 -155135992 905411931 315565859 1807926387 2064008777 -909782861 1524007279 -534816554 1617006891 -1309071590 1527859066 -791515797 904277978 -2069792801 1781771285 -629240759 477364911 -1822552228 -217826314 1452772099 1324672613 -1187347294 -1617733762 -355334240 1671092271 348529218 1349756500 -2054051149 2064468538 1789632482
REM
CELL 1.54180   15.00000   15.00000   15.00000   90.00000   90.00000   90.00000
LATT -1
SFAC C  
C      1  0.4824160000000  0.5828870000000  0.5638260000000 1.0
C      1  0.4824170000000  0.4171150000000  0.4361680000000 1.0
C      1  0.5175800000000  0.4171210000000  0.5638260000000 1.0
C      1  0.5175840000000  0.5828830000000  0.4361780000000 1.0
C      1  0.6755720000000  0.3646140000000  0.5639930000000 1.0
C      1  0.6755770000000  0.6353820000000  0.4360070000000 1.0
C      1  0.3244240000000  0.6353900000000  0.5639870000000 1.0
C      1  0.3244240000000  0.3646110000000  0.4360140000000 1.0
C      1  0.6684280000000  0.4741550000000  0.5600660000000 1.0
C      1  0.6684270000000  0.5258450000000  0.4399330000000 1.0
C      1  0.3315720000000  0.5258480000000  0.5600670000000 1.0
C      1  0.3315720000000  0.4741530000000  0.4399350000000 1.0
C      1  0.4250230000000  0.3502510000000  0.4682470000000 1.0
C      1  0.4250240000000  0.6497500000000  0.5317520000000 1.0
C      1  0.5749570000000  0.6497760000000  0.4682220000000 1.0
C      1  0.5749450000000  0.3502100000000  0.5318520000000 1.0
C      1  0.3621520000000  0.5720520000000  0.7142590000000 1.0
C      1  0.3621530000000  0.4279510000000  0.2857400000000 1.0
C      1  0.6378490000000  0.4279570000000  0.7142650000000 1.0
C      1  0.6378490000000  0.5720520000000  0.2857400000000 1.0
C      1  0.4919450000000  0.2494990000000  0.4133130000000 1.0
C      1  0.4919370000000  0.7504860000000  0.5866860000000 1.0
C      1  0.5080660000000  0.7504720000000  0.4133230000000 1.0
C      1  0.5080650000000  0.2495180000000  0.5866690000000 1.0
C      1  0.4608000000000  0.3781280000000  0.6792530000000 1.0
C      1  0.4607980000000  0.6218730000000  0.3207490000000 1.0
C      1  0.5392080000000  0.6218750000000  0.6792560000000 1.0
C      1  0.5392060000000  0.3781270000000  0.3207440000000 1.0
C      1  0.6201480000000  0.6473800000000  0.3427560000000 1.0
C      1  0.6201510000000  0.3526140000000  0.6572280000000 1.0
C      1  0.3798450000000  0.3526140000000  0.3427440000000 1.0
C      1  0.3798510000000  0.6473860000000  0.6572570000000 1.0
C      1  0.6335530000000  0.6143530000000  0.6355860000000 1.0
C      1  0.6335540000000  0.3856480000000  0.3644140000000 1.0
C      1  0.3664470000000  0.3856500000000  0.6355900000000 1.0
C      1  0.3664470000000  0.6143510000000  0.3644110000000 1.0
C      1  0.5300070000000  0.6833540000000  0.3474050000000 1.0
C      1  0.5300270000000  0.3166720000000  0.6525280000000 1.0
C      1  0.4699980000000  0.3166510000000  0.3474020000000 1.0
C      1  0.4699970000000  0.6833560000000  0.6526070000000 1.0
C      1  0.4351110000000  0.2582320000000  0.5110780000000 1.0
C      1  0.4350990000000  0.7417690000000  0.4889160000000 1.0
C      1  0.5649050000000  0.7417630000000  0.5110850000000 1.0
C      1  0.5648900000000  0.2582350000000  0.4889220000000 1.0
C      1  0.5076240000000  0.5446140000000  0.7259770000000 1.0
C      1  0.5076240000000  0.4553850000000  0.2740250000000 1.0
C      1  0.4923780000000  0.4553830000000  0.7259760000000 1.0
C      1  0.4923770000000  0.5446140000000  0.2740220000000 1.0
C      1  0.3712270000000  0.4848690000000  0.6799400000000 1.0
C      1  0.3712270000000  0.5151280000000  0.3200600000000 1.0
C      1  0.6287740000000  0.5151240000000  0.6799420000000 1.0
C      1  0.6287750000000  0.4848720000000  0.3200570000000 1.0
C      1  0.6701470000000  0.5854850000000  0.5383320000000 1.0
C      1  0.6701480000000  0.4145180000000  0.4616690000000 1.0
C      1  0.3298500000000  0.4145190000000  0.5383340000000 1.0
C      1  0.3298510000000  0.5854830000000  0.4616660000000 1.0
C      1  0.4350430000000  0.5131430000000  0.4140750000000 1.0
C      1  0.4350420000000  0.4868560000000  0.5859260000000 1.0
C      1  0.5649570000000  0.4868550000000  0.4140730000000 1.0
C      1  0.5649570000000  0.5131440000000  0.5859260000000 1.0
END
