TITL C-3036479-9801-277 -4.42407434089018e-06 3375 -343.586180816711 0 0 60 (C1) n - 1
REM
REM in /home/bkarasulu/work/CARBON/AIRSS/Generating-Clusters/REBO/Higher-Symm/Only-C60
REM
REM
REM
REM
REM
REM ./C.cell (a2850807a9bf4ad07a5b6933b78d9264)
REM AIRSS Version 0.9.1 bugfix July 2018 build 013d7b7c2542+ Fri, 06 Jul 2018 19:26:36 +0100
REM compiler GCC version 9.2.1 20190827 (Red Hat 9.2.1-1)
REM options -cpp -mtune=generic -march=x86-64 -g -O0 -fpre-include=/usr/include/finclude/math-vector-fortran.h
REM seed 1582078182 21753291 -879437143 604505535 9735016 1591273414 -2080157930 -385492017 1254745723 1213922046 1758600060 -1301770153 -201731001 -31891636 1855443030 1538731761 -389323140 469521675 1894679468 1624560698 -89482382 2095733696 201723864 124699304 -1777137420 1142286019 884244694 -32353280 -1955659958 -66432841 837274127 744604764 -2107362666
REM
CELL 1.54180   15.00000   15.00000   15.00000   90.00000   90.00000   90.00000
LATT -1
SFAC C  
C      1  0.6996600000000  0.5298170000000  0.6971230000000 1.0
C      1  0.3327570000000  0.4601150000000  0.3366460000000 1.0
C      1  0.5955980000000  0.5195940000000  0.2735690000000 1.0
C      1  0.6652400000000  0.4003180000000  0.5977980000000 1.0
C      1  0.4714040000000  0.4433430000000  0.5549710000000 1.0
C      1  0.5094490000000  0.2510520000000  0.4362690000000 1.0
C      1  0.6022180000000  0.5499070000000  0.3705810000000 1.0
C      1  0.5621210000000  0.4489640000000  0.6005890000000 1.0
C      1  0.3897000000000  0.5757500000000  0.7134140000000 1.0
C      1  0.7409490000000  0.7213720000000  0.4859270000000 1.0
C      1  0.4571970000000  0.4921940000000  0.7284260000000 1.0
C      1  0.4263860000000  0.7189080000000  0.5929970000000 1.0
C      1  0.6642370000000  0.2736510000000  0.4882850000000 1.0
C      1  0.6271190000000  0.5223830000000  0.5607860000000 1.0
C      1  0.4298930000000  0.3323430000000  0.6685930000000 1.0
C      1  0.3626550000000  0.6249810000000  0.3810620000000 1.0
C      1  0.2657150000000  0.4982980000000  0.5062640000000 1.0
C      1  0.6635560000000  0.4248060000000  0.4328860000000 1.0
C      1  0.5992750000000  0.2727560000000  0.4105370000000 1.0
C      1  0.6385120000000  0.6990130000000  0.4804980000000 1.0
C      1  0.6318750000000  0.4228650000000  0.2681420000000 1.0
C      1  0.4370580000000  0.4548300000000  0.2909390000000 1.0
C      1  0.2631780000000  0.5764700000000  0.4532250000000 1.0
C      1  0.6045260000000  0.3656490000000  0.3554770000000 1.0
C      1  0.5779630000000  0.3056550000000  0.5379650000000 1.0
C      1  0.3268890000000  0.6656570000000  0.4772130000000 1.0
C      1  0.5520140000000  0.6751190000000  0.4624380000000 1.0
C      1  0.6566940000000  0.4490190000000  0.6923020000000 1.0
C      1  0.4853840000000  0.5182650000000  0.2458410000000 1.0
C      1  0.5761620000000  0.2989750000000  0.6318870000000 1.0
C      1  0.4962810000000  0.3892940000000  0.3304440000000 1.0
C      1  0.3613610000000  0.7531350000000  0.5216480000000 1.0
C      1  0.5444940000000  0.4433720000000  0.7097090000000 1.0
C      1  0.3397590000000  0.8354250000000  0.5023780000000 1.0
C      1  0.3735970000000  0.6433390000000  0.6517150000000 1.0
C      1  0.4455590000000  0.5443070000000  0.5310830000000 1.0
C      1  0.2952390000000  0.4177560000000  0.4370990000000 1.0
C      1  0.6925170000000  0.3685410000000  0.5129740000000 1.0
C      1  0.6135800000000  0.6752460000000  0.6583310000000 1.0
C      1  0.4491570000000  0.5896620000000  0.3811380000000 1.0
C      1  0.4496460000000  0.3348540000000  0.4076270000000 1.0
C      1  0.5182320000000  0.3431210000000  0.6916900000000 1.0
C      1  0.5304910000000  0.6965230000000  0.6303530000000 1.0
C      1  0.3235510000000  0.3851980000000  0.5398870000000 1.0
C      1  0.4002740000000  0.4256050000000  0.4152710000000 1.0
C      1  0.5361650000000  0.6260440000000  0.3852700000000 1.0
C      1  0.5588530000000  0.4645510000000  0.4318260000000 1.0
C      1  0.4929500000000  0.6457960000000  0.5399200000000 1.0
C      1  0.5196350000000  0.3735620000000  0.4870030000000 1.0
C      1  0.3657100000000  0.6064190000000  0.5568420000000 1.0
C      1  0.2927050000000  0.5561530000000  0.3539290000000 1.0
C      1  0.3568130000000  0.4809100000000  0.6770410000000 1.0
C      1  0.6698690000000  0.5321570000000  0.4580690000000 1.0
C      1  0.6753110000000  0.6006590000000  0.6230850000000 1.0
C      1  0.7049880000000  0.6185430000000  0.5184670000000 1.0
C      1  0.4543730000000  0.2604000000000  0.5173810000000 1.0
C      1  0.3017560000000  0.4645570000000  0.6011240000000 1.0
C      1  0.5474220000000  0.5859500000000  0.1948820000000 1.0
C      1  0.4602790000000  0.5010160000000  0.4356800000000 1.0
C      1  0.4140530000000  0.3458360000000  0.5654810000000 1.0
END
