TITL C-3036480-97-1025 0.0293590159664556 3375 -331.343794851713 0 0 60 (C1) n - 1
REM
REM in /home/bkarasulu/work/CARBON/AIRSS/Generating-Clusters/REBO/Higher-Symm/Only-C60
REM
REM
REM
REM
REM
REM ./C.cell (a2850807a9bf4ad07a5b6933b78d9264)
REM AIRSS Version 0.9.1 bugfix July 2018 build 013d7b7c2542+ Fri, 06 Jul 2018 19:26:36 +0100
REM compiler GCC version 9.2.1 20190827 (Red Hat 9.2.1-1)
REM options -cpp -mtune=generic -march=x86-64 -g -O0 -fpre-include=/usr/include/finclude/math-vector-fortran.h
REM seed 1269281056 -1170911718 1681340035 -1382204617 -1532027673 1658903169 132373733 727625128 557127077 1216852263 -1518917929 2047830208 2055077378 42339536 1865777097 -1301708333 -393810802 1284467663 -904650430 -45412697 -1208739394 1638926732 -1071935344 -137914935 -1214723027 -1172755278 -2068074187 1329745649 156773229 -498025030 1729570948 -1879482722 2059310157
REM
CELL 1.54180   15.00000   15.00000   15.00000   90.00000   90.00000   90.00000
LATT -1
SFAC C  
C      1  0.5160350000000  0.7120640000000  0.4159510000000 1.0
C      1  0.5154540000000  0.2881650000000  0.4149530000000 1.0
C      1  0.2278960000000  0.4152350000000  0.5225660000000 1.0
C      1  0.2265060000000  0.5843850000000  0.5217140000000 1.0
C      1  0.5282190000000  0.5602540000000  0.7124270000000 1.0
C      1  0.5369670000000  0.4454800000000  0.7113790000000 1.0
C      1  0.6478540000000  0.3496970000000  0.5174170000000 1.0
C      1  0.6461480000000  0.6464470000000  0.5206780000000 1.0
C      1  0.4633130000000  0.3177260000000  0.5589270000000 1.0
C      1  0.4619290000000  0.6831510000000  0.5576750000000 1.0
C      1  0.6401580000000  0.4453210000000  0.6992950000000 1.0
C      1  0.6256970000000  0.5431120000000  0.6982240000000 1.0
C      1  0.4510820000000  0.5525740000000  0.6033280000000 1.0
C      1  0.4557850000000  0.4534660000000  0.6005230000000 1.0
C      1  0.3918790000000  0.6583390000000  0.3356950000000 1.0
C      1  0.3902340000000  0.3421660000000  0.3368360000000 1.0
C      1  0.7517040000000  0.4596110000000  0.5893460000000 1.0
C      1  0.7497780000000  0.5436150000000  0.5946270000000 1.0
C      1  0.5077840000000  0.6472870000000  0.6771970000000 1.0
C      1  0.5115150000000  0.3588720000000  0.6756230000000 1.0
C      1  0.5549300000000  0.4193840000000  0.4476270000000 1.0
C      1  0.5549400000000  0.5791760000000  0.4498280000000 1.0
C      1  0.2843400000000  0.4529000000000  0.5912320000000 1.0
C      1  0.2825900000000  0.5484310000000  0.5915050000000 1.0
C      1  0.6455600000000  0.7143980000000  0.4372820000000 1.0
C      1  0.6448710000000  0.2818400000000  0.4345930000000 1.0
C      1  0.4180320000000  0.6861760000000  0.6629090000000 1.0
C      1  0.4210880000000  0.3208790000000  0.6648690000000 1.0
C      1  0.6558140000000  0.5867280000000  0.6099630000000 1.0
C      1  0.6608750000000  0.4104660000000  0.6048010000000 1.0
C      1  0.6611460000000  0.4468640000000  0.4637690000000 1.0
C      1  0.6611260000000  0.5515330000000  0.4647120000000 1.0
C      1  0.5575280000000  0.5554620000000  0.5611940000000 1.0
C      1  0.5618230000000  0.4427490000000  0.5586360000000 1.0
C      1  0.3636250000000  0.6792800000000  0.5023650000000 1.0
C      1  0.3650440000000  0.3209850000000  0.5040610000000 1.0
C      1  0.4612490000000  0.4015060000000  0.4824770000000 1.0
C      1  0.4599820000000  0.5986020000000  0.4822000000000 1.0
C      1  0.5179490000000  0.5421990000000  0.2518850000000 1.0
C      1  0.5178330000000  0.4585710000000  0.2510840000000 1.0
C      1  0.5696800000000  0.3141210000000  0.5917570000000 1.0
C      1  0.5673310000000  0.6846650000000  0.5928290000000 1.0
C      1  0.5149960000000  0.5935490000000  0.3446740000000 1.0
C      1  0.5153200000000  0.4058840000000  0.3428030000000 1.0
C      1  0.5632960000000  0.7476910000000  0.5005400000000 1.0
C      1  0.5618190000000  0.2508700000000  0.4993310000000 1.0
C      1  0.3754830000000  0.4426430000000  0.4369640000000 1.0
C      1  0.3746390000000  0.5561530000000  0.4369820000000 1.0
C      1  0.4124870000000  0.4484720000000  0.3320500000000 1.0
C      1  0.4123000000000  0.5515810000000  0.3325120000000 1.0
C      1  0.6427980000000  0.4422970000000  0.3515650000000 1.0
C      1  0.6420630000000  0.5558190000000  0.3527480000000 1.0
C      1  0.5996400000000  0.6614190000000  0.3553950000000 1.0
C      1  0.5994260000000  0.3370110000000  0.3533150000000 1.0
C      1  0.4227150000000  0.7032840000000  0.4096920000000 1.0
C      1  0.4221770000000  0.2972300000000  0.4102160000000 1.0
C      1  0.3702060000000  0.4087200000000  0.5791950000000 1.0
C      1  0.3670170000000  0.5946130000000  0.5808390000000 1.0
C      1  0.2856450000000  0.3829540000000  0.4580520000000 1.0
C      1  0.2846830000000  0.6159260000000  0.4571720000000 1.0
END
