TITL C-3036482-790-71 -2.95800589795137e-06 3375 -343.584143365723 0 0 60 (Th) n - 1
REM
REM in /home/bkarasulu/work/CARBON/AIRSS/Generating-Clusters/REBO/Higher-Symm/Only-C60
REM
REM
REM
REM
REM
REM ./C.cell (a2850807a9bf4ad07a5b6933b78d9264)
REM AIRSS Version 0.9.1 bugfix July 2018 build 013d7b7c2542+ Fri, 06 Jul 2018 19:26:36 +0100
REM compiler GCC version 9.2.1 20190827 (Red Hat 9.2.1-1)
REM options -cpp -mtune=generic -march=x86-64 -g -O0 -fpre-include=/usr/include/finclude/math-vector-fortran.h
REM seed 2027691899 1608870025 -1823781536 1112673113 1531512222 2142429598 -1363155288 1619482194 -1305975903 1473682337 156395308 1072135317 665589040 770119422 -1011981099 590356685 2038491797 -691257161 832287699 770247312 1908456700 85035321 2142463408 -907182785 -1768014365 -773021012 -1279406627 -1226259264 -1619154199 -1922821758 -687609368 -1704106107 -1042616647
REM
CELL 1.54180   15.00000   15.00000   15.00000   90.00000   90.00000   90.00000
LATT -1
SFAC C  
C      1  0.5476170000000  0.7382810000000  0.4334240000000 1.0
C      1  0.7382810000000  0.4334240000000  0.5476170000000 1.0
C      1  0.4334240000000  0.5476170000000  0.7382810000000 1.0
C      1  0.4523830000000  0.7382810000000  0.5665760000000 1.0
C      1  0.4523830000000  0.2617190000000  0.4334240000000 1.0
C      1  0.5476170000000  0.2617190000000  0.5665760000000 1.0
C      1  0.2617190000000  0.4334240000000  0.4523830000000 1.0
C      1  0.2617190000000  0.5665760000000  0.5476170000000 1.0
C      1  0.7382810000000  0.5665760000000  0.4523830000000 1.0
C      1  0.5665760000000  0.5476170000000  0.2617190000000 1.0
C      1  0.5665760000000  0.4523830000000  0.7382810000000 1.0
C      1  0.4334240000000  0.4523830000000  0.2617190000000 1.0
C      1  0.5476170000000  0.2617190000000  0.4334240000000 1.0
C      1  0.7382810000000  0.5665760000000  0.5476170000000 1.0
C      1  0.4334240000000  0.4523830000000  0.7382810000000 1.0
C      1  0.4523830000000  0.2617190000000  0.5665760000000 1.0
C      1  0.4523830000000  0.7382810000000  0.4334240000000 1.0
C      1  0.5476170000000  0.7382810000000  0.5665760000000 1.0
C      1  0.2617190000000  0.5665760000000  0.4523830000000 1.0
C      1  0.2617190000000  0.4334240000000  0.5476170000000 1.0
C      1  0.7382810000000  0.4334240000000  0.4523830000000 1.0
C      1  0.5665760000000  0.4523830000000  0.2617190000000 1.0
C      1  0.5665760000000  0.5476170000000  0.7382810000000 1.0
C      1  0.4334240000000  0.5476170000000  0.2617190000000 1.0
C      1  0.6424290000000  0.4466710000000  0.4153180000000 1.0
C      1  0.4466710000000  0.4153180000000  0.6424290000000 1.0
C      1  0.4153180000000  0.6424290000000  0.4466710000000 1.0
C      1  0.3575710000000  0.4466710000000  0.5846820000000 1.0
C      1  0.3575710000000  0.5533290000000  0.4153180000000 1.0
C      1  0.6424290000000  0.5533290000000  0.5846820000000 1.0
C      1  0.5533290000000  0.4153180000000  0.3575710000000 1.0
C      1  0.5533290000000  0.5846820000000  0.6424290000000 1.0
C      1  0.4466710000000  0.5846820000000  0.3575710000000 1.0
C      1  0.5846820000000  0.6424290000000  0.5533290000000 1.0
C      1  0.5846820000000  0.3575710000000  0.4466710000000 1.0
C      1  0.4153180000000  0.3575710000000  0.5533290000000 1.0
C      1  0.6424290000000  0.5533290000000  0.4153180000000 1.0
C      1  0.4466710000000  0.5846820000000  0.6424290000000 1.0
C      1  0.4153180000000  0.3575710000000  0.4466710000000 1.0
C      1  0.3575710000000  0.5533290000000  0.5846820000000 1.0
C      1  0.3575710000000  0.4466710000000  0.4153180000000 1.0
C      1  0.6424290000000  0.4466710000000  0.5846820000000 1.0
C      1  0.5533290000000  0.5846820000000  0.3575710000000 1.0
C      1  0.5533290000000  0.4153180000000  0.6424290000000 1.0
C      1  0.4466710000000  0.4153180000000  0.3575710000000 1.0
C      1  0.5846820000000  0.3575710000000  0.5533290000000 1.0
C      1  0.5846820000000  0.6424290000000  0.4466710000000 1.0
C      1  0.4153180000000  0.6424290000000  0.5533290000000 1.0
C      1  0.5897310000000  0.1964690000000  0.5000000000000 1.0
C      1  0.1964690000000  0.5000000000000  0.5897310000000 1.0
C      1  0.5000000000000  0.5897310000000  0.1964690000000 1.0
C      1  0.4102690000000  0.8035310000000  0.5000000000000 1.0
C      1  0.8035310000000  0.5000000000000  0.4102690000000 1.0
C      1  0.8035310000000  0.5000000000000  0.5897310000000 1.0
C      1  0.1964690000000  0.5000000000000  0.4102690000000 1.0
C      1  0.5000000000000  0.4102690000000  0.8035310000000 1.0
C      1  0.4102690000000  0.1964690000000  0.5000000000000 1.0
C      1  0.5897310000000  0.8035310000000  0.5000000000000 1.0
C      1  0.5000000000000  0.5897310000000  0.8035310000000 1.0
C      1  0.5000000000000  0.4102690000000  0.1964690000000 1.0
END
