TITL C-3036479-9801-737 0.0158840384296743 3375 -337.156862636819 0 0 60 (Cs) n - 1
REM
REM in /home/bkarasulu/work/CARBON/AIRSS/Generating-Clusters/REBO/Higher-Symm/Only-C60
REM
REM
REM
REM
REM
REM ./C.cell (a2850807a9bf4ad07a5b6933b78d9264)
REM AIRSS Version 0.9.1 bugfix July 2018 build 013d7b7c2542+ Fri, 06 Jul 2018 19:26:36 +0100
REM compiler GCC version 9.2.1 20190827 (Red Hat 9.2.1-1)
REM options -cpp -mtune=generic -march=x86-64 -g -O0 -fpre-include=/usr/include/finclude/math-vector-fortran.h
REM seed 281869206 -1400535841 -283573348 -1593697834 -2007587571 -1488384923 212169445 872806076 -1283691960 852802365 2144973409 -786486317 -1330115599 1512775450 1902781642 -511242919 -1287051525 107940379 -435966802 -355260769 1666267858 -1627106592 -1170094790 -440543397 748283127 2131882860 1703895286 383619578 -2139232951 -736058773 326920455 159181710 588124024
REM
CELL 1.54180   15.00000   15.00000   15.00000   90.00000   90.00000   90.00000
LATT -1
SFAC C  
C      1  0.4010400000000  0.5548280000000  0.5451730000000 1.0
C      1  0.4010560000000  0.5548050000000  0.4548480000000 1.0
C      1  0.3169190000000  0.5572360000000  0.4101050000000 1.0
C      1  0.3168820000000  0.5572170000000  0.5899070000000 1.0
C      1  0.6273780000000  0.6805830000000  0.5570290000000 1.0
C      1  0.6272860000000  0.6805920000000  0.4429200000000 1.0
C      1  0.6743860000000  0.4576590000000  0.3543250000000 1.0
C      1  0.6743890000000  0.4576680000000  0.6456990000000 1.0
C      1  0.4246230000000  0.6948980000000  0.3826180000000 1.0
C      1  0.4246240000000  0.6949440000000  0.6173810000000 1.0
C      1  0.3210090000000  0.6481190000000  0.3799340000000 1.0
C      1  0.3210340000000  0.6481250000000  0.6200810000000 1.0
C      1  0.7072480000000  0.3689510000000  0.4477450000000 1.0
C      1  0.7072770000000  0.3690570000000  0.5521920000000 1.0
C      1  0.4895500000000  0.5812350000000  0.4140830000000 1.0
C      1  0.4895580000000  0.5811880000000  0.5859010000000 1.0
C      1  0.5687050000000  0.5223540000000  0.5502350000000 1.0
C      1  0.5686670000000  0.5223600000000  0.4497770000000 1.0
C      1  0.3418430000000  0.3252580000000  0.4120970000000 1.0
C      1  0.3418430000000  0.3252630000000  0.5878970000000 1.0
C      1  0.5064040000000  0.6685530000000  0.6850340000000 1.0
C      1  0.5063810000000  0.6685640000000  0.3149660000000 1.0
C      1  0.4164130000000  0.2785840000000  0.5507660000000 1.0
C      1  0.4164140000000  0.2785870000000  0.4492280000000 1.0
C      1  0.5588730000000  0.4284230000000  0.4131200000000 1.0
C      1  0.5588780000000  0.4284350000000  0.5868970000000 1.0
C      1  0.5150270000000  0.6785570000000  0.5526370000000 1.0
C      1  0.5150010000000  0.6786360000000  0.4472980000000 1.0
C      1  0.4566340000000  0.5259530000000  0.3318420000000 1.0
C      1  0.4566580000000  0.5259540000000  0.6681460000000 1.0
C      1  0.6590140000000  0.3443200000000  0.3636940000000 1.0
C      1  0.6590290000000  0.3443380000000  0.6362470000000 1.0
C      1  0.5715560000000  0.3098200000000  0.6436150000000 1.0
C      1  0.5715390000000  0.3098240000000  0.3563470000000 1.0
C      1  0.3425640000000  0.7222390000000  0.4543830000000 1.0
C      1  0.3425510000000  0.7222280000000  0.5456010000000 1.0
C      1  0.3666990000000  0.4270070000000  0.5547820000000 1.0
C      1  0.3666900000000  0.4269970000000  0.4452050000000 1.0
C      1  0.7216400000000  0.6170370000000  0.4490200000000 1.0
C      1  0.7217330000000  0.6169510000000  0.5510970000000 1.0
C      1  0.2587350000000  0.4758060000000  0.4450990000000 1.0
C      1  0.2587090000000  0.4757660000000  0.5548930000000 1.0
C      1  0.5800030000000  0.4306520000000  0.3011650000000 1.0
C      1  0.5800210000000  0.4306210000000  0.6988540000000 1.0
C      1  0.4243980000000  0.4390750000000  0.3585970000000 1.0
C      1  0.4244050000000  0.4391030000000  0.6414080000000 1.0
C      1  0.5891370000000  0.6404030000000  0.6563350000000 1.0
C      1  0.5891270000000  0.6403360000000  0.3435770000000 1.0
C      1  0.5120780000000  0.3317220000000  0.4463150000000 1.0
C      1  0.5120790000000  0.3317250000000  0.5536760000000 1.0
C      1  0.7339850000000  0.4732500000000  0.4496430000000 1.0
C      1  0.7340810000000  0.4733600000000  0.5504730000000 1.0
C      1  0.6515290000000  0.5603330000000  0.6082250000000 1.0
C      1  0.6515470000000  0.5603670000000  0.3918610000000 1.0
C      1  0.4851290000000  0.3697940000000  0.6783480000000 1.0
C      1  0.4851200000000  0.3698020000000  0.3216490000000 1.0
C      1  0.2541980000000  0.3728540000000  0.5982820000000 1.0
C      1  0.2541810000000  0.3728450000000  0.4017160000000 1.0
C      1  0.5232530000000  0.5144190000000  0.7332190000000 1.0
C      1  0.5232710000000  0.5144200000000  0.2667920000000 1.0
END
