TITL C-3036486-2224-438 -0.00199535415479148 3375 -344.97378208774 0 0 60 (Ci) n - 1
REM
REM in /home/bkarasulu/work/CARBON/AIRSS/Generating-Clusters/REBO/Higher-Symm/Only-C60
REM
REM
REM
REM
REM
REM ./C.cell (a2850807a9bf4ad07a5b6933b78d9264)
REM AIRSS Version 0.9.1 bugfix July 2018 build 013d7b7c2542+ Fri, 06 Jul 2018 19:26:36 +0100
REM compiler GCC version 9.2.1 20190827 (Red Hat 9.2.1-1)
REM options -cpp -mtune=generic -march=x86-64 -g -O0 -fpre-include=/usr/include/finclude/math-vector-fortran.h
REM seed -1455525355 -842177976 -1754356981 -1443939102 172149235 -2131641085 -709509719 -9069556 -2040774754 1452505971 785517925 878704064 -1359658468 727939832 304749601 -377188339 -2104088678 -708973144 -1349885807 2632944 1958518458 -198197768 1103625999 239413421 -239700645 179556579 1146606130 2014117940 -2053723920 989334513 387030009 990767988 -378436870
REM
CELL 1.54180   15.00000   15.00000   15.00000   90.00000   90.00000   90.00000
LATT -1
SFAC C  
C      1  0.4436640000000  0.3832440000000  0.4963410000000 1.0
C      1  0.4501000000000  0.6300890000000  0.4980120000000 1.0
C      1  0.5499070000000  0.3698540000000  0.5020100000000 1.0
C      1  0.5563450000000  0.6166990000000  0.5036760000000 1.0
C      1  0.3441370000000  0.3799950000000  0.3413440000000 1.0
C      1  0.3449430000000  0.6230040000000  0.6532460000000 1.0
C      1  0.6550430000000  0.3770100000000  0.3466930000000 1.0
C      1  0.6558470000000  0.6200220000000  0.6585880000000 1.0
C      1  0.2658660000000  0.6123720000000  0.4719850000000 1.0
C      1  0.2769070000000  0.3880010000000  0.5267850000000 1.0
C      1  0.7231130000000  0.6119920000000  0.4731810000000 1.0
C      1  0.7340900000000  0.3876270000000  0.5279850000000 1.0
C      1  0.6904510000000  0.4122470000000  0.6300760000000 1.0
C      1  0.6883740000000  0.5856450000000  0.3680120000000 1.0
C      1  0.3116430000000  0.4143630000000  0.6319570000000 1.0
C      1  0.3095300000000  0.5877730000000  0.3699010000000 1.0
C      1  0.6057040000000  0.6278770000000  0.3084490000000 1.0
C      1  0.6061600000000  0.3659150000000  0.6842180000000 1.0
C      1  0.3938370000000  0.6341340000000  0.3157870000000 1.0
C      1  0.3943100000000  0.3721850000000  0.6915280000000 1.0
C      1  0.5560790000000  0.4477540000000  0.7240500000000 1.0
C      1  0.5503170000000  0.5438790000000  0.2864180000000 1.0
C      1  0.4496760000000  0.4561540000000  0.7136780000000 1.0
C      1  0.4439140000000  0.5523270000000  0.2759950000000 1.0
C      1  0.3070820000000  0.4903920000000  0.3481890000000 1.0
C      1  0.3070270000000  0.5128390000000  0.6515070000000 1.0
C      1  0.6929700000000  0.4871600000000  0.3484610000000 1.0
C      1  0.6929100000000  0.5096320000000  0.6517830000000 1.0
C      1  0.4605260000000  0.2857900000000  0.5533970000000 1.0
C      1  0.4341150000000  0.7359850000000  0.4551080000000 1.0
C      1  0.5658960000000  0.2639760000000  0.5449500000000 1.0
C      1  0.5394740000000  0.7141720000000  0.4466460000000 1.0
C      1  0.3027210000000  0.5755200000000  0.5590920000000 1.0
C      1  0.3049010000000  0.4242610000000  0.4382100000000 1.0
C      1  0.6951240000000  0.5757450000000  0.5617460000000 1.0
C      1  0.6972890000000  0.4244600000000  0.4408610000000 1.0
C      1  0.5549980000000  0.5021330000000  0.3926430000000 1.0
C      1  0.5384310000000  0.4894010000000  0.6201820000000 1.0
C      1  0.4615650000000  0.5105610000000  0.3798760000000 1.0
C      1  0.4450230000000  0.4978250000000  0.6073950000000 1.0
C      1  0.3573230000000  0.6620460000000  0.4404020000000 1.0
C      1  0.3661980000000  0.3400300000000  0.5656910000000 1.0
C      1  0.6337920000000  0.6599340000000  0.4343130000000 1.0
C      1  0.6426930000000  0.3379050000000  0.5596230000000 1.0
C      1  0.4049650000000  0.4726110000000  0.4543420000000 1.0
C      1  0.4010890000000  0.5415860000000  0.5305060000000 1.0
C      1  0.5988960000000  0.4583710000000  0.4695350000000 1.0
C      1  0.5950690000000  0.5273280000000  0.5456560000000 1.0
C      1  0.5418940000000  0.3817430000000  0.3372880000000 1.0
C      1  0.5429980000000  0.6134020000000  0.6683550000000 1.0
C      1  0.4569910000000  0.3865900000000  0.3316170000000 1.0
C      1  0.4580920000000  0.6182600000000  0.6626700000000 1.0
C      1  0.6093390000000  0.5381880000000  0.7214410000000 1.0
C      1  0.6078510000000  0.4547870000000  0.2806260000000 1.0
C      1  0.3921240000000  0.5452450000000  0.7193500000000 1.0
C      1  0.3906770000000  0.4618550000000  0.2785640000000 1.0
C      1  0.4479330000000  0.3002350000000  0.6631690000000 1.0
C      1  0.4501720000000  0.7035610000000  0.3489220000000 1.0
C      1  0.5498270000000  0.2964940000000  0.6511100000000 1.0
C      1  0.5520710000000  0.6998150000000  0.3368590000000 1.0
END
