TITL C-3036483-1610-756 -0.339182176528638 3375 -347.849315375006 0 0 60 (C1) n - 1
REM
REM in /home/bkarasulu/work/CARBON/AIRSS/Generating-Clusters/REBO/Higher-Symm/Only-C60
REM
REM
REM
REM
REM
REM ./C.cell (a2850807a9bf4ad07a5b6933b78d9264)
REM AIRSS Version 0.9.1 bugfix July 2018 build 013d7b7c2542+ Fri, 06 Jul 2018 19:26:36 +0100
REM compiler GCC version 9.2.1 20190827 (Red Hat 9.2.1-1)
REM options -cpp -mtune=generic -march=x86-64 -g -O0 -fpre-include=/usr/include/finclude/math-vector-fortran.h
REM seed -834048026 1901912425 -1223812083 -120343579 1649316520 1695883326 -1211270197 -1319111722 -51390238 10183935 1874840902 -125211285 1526453020 405897077 -1493184356 -1705345857 -66079720 1995182244 1376896622 -1934924596 -1103839214 -1037482476 -1914233969 -2058090611 1856430861 -1564356659 1510534896 -1249094634 1958744094 905033885 -126058680 -1453789137 -674109693
REM
CELL 1.54180   15.00000   15.00000   15.00000   90.00000   90.00000   90.00000
LATT -1
SFAC C  
C      1  0.4795150000000  0.7238990000000  0.4823270000000 1.0
C      1  0.7007940000000  0.5756260000000  0.4764990000000 1.0
C      1  0.5974760000000  0.3611430000000  0.4875620000000 1.0
C      1  0.3926860000000  0.3599750000000  0.5008690000000 1.0
C      1  0.2861370000000  0.5486410000000  0.4917440000000 1.0
C      1  0.5600780000000  0.3683730000000  0.3983010000000 1.0
C      1  0.4103840000000  0.3854360000000  0.4043520000000 1.0
C      1  0.2962820000000  0.5737660000000  0.4025280000000 1.0
C      1  0.5089190000000  0.7113020000000  0.3954170000000 1.0
C      1  0.6980930000000  0.5429390000000  0.3901100000000 1.0
C      1  0.4159460000000  0.3665510000000  0.2923080000000 1.0
C      1  0.3355390000000  0.5271900000000  0.3172660000000 1.0
C      1  0.4742510000000  0.6512480000000  0.3183920000000 1.0
C      1  0.6384730000000  0.5639690000000  0.3090070000000 1.0
C      1  0.5909510000000  0.3938540000000  0.2932440000000 1.0
C      1  0.7313920000000  0.4480890000000  0.3802080000000 1.0
C      1  0.5167760000000  0.2714980000000  0.3860270000000 1.0
C      1  0.2987240000000  0.3882960000000  0.4015240000000 1.0
C      1  0.3181770000000  0.6722630000000  0.3906190000000 1.0
C      1  0.6090390000000  0.7178910000000  0.3841040000000 1.0
C      1  0.3142790000000  0.5821540000000  0.5843500000000 1.0
C      1  0.5129360000000  0.7190560000000  0.5782460000000 1.0
C      1  0.7054460000000  0.5446120000000  0.5736270000000 1.0
C      1  0.5871960000000  0.3240420000000  0.5814110000000 1.0
C      1  0.3657760000000  0.3699820000000  0.5969120000000 1.0
C      1  0.4485120000000  0.3438590000000  0.6473450000000 1.0
C      1  0.3294690000000  0.4981200000000  0.6429210000000 1.0
C      1  0.4350140000000  0.6757780000000  0.6300200000000 1.0
C      1  0.6468110000000  0.6120610000000  0.6254770000000 1.0
C      1  0.6385340000000  0.3958030000000  0.6335070000000 1.0
C      1  0.6613360000000  0.4569040000000  0.2963450000000 1.0
C      1  0.5054370000000  0.3234470000000  0.2871360000000 1.0
C      1  0.3311940000000  0.4320870000000  0.3096640000000 1.0
C      1  0.3833190000000  0.6254420000000  0.3171960000000 1.0
C      1  0.5835610000000  0.6409530000000  0.3117910000000 1.0
C      1  0.2605490000000  0.3875580000000  0.4876320000000 1.0
C      1  0.3174730000000  0.7202020000000  0.4719420000000 1.0
C      1  0.6553930000000  0.7327010000000  0.4648800000000 1.0
C      1  0.7514650000000  0.4083010000000  0.4636240000000 1.0
C      1  0.4983660000000  0.2391610000000  0.4750200000000 1.0
C      1  0.6854050000000  0.3966030000000  0.5307390000000 1.0
C      1  0.4614630000000  0.2943310000000  0.5457770000000 1.0
C      1  0.2808510000000  0.4594680000000  0.5473950000000 1.0
C      1  0.3881800000000  0.7090420000000  0.5339360000000 1.0
C      1  0.6658720000000  0.6621290000000  0.5262980000000 1.0
C      1  0.4619080000000  0.5946810000000  0.6815920000000 1.0
C      1  0.5731920000000  0.5708240000000  0.6772000000000 1.0
C      1  0.5762920000000  0.4573920000000  0.6806310000000 1.0
C      1  0.4794070000000  0.4186220000000  0.7101050000000 1.0
C      1  0.4057600000000  0.5049540000000  0.7106250000000 1.0
C      1  0.4917180000000  0.4754510000000  0.2583010000000 1.0
C      1  0.4924900000000  0.4510950000000  0.3611590000000 1.0
C      1  0.4755070000000  0.5160040000000  0.5223560000000 1.0
C      1  0.4996160000000  0.5114550000000  0.6166270000000 1.0
C      1  0.4423960000000  0.4610030000000  0.8087330000000 1.0
C      1  0.4872870000000  0.4850720000000  0.1682530000000 1.0
C      1  0.4731300000000  0.5123580000000  0.4418740000000 1.0
C      1  0.4785350000000  0.4862200000000  0.0771168000000 1.0
C      1  0.4665440000000  0.4801740000000  0.9865270000000 1.0
C      1  0.4530280000000  0.4697620000000  0.8965150000000 1.0
END
