TITL C-3036482-790-118 0.0250884479051691 3375 -338.794470424306 0 0 60 (Cs) n - 1
REM
REM in /home/bkarasulu/work/CARBON/AIRSS/Generating-Clusters/REBO/Higher-Symm/Only-C60
REM
REM
REM
REM
REM
REM ./C.cell (a2850807a9bf4ad07a5b6933b78d9264)
REM AIRSS Version 0.9.1 bugfix July 2018 build 013d7b7c2542+ Fri, 06 Jul 2018 19:26:36 +0100
REM compiler GCC version 9.2.1 20190827 (Red Hat 9.2.1-1)
REM options -cpp -mtune=generic -march=x86-64 -g -O0 -fpre-include=/usr/include/finclude/math-vector-fortran.h
REM seed 41114920 -1640645172 998485971 -1006208270 -795830207 -2076970012 -126446670 -1246382326 -1070511946 824142302 1347196909 1046604997 779658554 -220122600 1838728299 -1418356314 548135062 949392258 -403619764 -17627338 995849642 -742970427 -1004921661 -1495830131 -8136572 1491620495 -1236582710 -1667482011 -2022256329 2096843430 -2081587215 -633015909 -120452712
REM
CELL 1.54180   15.00000   15.00000   15.00000   90.00000   90.00000   90.00000
LATT -1
SFAC C  
C      1  0.4596510000000  0.4112310000000  0.3685070000000 1.0
C      1  0.5404230000000  0.5891000000000  0.3708810000000 1.0
C      1  0.5403320000000  0.4112290000000  0.3685200000000 1.0
C      1  0.4596050000000  0.5891230000000  0.3708790000000 1.0
C      1  0.7253980000000  0.3202150000000  0.4710660000000 1.0
C      1  0.2755270000000  0.6837240000000  0.4751100000000 1.0
C      1  0.2745020000000  0.3202190000000  0.4710300000000 1.0
C      1  0.7245210000000  0.6837610000000  0.4750600000000 1.0
C      1  0.5490160000000  0.7235510000000  0.3886680000000 1.0
C      1  0.4504220000000  0.2751830000000  0.3873560000000 1.0
C      1  0.4504050000000  0.7239190000000  0.3882240000000 1.0
C      1  0.5490650000000  0.2754880000000  0.3878530000000 1.0
C      1  0.2639890000000  0.5491960000000  0.5598080000000 1.0
C      1  0.7354950000000  0.4531680000000  0.5570490000000 1.0
C      1  0.7360520000000  0.5491800000000  0.5598170000000 1.0
C      1  0.2645800000000  0.4531620000000  0.5570050000000 1.0
C      1  0.4451160000000  0.6637270000000  0.5994100000000 1.0
C      1  0.5550580000000  0.3369560000000  0.5982080000000 1.0
C      1  0.5545600000000  0.6633040000000  0.5991860000000 1.0
C      1  0.4455520000000  0.3372950000000  0.5975010000000 1.0
C      1  0.1997580000000  0.4430940000000  0.2916360000000 1.0
C      1  0.7983840000000  0.5349910000000  0.3034390000000 1.0
C      1  0.8002000000000  0.4431190000000  0.2916420000000 1.0
C      1  0.2016860000000  0.5349210000000  0.3035630000000 1.0
C      1  0.5569520000000  0.4484040000000  0.5782670000000 1.0
C      1  0.4431330000000  0.5521860000000  0.5801060000000 1.0
C      1  0.4432370000000  0.4488240000000  0.5782590000000 1.0
C      1  0.5568820000000  0.5517480000000  0.5802340000000 1.0
C      1  0.2313650000000  0.6018010000000  0.4865600000000 1.0
C      1  0.7665540000000  0.4032590000000  0.4812090000000 1.0
C      1  0.7687270000000  0.6018080000000  0.4865710000000 1.0
C      1  0.2334260000000  0.4032820000000  0.4811780000000 1.0
C      1  0.5521460000000  0.4476670000000  0.7394560000000 1.0
C      1  0.4479550000000  0.5521640000000  0.7406040000000 1.0
C      1  0.4474090000000  0.4471470000000  0.7394450000000 1.0
C      1  0.5524640000000  0.5526470000000  0.7407190000000 1.0
C      1  0.6019070000000  0.3873760000000  0.6871530000000 1.0
C      1  0.3986860000000  0.6135010000000  0.6889960000000 1.0
C      1  0.3981360000000  0.3870230000000  0.6866900000000 1.0
C      1  0.6014010000000  0.6137300000000  0.6887370000000 1.0
C      1  0.6384800000000  0.4430630000000  0.3907000000000 1.0
C      1  0.3606770000000  0.5568280000000  0.3924550000000 1.0
C      1  0.3614870000000  0.4430960000000  0.3906040000000 1.0
C      1  0.6393170000000  0.5567950000000  0.3925050000000 1.0
C      1  0.2499180000000  0.5595140000000  0.3966990000000 1.0
C      1  0.7482270000000  0.4497760000000  0.3924380000000 1.0
C      1  0.7501010000000  0.5594360000000  0.3966610000000 1.0
C      1  0.2516520000000  0.4497890000000  0.3923170000000 1.0
C      1  0.3376590000000  0.4143220000000  0.6040920000000 1.0
C      1  0.6622240000000  0.5862040000000  0.6067840000000 1.0
C      1  0.6626130000000  0.4143600000000  0.6043650000000 1.0
C      1  0.3377440000000  0.5862370000000  0.6069330000000 1.0
C      1  0.4435320000000  0.2976560000000  0.4996090000000 1.0
C      1  0.5562280000000  0.7017690000000  0.5008780000000 1.0
C      1  0.5564050000000  0.2977400000000  0.5000670000000 1.0
C      1  0.4441490000000  0.7017910000000  0.5006250000000 1.0
C      1  0.6314520000000  0.3369310000000  0.4309150000000 1.0
C      1  0.3678380000000  0.6632150000000  0.4325260000000 1.0
C      1  0.3684130000000  0.3368850000000  0.4306860000000 1.0
C      1  0.6322090000000  0.6631710000000  0.4325410000000 1.0
END
