TITL C-3036482-790-446 -5.49098233169081e-06 3375 -353.433442038374 0 0 60 (C1) n - 1
REM
REM in /home/bkarasulu/work/CARBON/AIRSS/Generating-Clusters/REBO/Higher-Symm/Only-C60
REM
REM
REM
REM
REM
REM ./C.cell (a2850807a9bf4ad07a5b6933b78d9264)
REM AIRSS Version 0.9.1 bugfix July 2018 build 013d7b7c2542+ Fri, 06 Jul 2018 19:26:36 +0100
REM compiler GCC version 9.2.1 20190827 (Red Hat 9.2.1-1)
REM options -cpp -mtune=generic -march=x86-64 -g -O0 -fpre-include=/usr/include/finclude/math-vector-fortran.h
REM seed -1510587980 -1027625261 -121491049 -1438690305 -284845758 738413444 649748457 1323693828 822883086 -230464174 -1806376070 -87270876 -1171152036 250745764 1634563578 2136591013 920444562 236898862 930418989 1160965358 -153805111 -556002709 1066175574 -784019368 488358352 1430422923 -1280399745 -1652421662 -450572332 840817591 2133961461 407621698 -293874328
REM
CELL 1.54180   15.00000   15.00000   15.00000   90.00000   90.00000   90.00000
LATT -1
SFAC C  
C      1  0.4614000000000  0.2775100000000  0.4226310000000 1.0
C      1  0.4500450000000  0.2842470000000  0.5285610000000 1.0
C      1  0.5480210000000  0.2860970000000  0.5681180000000 1.0
C      1  0.5641680000000  0.2763390000000  0.4607440000000 1.0
C      1  0.4371100000000  0.6146450000000  0.5177920000000 1.0
C      1  0.5233180000000  0.6170690000000  0.5863310000000 1.0
C      1  0.5652500000000  0.6074880000000  0.4827120000000 1.0
C      1  0.4781100000000  0.6021290000000  0.4146510000000 1.0
C      1  0.5337630000000  0.7185000000000  0.3231830000000 1.0
C      1  0.3362940000000  0.7177050000000  0.4729190000000 1.0
C      1  0.4674110000000  0.7274510000000  0.6808120000000 1.0
C      1  0.6673640000000  0.7188060000000  0.5278450000000 1.0
C      1  0.6315100000000  0.6785090000000  0.4501190000000 1.0
C      1  0.4515600000000  0.6829330000000  0.3537350000000 1.0
C      1  0.3711160000000  0.6825690000000  0.5552830000000 1.0
C      1  0.5512040000000  0.6956590000000  0.6477690000000 1.0
C      1  0.3627320000000  0.6661750000000  0.3962210000000 1.0
C      1  0.3912670000000  0.6763450000000  0.6504120000000 1.0
C      1  0.6417870000000  0.6730820000000  0.6083350000000 1.0
C      1  0.6081060000000  0.6670340000000  0.3556280000000 1.0
C      1  0.3457840000000  0.5673130000000  0.4076190000000 1.0
C      1  0.3959780000000  0.5778370000000  0.6768360000000 1.0
C      1  0.6523460000000  0.5721360000000  0.5988280000000 1.0
C      1  0.5952720000000  0.5679360000000  0.3379820000000 1.0
C      1  0.6558080000000  0.5057680000000  0.4071130000000 1.0
C      1  0.4099780000000  0.5052570000000  0.3414270000000 1.0
C      1  0.3443560000000  0.5146130000000  0.5977520000000 1.0
C      1  0.5874040000000  0.5122950000000  0.6702050000000 1.0
C      1  0.4400510000000  0.4012910000000  0.4665880000000 1.0
C      1  0.4804800000000  0.4095740000000  0.5722990000000 1.0
C      1  0.5675420000000  0.4015870000000  0.5041810000000 1.0
C      1  0.5303580000000  0.3903970000000  0.4008240000000 1.0
C      1  0.6034730000000  0.4059250000000  0.2881800000000 1.0
C      1  0.2888220000000  0.4071360000000  0.3967500000000 1.0
C      1  0.3914120000000  0.4102930000000  0.7158500000000 1.0
C      1  0.6952790000000  0.4073540000000  0.6023740000000 1.0
C      1  0.3670700000000  0.3412770000000  0.5603070000000 1.0
C      1  0.5590110000000  0.3381980000000  0.6521340000000 1.0
C      1  0.6502170000000  0.3318390000000  0.4274410000000 1.0
C      1  0.4305560000000  0.3282110000000  0.3399410000000 1.0
C      1  0.6624090000000  0.3583160000000  0.5274550000000 1.0
C      1  0.5261520000000  0.3435020000000  0.3016620000000 1.0
C      1  0.3449570000000  0.3563260000000  0.4599600000000 1.0
C      1  0.4629660000000  0.3621880000000  0.6685580000000 1.0
C      1  0.4337390000000  0.5056150000000  0.4932530000000 1.0
C      1  0.4776110000000  0.5147440000000  0.5948110000000 1.0
C      1  0.5620790000000  0.5049710000000  0.5277270000000 1.0
C      1  0.5214870000000  0.4969340000000  0.4233710000000 1.0
C      1  0.6848520000000  0.5373130000000  0.4925430000000 1.0
C      1  0.4905830000000  0.5347490000000  0.3007970000000 1.0
C      1  0.3082200000000  0.5394290000000  0.5133250000000 1.0
C      1  0.5028560000000  0.5443430000000  0.7164260000000 1.0
C      1  0.7283090000000  0.4937330000000  0.5784270000000 1.0
C      1  0.5776650000000  0.4929290000000  0.2583870000000 1.0
C      1  0.2637650000000  0.4942720000000  0.4273450000000 1.0
C      1  0.4142700000000  0.4963970000000  0.7511240000000 1.0
C      1  0.3769640000000  0.4115210000000  0.3430550000000 1.0
C      1  0.3522350000000  0.4184100000000  0.6206460000000 1.0
C      1  0.6183090000000  0.4158850000000  0.6628610000000 1.0
C      1  0.6578400000000  0.4118940000000  0.3698330000000 1.0
END
