TITL C-3036486-2224-445 -2.61625149945474e-05 3375 -342.942396642026 0 0 60 (D2) n - 1
REM
REM in /home/bkarasulu/work/CARBON/AIRSS/Generating-Clusters/REBO/Higher-Symm/Only-C60
REM
REM
REM
REM
REM
REM ./C.cell (a2850807a9bf4ad07a5b6933b78d9264)
REM AIRSS Version 0.9.1 bugfix July 2018 build 013d7b7c2542+ Fri, 06 Jul 2018 19:26:36 +0100
REM compiler GCC version 9.2.1 20190827 (Red Hat 9.2.1-1)
REM options -cpp -mtune=generic -march=x86-64 -g -O0 -fpre-include=/usr/include/finclude/math-vector-fortran.h
REM seed -159048899 -863611298 2065025305 -1797008262 -1121250570 1632686025 1979163395 1352972273 -2132176970 -2125321335 -1368093905 1461864588 1830039943 -1291207628 -1302959949 -440579356 1693867633 336179365 -130173596 1586395911 152088147 368046129 -1111782344 876137042 -1650762373 -1092062195 1438629661 -720608869 2087853256 1693224413 -1647857480 1157746180 89734534
REM
CELL 1.54180   15.00000   15.00000   15.00000   90.00000   90.00000   90.00000
LATT -1
SFAC C  
C      1  0.7292070000000  0.4018250000000  0.5501210000000 1.0
C      1  0.4302350000000  0.4142470000000  0.7669140000000 1.0
C      1  0.2707940000000  0.4018240000000  0.4498780000000 1.0
C      1  0.5697660000000  0.4142480000000  0.2330860000000 1.0
C      1  0.2707920000000  0.6001800000000  0.5501150000000 1.0
C      1  0.5697580000000  0.5877570000000  0.7669160000000 1.0
C      1  0.7292070000000  0.6001800000000  0.4498850000000 1.0
C      1  0.4302410000000  0.5877570000000  0.2330840000000 1.0
C      1  0.4115250000000  0.3552040000000  0.3753390000000 1.0
C      1  0.6406690000000  0.3643310000000  0.3742630000000 1.0
C      1  0.5884760000000  0.3552040000000  0.6246600000000 1.0
C      1  0.3593320000000  0.3643300000000  0.6257360000000 1.0
C      1  0.5884780000000  0.6468010000000  0.3753420000000 1.0
C      1  0.3593350000000  0.6376740000000  0.3742600000000 1.0
C      1  0.4115210000000  0.6468000000000  0.6246580000000 1.0
C      1  0.6406640000000  0.6376740000000  0.6257400000000 1.0
C      1  0.4896330000000  0.3770790000000  0.6070220000000 1.0
C      1  0.4072240000000  0.3932070000000  0.5300660000000 1.0
C      1  0.5103680000000  0.3770790000000  0.3929780000000 1.0
C      1  0.5927770000000  0.3932070000000  0.4699340000000 1.0
C      1  0.5103640000000  0.6249250000000  0.6070220000000 1.0
C      1  0.5927750000000  0.6087980000000  0.5300680000000 1.0
C      1  0.4896350000000  0.6249260000000  0.3929780000000 1.0
C      1  0.4072240000000  0.6087980000000  0.4699320000000 1.0
C      1  0.6458660000000  0.3501260000000  0.5491210000000 1.0
C      1  0.4280350000000  0.3482590000000  0.6972420000000 1.0
C      1  0.3541350000000  0.3501260000000  0.4508790000000 1.0
C      1  0.5719660000000  0.3482590000000  0.3027570000000 1.0
C      1  0.3541320000000  0.6518780000000  0.5491180000000 1.0
C      1  0.5719600000000  0.6537450000000  0.6972440000000 1.0
C      1  0.6458670000000  0.6518780000000  0.4508830000000 1.0
C      1  0.4280400000000  0.6537460000000  0.3027560000000 1.0
C      1  0.4503120000000  0.5183730000000  0.3822250000000 1.0
C      1  0.6107420000000  0.5241530000000  0.4529430000000 1.0
C      1  0.5496880000000  0.5183730000000  0.6177750000000 1.0
C      1  0.3892580000000  0.5241530000000  0.5470580000000 1.0
C      1  0.5496910000000  0.4836310000000  0.3822260000000 1.0
C      1  0.3892600000000  0.4778520000000  0.4529400000000 1.0
C      1  0.4503090000000  0.4836310000000  0.6177740000000 1.0
C      1  0.6107410000000  0.4778520000000  0.5470600000000 1.0
C      1  0.7115030000000  0.4175070000000  0.3530890000000 1.0
C      1  0.6203800000000  0.3960750000000  0.7008870000000 1.0
C      1  0.2884970000000  0.4175060000000  0.6469110000000 1.0
C      1  0.3796210000000  0.3960750000000  0.2991130000000 1.0
C      1  0.2885010000000  0.5844980000000  0.3530840000000 1.0
C      1  0.3796150000000  0.6059300000000  0.7008840000000 1.0
C      1  0.7114990000000  0.5844980000000  0.6469160000000 1.0
C      1  0.6203850000000  0.6059300000000  0.2991160000000 1.0
C      1  0.7105200000000  0.5041150000000  0.4018800000000 1.0
C      1  0.5856300000000  0.4911750000000  0.7153800000000 1.0
C      1  0.2894800000000  0.5041140000000  0.5981200000000 1.0
C      1  0.4143700000000  0.4911750000000  0.2846200000000 1.0
C      1  0.2894830000000  0.4978900000000  0.4018740000000 1.0
C      1  0.4143640000000  0.5108290000000  0.7153780000000 1.0
C      1  0.7105170000000  0.4978900000000  0.5981260000000 1.0
C      1  0.5856350000000  0.5108300000000  0.2846220000000 1.0
C      1  0.4999960000000  0.5010020000000  0.7840980000000 1.0
C      1  0.5000040000000  0.5010030000000  0.2159020000000 1.0
C      1  0.2430870000000  0.5010020000000  0.4999970000000 1.0
C      1  0.7569130000000  0.5010030000000  0.5000030000000 1.0
END
