TITL C-3036479-9801-943 -1.30472702719581e-05 3375 -364.970547986496 0 0 60 (C1) n - 1
REM
REM in /home/bkarasulu/work/CARBON/AIRSS/Generating-Clusters/REBO/Higher-Symm/Only-C60
REM
REM
REM
REM
REM
REM ./C.cell (a2850807a9bf4ad07a5b6933b78d9264)
REM AIRSS Version 0.9.1 bugfix July 2018 build 013d7b7c2542+ Fri, 06 Jul 2018 19:26:36 +0100
REM compiler GCC version 9.2.1 20190827 (Red Hat 9.2.1-1)
REM options -cpp -mtune=generic -march=x86-64 -g -O0 -fpre-include=/usr/include/finclude/math-vector-fortran.h
REM seed 901318056 1574605639 -60076594 -1697933423 -1071783479 -1652121601 -700426459 -935058961 -482682463 1520736947 -1491697005 -869215715 1943385450 1762583255 -1983187232 -1789685735 -140710288 -532689912 1102712226 -1330346084 -49310917 1043583311 1179925675 -1532023092 673847051 1435026505 1896411516 -1140770245 1497745366 253422210 -102357943 -596325008 2067599852
REM
CELL 1.54180   15.00000   15.00000   15.00000   90.00000   90.00000   90.00000
LATT -1
SFAC C  
C      1  0.3467500000000  0.6326830000000  0.5465390000000 1.0
C      1  0.5427610000000  0.6450890000000  0.3515350000000 1.0
C      1  0.6164800000000  0.6600630000000  0.6090290000000 1.0
C      1  0.3496490000000  0.6305870000000  0.4513690000000 1.0
C      1  0.5323830000000  0.6582120000000  0.6542050000000 1.0
C      1  0.6268680000000  0.6447400000000  0.3964030000000 1.0
C      1  0.7446090000000  0.5727090000000  0.5537650000000 1.0
C      1  0.3408230000000  0.5521460000000  0.6870100000000 1.0
C      1  0.4304660000000  0.5552220000000  0.2723170000000 1.0
C      1  0.7491890000000  0.5613530000000  0.4623970000000 1.0
C      1  0.3490820000000  0.5447310000000  0.3142050000000 1.0
C      1  0.4201590000000  0.5664320000000  0.7316320000000 1.0
C      1  0.6494650000000  0.7212970000000  0.4489420000000 1.0
C      1  0.4700280000000  0.7298660000000  0.6419380000000 1.0
C      1  0.3868490000000  0.7055620000000  0.4057130000000 1.0
C      1  0.6386340000000  0.7346910000000  0.5532250000000 1.0
C      1  0.4824960000000  0.7186440000000  0.3616310000000 1.0
C      1  0.3791390000000  0.7108960000000  0.5904610000000 1.0
C      1  0.6574990000000  0.5770160000000  0.5905240000000 1.0
C      1  0.3468670000000  0.5498420000000  0.5924600000000 1.0
C      1  0.5059740000000  0.5617020000000  0.3289350000000 1.0
C      1  0.6658600000000  0.5604850000000  0.4171370000000 1.0
C      1  0.3509840000000  0.5461740000000  0.4089410000000 1.0
C      1  0.4974770000000  0.5737780000000  0.6775960000000 1.0
C      1  0.5116940000000  0.4889830000000  0.3998790000000 1.0
C      1  0.5956260000000  0.5020260000000  0.5606300000000 1.0
C      1  0.4108390000000  0.4763150000000  0.5554700000000 1.0
C      1  0.5083160000000  0.4996010000000  0.6087660000000 1.0
C      1  0.6005320000000  0.4856360000000  0.4488970000000 1.0
C      1  0.4118650000000  0.4734520000000  0.4517090000000 1.0
C      1  0.5629910000000  0.2014230000000  0.4352640000000 1.0
C      1  0.4939520000000  0.2195090000000  0.5839070000000 1.0
C      1  0.3994230000000  0.1809080000000  0.4522560000000 1.0
C      1  0.5702250000000  0.2245550000000  0.5319850000000 1.0
C      1  0.4792640000000  0.2037830000000  0.3956020000000 1.0
C      1  0.4078170000000  0.1858580000000  0.5444850000000 1.0
C      1  0.4557320000000  0.2910300000000  0.3387020000000 1.0
C      1  0.6465370000000  0.2977490000000  0.5426870000000 1.0
C      1  0.3722860000000  0.2671530000000  0.6070650000000 1.0
C      1  0.4713460000000  0.2949570000000  0.6548130000000 1.0
C      1  0.6435230000000  0.2729520000000  0.4323590000000 1.0
C      1  0.3618200000000  0.2656620000000  0.3970400000000 1.0
C      1  0.6435140000000  0.4103270000000  0.5496660000000 1.0
C      1  0.3849400000000  0.3796930000000  0.5996390000000 1.0
C      1  0.4756910000000  0.3998730000000  0.3612390000000 1.0
C      1  0.6459010000000  0.3859360000000  0.4429080000000 1.0
C      1  0.3825310000000  0.3760850000000  0.4104380000000 1.0
C      1  0.4796180000000  0.4071610000000  0.6459060000000 1.0
C      1  0.5482160000000  0.3422970000000  0.3013420000000 1.0
C      1  0.6442210000000  0.3475760000000  0.6416450000000 1.0
C      1  0.2965380000000  0.3298690000000  0.5548640000000 1.0
C      1  0.5616710000000  0.3473530000000  0.6919030000000 1.0
C      1  0.6354420000000  0.3369780000000  0.3426820000000 1.0
C      1  0.2941030000000  0.3294250000000  0.4583990000000 1.0
C      1  0.5854190000000  0.8250690000000  0.5582400000000 1.0
C      1  0.4130210000000  0.7992380000000  0.5445860000000 1.0
C      1  0.5124760000000  0.8100100000000  0.4035160000000 1.0
C      1  0.5936140000000  0.8103890000000  0.4541760000000 1.0
C      1  0.4190650000000  0.7953550000000  0.4491770000000 1.0
C      1  0.4997390000000  0.8218970000000  0.6002450000000 1.0
END
