TITL C-3036483-1610-809 9.71763115720683e-06 3375 -374.081385389459 0 0 60 (S10) n - 1
REM
REM in /home/bkarasulu/work/CARBON/AIRSS/Generating-Clusters/REBO/Higher-Symm/Only-C60
REM
REM
REM
REM
REM
REM ./C.cell (a2850807a9bf4ad07a5b6933b78d9264)
REM AIRSS Version 0.9.1 bugfix July 2018 build 013d7b7c2542+ Fri, 06 Jul 2018 19:26:36 +0100
REM compiler GCC version 9.2.1 20190827 (Red Hat 9.2.1-1)
REM options -cpp -mtune=generic -march=x86-64 -g -O0 -fpre-include=/usr/include/finclude/math-vector-fortran.h
REM seed 1392525702 -585513795 -1408488003 904600440 1679889090 1598511034 1831979807 1341776942 -566988626 414733234 1851921041 1345105287 2061958567 -819588939 19808256 -356102854 921477833 144264561 486895812 624264348 -2118285017 -77075253 -1880122950 -583509906 -603054034 -2134644524 -268868075 -154905681 1181053889 1652251475 563470445 511010531 2102909384
REM
CELL 1.54180   15.00000   15.00000   15.00000   90.00000   90.00000   90.00000
LATT -1
SFAC C  
C      1  0.4262750000000  0.6548210000000  0.3594780000000 1.0
C      1  0.3493510000000  0.5819180000000  0.6405190000000 1.0
C      1  0.3299750000000  0.4777240000000  0.3594770000000 1.0
C      1  0.3755370000000  0.3820400000000  0.6405200000000 1.0
C      1  0.4686460000000  0.3314110000000  0.3594790000000 1.0
C      1  0.5737250000000  0.3451790000000  0.6405220000000 1.0
C      1  0.6506490000000  0.4180820000000  0.3594810000000 1.0
C      1  0.6700250000000  0.5222760000000  0.6405230000000 1.0
C      1  0.6244630000000  0.6179600000000  0.3594800000000 1.0
C      1  0.5313540000000  0.6685890000000  0.6405210000000 1.0
C      1  0.3124980000000  0.6712120000000  0.5104650000000 1.0
C      1  0.2476720000000  0.5283020000000  0.4895290000000 1.0
C      1  0.2792260000000  0.3745820000000  0.5104660000000 1.0
C      1  0.3951090000000  0.2687670000000  0.4895320000000 1.0
C      1  0.5510570000000  0.2512760000000  0.5104700000000 1.0
C      1  0.6875020000000  0.3287880000000  0.4895350000000 1.0
C      1  0.7523280000000  0.4716980000000  0.5104710000000 1.0
C      1  0.7207740000000  0.6254180000000  0.4895340000000 1.0
C      1  0.6048910000000  0.7312330000000  0.5104680000000 1.0
C      1  0.4489430000000  0.7487240000000  0.4895300000000 1.0
C      1  0.4283690000000  0.3186130000000  0.5759610000000 1.0
C      1  0.5486680000000  0.3111510000000  0.4240410000000 1.0
C      1  0.6503740000000  0.3758250000000  0.5759630000000 1.0
C      1  0.6946450000000  0.4879280000000  0.4240410000000 1.0
C      1  0.6645660000000  0.6046430000000  0.5759620000000 1.0
C      1  0.5716310000000  0.6813870000000  0.4240390000000 1.0
C      1  0.4513320000000  0.6888490000000  0.5759590000000 1.0
C      1  0.3496260000000  0.6241750000000  0.4240370000000 1.0
C      1  0.3053550000000  0.5120720000000  0.5759590000000 1.0
C      1  0.3354340000000  0.3953570000000  0.4240380000000 1.0
C      1  0.6100140000000  0.6876610000000  0.5922020000000 1.0
C      1  0.4787010000000  0.7164860000000  0.4077970000000 1.0
C      1  0.3555190000000  0.6626220000000  0.5921990000000 1.0
C      1  0.2875280000000  0.5466400000000  0.4077960000000 1.0
C      1  0.3006900000000  0.4128450000000  0.5922000000000 1.0
C      1  0.3899860000000  0.3123390000000  0.4077980000000 1.0
C      1  0.5212990000000  0.2835140000000  0.5922030000000 1.0
C      1  0.6444810000000  0.3373780000000  0.4078010000000 1.0
C      1  0.7124720000000  0.4533600000000  0.5922040000000 1.0
C      1  0.6993100000000  0.5871550000000  0.4078000000000 1.0
C      1  0.4816790000000  0.4162410000000  0.3127700000000 1.0
C      1  0.5344060000000  0.4214690000000  0.6872310000000 1.0
C      1  0.5739980000000  0.4566910000000  0.3127710000000 1.0
C      1  0.5853190000000  0.5084570000000  0.6872310000000 1.0
C      1  0.5640570000000  0.5569910000000  0.3127700000000 1.0
C      1  0.5183210000000  0.5837590000000  0.6872300000000 1.0
C      1  0.4655940000000  0.5785310000000  0.3127690000000 1.0
C      1  0.4260020000000  0.5433090000000  0.6872290000000 1.0
C      1  0.4146810000000  0.4915430000000  0.3127690000000 1.0
C      1  0.4359430000000  0.4430090000000  0.6872300000000 1.0
C      1  0.5665630000000  0.4515970000000  0.5615000000000 1.0
C      1  0.5823030000000  0.4999660000000  0.4385020000000 1.0
C      1  0.5666030000000  0.5483490000000  0.5615000000000 1.0
C      1  0.5254650000000  0.5782630000000  0.4385010000000 1.0
C      1  0.4745990000000  0.5782850000000  0.5614990000000 1.0
C      1  0.4334370000000  0.5484030000000  0.4385000000000 1.0
C      1  0.4176970000000  0.5000340000000  0.5614980000000 1.0
C      1  0.4333970000000  0.4516510000000  0.4385000000000 1.0
C      1  0.4745350000000  0.4217370000000  0.5614990000000 1.0
C      1  0.5254010000000  0.4217150000000  0.4385010000000 1.0
END
