TITL C-3036479-9801-144 -9.46937045956985e-06 3375 -382.002639511973 0 0 60 (Td) n - 1
REM
REM in /home/bkarasulu/work/CARBON/AIRSS/Generating-Clusters/REBO/Higher-Symm/Only-C60
REM
REM
REM
REM
REM
REM ./C.cell (a2850807a9bf4ad07a5b6933b78d9264)
REM AIRSS Version 0.9.1 bugfix July 2018 build 013d7b7c2542+ Fri, 06 Jul 2018 19:26:36 +0100
REM compiler GCC version 9.2.1 20190827 (Red Hat 9.2.1-1)
REM options -cpp -mtune=generic -march=x86-64 -g -O0 -fpre-include=/usr/include/finclude/math-vector-fortran.h
REM seed -1708762011 -699124540 1622196175 1280067888 -1944560929 1176484896 1353694915 -51426191 1104805218 333042196 1681534720 1431064834 -1567769624 -904072238 -1061240687 -1630934549 162804739 -1347149009 -853326454 2023632824 1522020033 685340204 1169843732 -687023318 -1102553565 1856397330 1573525136 -1332240860 -432355239 418799056 1376461099 59570943 -1125456558
REM
CELL 1.54180   15.00000   15.00000   15.00000   90.00000   90.00000   90.00000
LATT -1
SFAC C  
C      1  0.5542310000000  0.6891870000000  0.3785180000000 1.0
C      1  0.3785180000000  0.5542310000000  0.6891870000000 1.0
C      1  0.6891870000000  0.3785180000000  0.5542310000000 1.0
C      1  0.4457690000000  0.3108130000000  0.3785180000000 1.0
C      1  0.4457690000000  0.6891870000000  0.6214820000000 1.0
C      1  0.5542310000000  0.3108130000000  0.6214820000000 1.0
C      1  0.6214820000000  0.4457690000000  0.6891870000000 1.0
C      1  0.6214820000000  0.5542310000000  0.3108130000000 1.0
C      1  0.3785180000000  0.4457690000000  0.3108130000000 1.0
C      1  0.3108130000000  0.6214820000000  0.5542310000000 1.0
C      1  0.3108130000000  0.3785180000000  0.4457690000000 1.0
C      1  0.6891870000000  0.6214820000000  0.4457690000000 1.0
C      1  0.6891870000000  0.5542310000000  0.3785180000000 1.0
C      1  0.5542310000000  0.3785180000000  0.6891870000000 1.0
C      1  0.3785180000000  0.6891870000000  0.5542310000000 1.0
C      1  0.3108130000000  0.4457690000000  0.3785180000000 1.0
C      1  0.6891870000000  0.4457690000000  0.6214820000000 1.0
C      1  0.3108130000000  0.5542310000000  0.6214820000000 1.0
C      1  0.4457690000000  0.6214820000000  0.6891870000000 1.0
C      1  0.5542310000000  0.6214820000000  0.3108130000000 1.0
C      1  0.4457690000000  0.3785180000000  0.3108130000000 1.0
C      1  0.6214820000000  0.3108130000000  0.5542310000000 1.0
C      1  0.3785180000000  0.3108130000000  0.4457690000000 1.0
C      1  0.6214820000000  0.6891870000000  0.4457690000000 1.0
C      1  0.7289800000000  0.6022330000000  0.5275840000000 1.0
C      1  0.5275840000000  0.7289800000000  0.6022330000000 1.0
C      1  0.6022330000000  0.5275840000000  0.7289800000000 1.0
C      1  0.2710200000000  0.3977670000000  0.5275840000000 1.0
C      1  0.2710200000000  0.6022330000000  0.4724160000000 1.0
C      1  0.7289800000000  0.3977670000000  0.4724160000000 1.0
C      1  0.4724160000000  0.2710200000000  0.6022330000000 1.0
C      1  0.4724160000000  0.7289800000000  0.3977670000000 1.0
C      1  0.5275840000000  0.2710200000000  0.3977670000000 1.0
C      1  0.3977670000000  0.4724160000000  0.7289800000000 1.0
C      1  0.3977670000000  0.5275840000000  0.2710200000000 1.0
C      1  0.6022330000000  0.4724160000000  0.2710200000000 1.0
C      1  0.6022330000000  0.7289800000000  0.5275840000000 1.0
C      1  0.7289800000000  0.5275840000000  0.6022330000000 1.0
C      1  0.5275840000000  0.6022330000000  0.7289800000000 1.0
C      1  0.3977670000000  0.2710200000000  0.5275840000000 1.0
C      1  0.6022330000000  0.2710200000000  0.4724160000000 1.0
C      1  0.3977670000000  0.7289800000000  0.4724160000000 1.0
C      1  0.2710200000000  0.4724160000000  0.6022330000000 1.0
C      1  0.7289800000000  0.4724160000000  0.3977670000000 1.0
C      1  0.2710200000000  0.5275840000000  0.3977670000000 1.0
C      1  0.4724160000000  0.3977670000000  0.7289800000000 1.0
C      1  0.5275840000000  0.3977670000000  0.2710200000000 1.0
C      1  0.4724160000000  0.6022330000000  0.2710200000000 1.0
C      1  0.7102950000000  0.3671950000000  0.3671950000000 1.0
C      1  0.2897050000000  0.3671950000000  0.6328050000000 1.0
C      1  0.2897050000000  0.6328050000000  0.3671950000000 1.0
C      1  0.3671950000000  0.3671950000000  0.7102950000000 1.0
C      1  0.3671950000000  0.2897050000000  0.6328050000000 1.0
C      1  0.6328050000000  0.2897050000000  0.3671950000000 1.0
C      1  0.3671950000000  0.7102950000000  0.3671950000000 1.0
C      1  0.7102950000000  0.6328050000000  0.6328050000000 1.0
C      1  0.3671950000000  0.6328050000000  0.2897050000000 1.0
C      1  0.6328050000000  0.7102950000000  0.6328050000000 1.0
C      1  0.6328050000000  0.3671950000000  0.2897050000000 1.0
C      1  0.6328050000000  0.6328050000000  0.7102950000000 1.0
END
