TITL C-3036482-790-63 5.05103933419681e-06 3375 -353.629665532464 0 0 60 (Ci) n - 1
REM
REM in /home/bkarasulu/work/CARBON/AIRSS/Generating-Clusters/REBO/Higher-Symm/Only-C60
REM
REM
REM
REM
REM
REM ./C.cell (a2850807a9bf4ad07a5b6933b78d9264)
REM AIRSS Version 0.9.1 bugfix July 2018 build 013d7b7c2542+ Fri, 06 Jul 2018 19:26:36 +0100
REM compiler GCC version 9.2.1 20190827 (Red Hat 9.2.1-1)
REM options -cpp -mtune=generic -march=x86-64 -g -O0 -fpre-include=/usr/include/finclude/math-vector-fortran.h
REM seed 1103707537 -1682398747 -1271704195 1280754026 46644452 1212997744 1558604246 2003887266 -678824751 -1779042094 159484374 -1665883513 -1117823770 825068798 -1713981773 -865179088 -485347694 -1522882389 -925048949 2096651518 1560897737 -1910426869 -370817609 -1073502904 1653560765 -85862412 -1163103330 -724073407 1666064593 227163591 961959071 238161291 -531486933
REM
CELL 1.54180   15.00000   15.00000   15.00000   90.00000   90.00000   90.00000
LATT -1
SFAC C  
C      1  0.3857360000000  0.3497020000000  0.3434100000000 1.0
C      1  0.5789370000000  0.6170170000000  0.2899100000000 1.0
C      1  0.6802050000000  0.3538660000000  0.4679990000000 1.0
C      1  0.6142650000000  0.6502970000000  0.6565910000000 1.0
C      1  0.4210620000000  0.3829830000000  0.7100890000000 1.0
C      1  0.3197950000000  0.6461340000000  0.5320020000000 1.0
C      1  0.5039350000000  0.4109810000000  0.5691160000000 1.0
C      1  0.4473990000000  0.6102400000000  0.5254200000000 1.0
C      1  0.4417510000000  0.4030120000000  0.4782750000000 1.0
C      1  0.4960650000000  0.5890200000000  0.4308840000000 1.0
C      1  0.5526010000000  0.3897620000000  0.4745780000000 1.0
C      1  0.5582490000000  0.5969870000000  0.5217250000000 1.0
C      1  0.3266100000000  0.6266020000000  0.6244510000000 1.0
C      1  0.3150060000000  0.3283000000000  0.4061730000000 1.0
C      1  0.4756960000000  0.6555680000000  0.2723080000000 1.0
C      1  0.6733900000000  0.3733980000000  0.3755490000000 1.0
C      1  0.6849940000000  0.6716990000000  0.5938270000000 1.0
C      1  0.5243030000000  0.3444310000000  0.7276910000000 1.0
C      1  0.5411420000000  0.2874170000000  0.3910290000000 1.0
C      1  0.5743490000000  0.7192410000000  0.4718970000000 1.0
C      1  0.5338300000000  0.2812720000000  0.5665100000000 1.0
C      1  0.4588580000000  0.7125830000000  0.6089710000000 1.0
C      1  0.4256510000000  0.2807580000000  0.5281030000000 1.0
C      1  0.4661690000000  0.7187280000000  0.4334890000000 1.0
C      1  0.4251300000000  0.5176830000000  0.5800830000000 1.0
C      1  0.3993240000000  0.4993710000000  0.4710600000000 1.0
C      1  0.4717630000000  0.4959370000000  0.3880690000000 1.0
C      1  0.5748720000000  0.4823180000000  0.4199180000000 1.0
C      1  0.6006770000000  0.5006280000000  0.5289410000000 1.0
C      1  0.5282380000000  0.5040630000000  0.6119330000000 1.0
C      1  0.4484980000000  0.3351030000000  0.6194130000000 1.0
C      1  0.4024780000000  0.7139330000000  0.5161210000000 1.0
C      1  0.4457930000000  0.3068280000000  0.4202070000000 1.0
C      1  0.5515020000000  0.6648980000000  0.3805860000000 1.0
C      1  0.5975220000000  0.2860680000000  0.4838790000000 1.0
C      1  0.5542070000000  0.6931710000000  0.5797930000000 1.0
C      1  0.4623340000000  0.5744790000000  0.7038970000000 1.0
C      1  0.3094080000000  0.4084780000000  0.5473590000000 1.0
C      1  0.3622160000000  0.5922330000000  0.3661800000000 1.0
C      1  0.5376660000000  0.4255210000000  0.2961030000000 1.0
C      1  0.6905920000000  0.5915220000000  0.4526400000000 1.0
C      1  0.6377840000000  0.4077670000000  0.6338200000000 1.0
C      1  0.4140500000000  0.6461140000000  0.6639690000000 1.0
C      1  0.3326860000000  0.3299030000000  0.4999010000000 1.0
C      1  0.4221870000000  0.6632180000000  0.3485430000000 1.0
C      1  0.5859500000000  0.3538860000000  0.3360310000000 1.0
C      1  0.6673130000000  0.6700970000000  0.5000990000000 1.0
C      1  0.5778130000000  0.3367830000000  0.6514570000000 1.0
C      1  0.4311660000000  0.4326030000000  0.3093580000000 1.0
C      1  0.6342790000000  0.5609230000000  0.3738970000000 1.0
C      1  0.6823890000000  0.4285420000000  0.5381030000000 1.0
C      1  0.5688340000000  0.5673960000000  0.6906430000000 1.0
C      1  0.3657220000000  0.4390780000000  0.6261020000000 1.0
C      1  0.3176120000000  0.5714580000000  0.4618980000000 1.0
C      1  0.4173850000000  0.4933730000000  0.7110580000000 1.0
C      1  0.2712350000000  0.4779690000000  0.4997180000000 1.0
C      1  0.3675770000000  0.5205960000000  0.3090030000000 1.0
C      1  0.5826150000000  0.5066270000000  0.2889420000000 1.0
C      1  0.7287650000000  0.5220310000000  0.5002810000000 1.0
C      1  0.6324240000000  0.4794040000000  0.6909980000000 1.0
END
