TITL C-3036483-1610-609 0.0255611520825517 3375 -342.750976238298 0 0 60 (C1) n - 1
REM
REM in /home/bkarasulu/work/CARBON/AIRSS/Generating-Clusters/REBO/Higher-Symm/Only-C60
REM
REM
REM
REM
REM
REM ./C.cell (a2850807a9bf4ad07a5b6933b78d9264)
REM AIRSS Version 0.9.1 bugfix July 2018 build 013d7b7c2542+ Fri, 06 Jul 2018 19:26:36 +0100
REM compiler GCC version 9.2.1 20190827 (Red Hat 9.2.1-1)
REM options -cpp -mtune=generic -march=x86-64 -g -O0 -fpre-include=/usr/include/finclude/math-vector-fortran.h
REM seed -2138730336 -1804699138 -1256403708 -1757547482 -1842453012 152927235 -654213966 -1368038722 -856526316 -2140508169 1154591814 -1839358942 1411473357 261401452 -1988174745 372494010 197286312 -1707382351 -1921234202 -835418924 1519571624 -1621444565 -60499263 -551372975 2069663073 953315162 120853689 -1660909107 1895883287 -730237018 -1614559458 248423644 -1867892490
REM
CELL 1.54180   15.00000   15.00000   15.00000   90.00000   90.00000   90.00000
LATT -1
SFAC C  
C      1  0.4920560000000  0.3806520000000  0.6113520000000 1.0
C      1  0.3985270000000  0.5551420000000  0.6102280000000 1.0
C      1  0.6082600000000  0.5638230000000  0.6149050000000 1.0
C      1  0.4780040000000  0.4164720000000  0.4013170000000 1.0
C      1  0.4373850000000  0.5601410000000  0.4031870000000 1.0
C      1  0.5870070000000  0.5243090000000  0.4026830000000 1.0
C      1  0.4962980000000  0.5667240000000  0.3151180000000 1.0
C      1  0.5609320000000  0.4724790000000  0.3141410000000 1.0
C      1  0.4467400000000  0.4639120000000  0.3122140000000 1.0
C      1  0.4884660000000  0.5652460000000  0.6729140000000 1.0
C      1  0.5660820000000  0.4814860000000  0.6740540000000 1.0
C      1  0.4551750000000  0.4563670000000  0.6788820000000 1.0
C      1  0.4062970000000  0.3713450000000  0.5588910000000 1.0
C      1  0.4449170000000  0.6301390000000  0.5633230000000 1.0
C      1  0.6436200000000  0.4839580000000  0.5656330000000 1.0
C      1  0.3984200000000  0.3797380000000  0.4530130000000 1.0
C      1  0.4525260000000  0.6448730000000  0.4575950000000 1.0
C      1  0.6525790000000  0.4693290000000  0.4589840000000 1.0
C      1  0.5830640000000  0.3124700000000  0.6092160000000 1.0
C      1  0.2919030000000  0.5182820000000  0.6114460000000 1.0
C      1  0.6219630000000  0.6763270000000  0.6128200000000 1.0
C      1  0.5999540000000  0.3078410000000  0.3907390000000 1.0
C      1  0.2799710000000  0.5084300000000  0.3880110000000 1.0
C      1  0.6184760000000  0.6871620000000  0.3874140000000 1.0
C      1  0.8381080000000  0.5097010000000  0.5600450000000 1.0
C      1  0.3223340000000  0.2229260000000  0.5482240000000 1.0
C      1  0.3186610000000  0.7840080000000  0.5572040000000 1.0
C      1  0.8338990000000  0.5046740000000  0.4687220000000 1.0
C      1  0.3286830000000  0.2229070000000  0.4565220000000 1.0
C      1  0.3270930000000  0.7832090000000  0.4660920000000 1.0
C      1  0.3708700000000  0.4725820000000  0.5432420000000 1.0
C      1  0.5494900000000  0.6209290000000  0.5443870000000 1.0
C      1  0.5747280000000  0.4058270000000  0.5452150000000 1.0
C      1  0.3744780000000  0.4913440000000  0.4384250000000 1.0
C      1  0.5608830000000  0.6123310000000  0.4391070000000 1.0
C      1  0.5660970000000  0.3969780000000  0.4396310000000 1.0
C      1  0.3432080000000  0.3012300000000  0.4082330000000 1.0
C      1  0.4128920000000  0.7392840000000  0.4335240000000 1.0
C      1  0.7532830000000  0.4525590000000  0.4343420000000 1.0
C      1  0.3358140000000  0.3009990000000  0.5970710000000 1.0
C      1  0.4134300000000  0.7351880000000  0.5554580000000 1.0
C      1  0.7482940000000  0.4519840000000  0.5562430000000 1.0
C      1  0.3537000000000  0.4501730000000  0.6789070000000 1.0
C      1  0.5244320000000  0.6591830000000  0.6692960000000 1.0
C      1  0.6248130000000  0.4002700000000  0.6684310000000 1.0
C      1  0.3440190000000  0.4526290000000  0.3148070000000 1.0
C      1  0.5330820000000  0.6628730000000  0.3192800000000 1.0
C      1  0.6245740000000  0.3909160000000  0.3203270000000 1.0
C      1  0.5855080000000  0.7587430000000  0.5438210000000 1.0
C      1  0.6747170000000  0.2945130000000  0.5445240000000 1.0
C      1  0.2423470000000  0.4379810000000  0.5479890000000 1.0
C      1  0.5843790000000  0.7661610000000  0.4499840000000 1.0
C      1  0.6849860000000  0.2919320000000  0.4506730000000 1.0
C      1  0.2386100000000  0.4334360000000  0.4541040000000 1.0
C      1  0.5059750000000  0.7400660000000  0.6052670000000 1.0
C      1  0.7018390000000  0.3715430000000  0.6052280000000 1.0
C      1  0.2917240000000  0.3865260000000  0.6247220000000 1.0
C      1  0.5016030000000  0.7447470000000  0.3840040000000 1.0
C      1  0.7119240000000  0.3741510000000  0.3843960000000 1.0
C      1  0.2909010000000  0.3788500000000  0.3744750000000 1.0
END
