TITL C-3036481-494-238 -2.62540563349674e-06 3375 -347.41402397992 0 0 60 (C3h) n - 1
REM
REM in /home/bkarasulu/work/CARBON/AIRSS/Generating-Clusters/REBO/Higher-Symm/Only-C60
REM
REM
REM
REM
REM
REM ./C.cell (a2850807a9bf4ad07a5b6933b78d9264)
REM AIRSS Version 0.9.1 bugfix July 2018 build 013d7b7c2542+ Fri, 06 Jul 2018 19:26:36 +0100
REM compiler GCC version 9.2.1 20190827 (Red Hat 9.2.1-1)
REM options -cpp -mtune=generic -march=x86-64 -g -O0 -fpre-include=/usr/include/finclude/math-vector-fortran.h
REM seed -2067593903 1855257593 -1368879098 729056973 -200254431 2071260765 1970388757 1823901690 1873548459 -1271751128 1600613909 -120810975 134196342 1223231698 -337379323 774680919 1370808913 -649323443 1553106309 470204021 1618045776 -1260167602 1519524380 -511600085 -811327238 1218455241 -308460277 791355847 194288342 678216266 -370109637 -497796357 -2122968812
REM
CELL 1.54180   15.00000   15.00000   15.00000   90.00000   90.00000   90.00000
LATT -1
SFAC C  
C      1  0.3220830000000  0.4989730000000  0.4216070000000 1.0
C      1  0.5880690000000  0.6545940000000  0.4216070000000 1.0
C      1  0.5898480000000  0.3464330000000  0.4216080000000 1.0
C      1  0.3220830000000  0.4989730000000  0.5783930000000 1.0
C      1  0.5880690000000  0.6545940000000  0.5783920000000 1.0
C      1  0.5898490000000  0.3464330000000  0.5783930000000 1.0
C      1  0.4359220000000  0.4992170000000  0.2673700000000 1.0
C      1  0.5313620000000  0.5558840000000  0.2673700000000 1.0
C      1  0.5327170000000  0.4448970000000  0.2673700000000 1.0
C      1  0.4359220000000  0.4992180000000  0.7326300000000 1.0
C      1  0.5313620000000  0.5558840000000  0.7326300000000 1.0
C      1  0.5327170000000  0.4448980000000  0.7326300000000 1.0
C      1  0.4188010000000  0.5511690000000  0.5466640000000 1.0
C      1  0.5849130000000  0.5447360000000  0.5466640000000 1.0
C      1  0.4962860000000  0.4040950000000  0.5466640000000 1.0
C      1  0.4188010000000  0.5511690000000  0.4533360000000 1.0
C      1  0.5849130000000  0.5447360000000  0.4533360000000 1.0
C      1  0.4962860000000  0.4040950000000  0.4533360000000 1.0
C      1  0.7442790000000  0.6092610000000  0.5456740000000 1.0
C      1  0.4724840000000  0.2338180000000  0.5456760000000 1.0
C      1  0.2832370000000  0.6569220000000  0.5456740000000 1.0
C      1  0.7442790000000  0.6092610000000  0.4543240000000 1.0
C      1  0.4724840000000  0.2338180000000  0.4543260000000 1.0
C      1  0.2832370000000  0.6569220000000  0.4543250000000 1.0
C      1  0.4640070000000  0.2938400000000  0.3826100000000 1.0
C      1  0.3394560000000  0.6342510000000  0.3826100000000 1.0
C      1  0.6965360000000  0.5719080000000  0.3826090000000 1.0
C      1  0.4640060000000  0.2938410000000  0.6173910000000 1.0
C      1  0.3394560000000  0.6342520000000  0.6173900000000 1.0
C      1  0.6965360000000  0.5719090000000  0.6173900000000 1.0
C      1  0.6627320000000  0.7144560000000  0.5425010000000 1.0
C      1  0.6043580000000  0.2518420000000  0.5425020000000 1.0
C      1  0.2329100000000  0.5337030000000  0.5425020000000 1.0
C      1  0.6627320000000  0.7144560000000  0.4574980000000 1.0
C      1  0.6043580000000  0.2518420000000  0.4574990000000 1.0
C      1  0.2329100000000  0.5337030000000  0.4574980000000 1.0
C      1  0.4339070000000  0.4496240000000  0.6306280000000 1.0
C      1  0.4894200000000  0.5824260000000  0.6306280000000 1.0
C      1  0.5766740000000  0.4679500000000  0.6306280000000 1.0
C      1  0.4339070000000  0.4496240000000  0.3693730000000 1.0
C      1  0.4894200000000  0.5824260000000  0.3693720000000 1.0
C      1  0.5766740000000  0.4679490000000  0.3693720000000 1.0
C      1  0.3344750000000  0.4023590000000  0.4529490000000 1.0
C      1  0.4982020000000  0.6921680000000  0.4529490000000 1.0
C      1  0.6673220000000  0.4054720000000  0.4529490000000 1.0
C      1  0.3344750000000  0.4023590000000  0.5470510000000 1.0
C      1  0.4982020000000  0.6921680000000  0.5470510000000 1.0
C      1  0.6673220000000  0.4054720000000  0.5470510000000 1.0
C      1  0.6012220000000  0.5997840000000  0.6665790000000 1.0
C      1  0.5358050000000  0.3624470000000  0.6665790000000 1.0
C      1  0.3629740000000  0.5377690000000  0.6665790000000 1.0
C      1  0.6012220000000  0.5997840000000  0.3334210000000 1.0
C      1  0.5358050000000  0.3624470000000  0.3334210000000 1.0
C      1  0.3629740000000  0.5377680000000  0.3334210000000 1.0
C      1  0.6812840000000  0.4781860000000  0.3902660000000 1.0
C      1  0.3904660000000  0.3539100000000  0.3902670000000 1.0
C      1  0.4282490000000  0.6679030000000  0.3902660000000 1.0
C      1  0.6812850000000  0.4781860000000  0.6097340000000 1.0
C      1  0.3904660000000  0.3539100000000  0.6097340000000 1.0
C      1  0.4282490000000  0.6679040000000  0.6097340000000 1.0
END
