TITL C-3036481-494-520 1.62311617939562e-05 3375 -330.456503336893 0 0 60 (Td) n - 1
REM
REM in /home/bkarasulu/work/CARBON/AIRSS/Generating-Clusters/REBO/Higher-Symm/Only-C60
REM
REM
REM
REM
REM
REM ./C.cell (a2850807a9bf4ad07a5b6933b78d9264)
REM AIRSS Version 0.9.1 bugfix July 2018 build 013d7b7c2542+ Fri, 06 Jul 2018 19:26:36 +0100
REM compiler GCC version 9.2.1 20190827 (Red Hat 9.2.1-1)
REM options -cpp -mtune=generic -march=x86-64 -g -O0 -fpre-include=/usr/include/finclude/math-vector-fortran.h
REM seed -1239488172 -991397366 384148855 909003078 -648394207 431283078 1947577057 -2078852064 -1585698606 -1675464367 1087372512 -1054465015 -862377379 -1685252034 24244031 -210077336 933637944 -471062928 1247504184 735746520 -477029828 -1259244830 -1338703232 -407445300 909846910 150459982 -964808954 -791568510 -885103206 -247581237 -811718858 -1036248766 -138625693
REM
CELL 1.54180   15.00000   15.00000   15.00000   90.00000   90.00000   90.00000
LATT -1
SFAC C  
C      1  0.7228220000000  0.4852200000000  0.3574970000000 1.0
C      1  0.3574970000000  0.7228220000000  0.4852200000000 1.0
C      1  0.4852200000000  0.3574970000000  0.7228220000000 1.0
C      1  0.2771780000000  0.5147800000000  0.3574970000000 1.0
C      1  0.2771780000000  0.4852200000000  0.6425030000000 1.0
C      1  0.7228220000000  0.5147800000000  0.6425030000000 1.0
C      1  0.6425030000000  0.2771780000000  0.4852200000000 1.0
C      1  0.6425030000000  0.7228220000000  0.5147800000000 1.0
C      1  0.3574970000000  0.2771780000000  0.5147800000000 1.0
C      1  0.5147800000000  0.6425030000000  0.7228220000000 1.0
C      1  0.5147800000000  0.3574970000000  0.2771780000000 1.0
C      1  0.4852200000000  0.6425030000000  0.2771780000000 1.0
C      1  0.4852200000000  0.7228220000000  0.3574970000000 1.0
C      1  0.7228220000000  0.3574970000000  0.4852200000000 1.0
C      1  0.3574970000000  0.4852200000000  0.7228220000000 1.0
C      1  0.5147800000000  0.2771780000000  0.3574970000000 1.0
C      1  0.4852200000000  0.2771780000000  0.6425030000000 1.0
C      1  0.5147800000000  0.7228220000000  0.6425030000000 1.0
C      1  0.2771780000000  0.6425030000000  0.4852200000000 1.0
C      1  0.7228220000000  0.6425030000000  0.5147800000000 1.0
C      1  0.2771780000000  0.3574970000000  0.5147800000000 1.0
C      1  0.6425030000000  0.5147800000000  0.7228220000000 1.0
C      1  0.3574970000000  0.5147800000000  0.2771780000000 1.0
C      1  0.6425030000000  0.4852200000000  0.2771780000000 1.0
C      1  0.6417860000000  0.4277030000000  0.5006880000000 1.0
C      1  0.5006880000000  0.6417860000000  0.4277030000000 1.0
C      1  0.4277030000000  0.5006880000000  0.6417860000000 1.0
C      1  0.3582140000000  0.5722970000000  0.5006880000000 1.0
C      1  0.3582140000000  0.4277030000000  0.4993120000000 1.0
C      1  0.6417860000000  0.5722970000000  0.4993120000000 1.0
C      1  0.4993120000000  0.3582140000000  0.4277030000000 1.0
C      1  0.4993120000000  0.6417860000000  0.5722970000000 1.0
C      1  0.5006880000000  0.3582140000000  0.5722970000000 1.0
C      1  0.5722970000000  0.4993120000000  0.6417860000000 1.0
C      1  0.5722970000000  0.5006880000000  0.3582140000000 1.0
C      1  0.4277030000000  0.4993120000000  0.3582140000000 1.0
C      1  0.4277030000000  0.6417860000000  0.5006880000000 1.0
C      1  0.6417860000000  0.5006880000000  0.4277030000000 1.0
C      1  0.5006880000000  0.4277030000000  0.6417860000000 1.0
C      1  0.5722970000000  0.3582140000000  0.5006880000000 1.0
C      1  0.4277030000000  0.3582140000000  0.4993120000000 1.0
C      1  0.5722970000000  0.6417860000000  0.4993120000000 1.0
C      1  0.3582140000000  0.4993120000000  0.4277030000000 1.0
C      1  0.6417860000000  0.4993120000000  0.5722970000000 1.0
C      1  0.3582140000000  0.5006880000000  0.5722970000000 1.0
C      1  0.4993120000000  0.5722970000000  0.6417860000000 1.0
C      1  0.5006880000000  0.5722970000000  0.3582140000000 1.0
C      1  0.4993120000000  0.4277030000000  0.3582140000000 1.0
C      1  0.4603910000000  0.4603910000000  0.7639060000000 1.0
C      1  0.5396090000000  0.4603910000000  0.2360940000000 1.0
C      1  0.4603910000000  0.5396090000000  0.2360940000000 1.0
C      1  0.5396090000000  0.2360940000000  0.4603910000000 1.0
C      1  0.4603910000000  0.7639060000000  0.4603910000000 1.0
C      1  0.5396090000000  0.5396090000000  0.7639060000000 1.0
C      1  0.7639060000000  0.5396090000000  0.5396090000000 1.0
C      1  0.5396090000000  0.7639060000000  0.5396090000000 1.0
C      1  0.2360940000000  0.4603910000000  0.5396090000000 1.0
C      1  0.2360940000000  0.5396090000000  0.4603910000000 1.0
C      1  0.7639060000000  0.4603910000000  0.4603910000000 1.0
C      1  0.4603910000000  0.2360940000000  0.5396090000000 1.0
END
