TITL C-3036484-3770-386 0.214145824463289 3375 -313.513760809936 0 0 60 (C4v) n - 1
REM
REM in /home/bkarasulu/work/CARBON/AIRSS/Generating-Clusters/REBO/Higher-Symm/Only-C60
REM
REM
REM
REM
REM
REM ./C.cell (a2850807a9bf4ad07a5b6933b78d9264)
REM AIRSS Version 0.9.1 bugfix July 2018 build 013d7b7c2542+ Fri, 06 Jul 2018 19:26:36 +0100
REM compiler GCC version 9.2.1 20190827 (Red Hat 9.2.1-1)
REM options -cpp -mtune=generic -march=x86-64 -g -O0 -fpre-include=/usr/include/finclude/math-vector-fortran.h
REM seed -722383234 -1994690431 1332443575 -606038260 -409702968 -1268438294 154030782 -553130459 994822808 -814356401 781112150 -1476518965 -1072112867 -998874759 -611213312 777664395 -17691808 255457533 -1596216074 267414112 37551730 2072855560 1011316581 1916348968 -310713399 866267292 205194359 1121100480 -1460244521 -692272790 -1839627963 -1136243779 1621638947
REM
CELL 1.54180   15.00000   15.00000   15.00000   90.00000   90.00000   90.00000
LATT -1
SFAC C  
C      1  0.7239050000000  0.4213890000000  0.4781050000000 1.0
C      1  0.4213890000000  0.2760950000000  0.4781050000000 1.0
C      1  0.2760950000000  0.5786110000000  0.4781050000000 1.0
C      1  0.5786110000000  0.7239050000000  0.4781050000000 1.0
C      1  0.2760950000000  0.4213890000000  0.4781050000000 1.0
C      1  0.5786110000000  0.2760950000000  0.4781050000000 1.0
C      1  0.7239050000000  0.5786110000000  0.4781050000000 1.0
C      1  0.4213890000000  0.7239050000000  0.4781050000000 1.0
C      1  0.4515020000000  0.3829780000000  0.4049380000000 1.0
C      1  0.3829780000000  0.5484980000000  0.4049380000000 1.0
C      1  0.5484980000000  0.6170220000000  0.4049380000000 1.0
C      1  0.6170220000000  0.4515020000000  0.4049380000000 1.0
C      1  0.5484980000000  0.3829780000000  0.4049380000000 1.0
C      1  0.6170220000000  0.5484980000000  0.4049380000000 1.0
C      1  0.4515020000000  0.6170220000000  0.4049380000000 1.0
C      1  0.3829780000000  0.4515020000000  0.4049380000000 1.0
C      1  0.7133080000000  0.4080460000000  0.3734160000000 1.0
C      1  0.4080460000000  0.2866920000000  0.3734160000000 1.0
C      1  0.2866920000000  0.5919540000000  0.3734160000000 1.0
C      1  0.5919540000000  0.7133080000000  0.3734160000000 1.0
C      1  0.2866920000000  0.4080460000000  0.3734160000000 1.0
C      1  0.5919540000000  0.2866920000000  0.3734160000000 1.0
C      1  0.7133080000000  0.5919540000000  0.3734160000000 1.0
C      1  0.4080460000000  0.7133080000000  0.3734160000000 1.0
C      1  0.4431390000000  0.6380090000000  0.2944950000000 1.0
C      1  0.6380090000000  0.5568610000000  0.2944950000000 1.0
C      1  0.5568610000000  0.3619910000000  0.2944950000000 1.0
C      1  0.3619910000000  0.4431390000000  0.2944950000000 1.0
C      1  0.5568610000000  0.6380090000000  0.2944950000000 1.0
C      1  0.3619910000000  0.5568610000000  0.2944950000000 1.0
C      1  0.4431390000000  0.3619910000000  0.2944950000000 1.0
C      1  0.6380090000000  0.4431390000000  0.2944950000000 1.0
C      1  0.5569740000000  0.6345680000000  0.5356170000000 1.0
C      1  0.6345680000000  0.4430260000000  0.5356170000000 1.0
C      1  0.4430260000000  0.3654320000000  0.5356170000000 1.0
C      1  0.3654320000000  0.5569740000000  0.5356170000000 1.0
C      1  0.4430260000000  0.6345680000000  0.5356170000000 1.0
C      1  0.3654320000000  0.4430260000000  0.5356170000000 1.0
C      1  0.5569740000000  0.3654320000000  0.5356170000000 1.0
C      1  0.6345680000000  0.5569740000000  0.5356170000000 1.0
C      1  0.5494030000000  0.3805420000000  0.7571760000000 1.0
C      1  0.3805420000000  0.4505970000000  0.7571760000000 1.0
C      1  0.4505970000000  0.6194580000000  0.7571760000000 1.0
C      1  0.6194580000000  0.5494030000000  0.7571760000000 1.0
C      1  0.4505970000000  0.3805420000000  0.7571760000000 1.0
C      1  0.6194580000000  0.4505970000000  0.7571760000000 1.0
C      1  0.5494030000000  0.6194580000000  0.7571760000000 1.0
C      1  0.3805420000000  0.5494030000000  0.7571760000000 1.0
C      1  0.4433600000000  0.6366160000000  0.6468930000000 1.0
C      1  0.6366160000000  0.5566400000000  0.6468930000000 1.0
C      1  0.5566400000000  0.3633840000000  0.6468930000000 1.0
C      1  0.3633840000000  0.4433600000000  0.6468930000000 1.0
C      1  0.5566400000000  0.6366160000000  0.6468930000000 1.0
C      1  0.3633840000000  0.5566400000000  0.6468930000000 1.0
C      1  0.4433600000000  0.3633840000000  0.6468930000000 1.0
C      1  0.6366160000000  0.4433600000000  0.6468930000000 1.0
C      1  0.2222500000000  0.5000000000000  0.4983840000000 1.0
C      1  0.5000000000000  0.7777500000000  0.4983840000000 1.0
C      1  0.7777500000000  0.5000000000000  0.4983840000000 1.0
C      1  0.5000000000000  0.2222500000000  0.4983840000000 1.0
END
