TITL C-3036482-790-145 -0.00491934067578308 3375 -332.64627792989 0 0 60 (D5) n - 1
REM
REM in /home/bkarasulu/work/CARBON/AIRSS/Generating-Clusters/REBO/Higher-Symm/Only-C60
REM
REM
REM
REM
REM
REM ./C.cell (a2850807a9bf4ad07a5b6933b78d9264)
REM AIRSS Version 0.9.1 bugfix July 2018 build 013d7b7c2542+ Fri, 06 Jul 2018 19:26:36 +0100
REM compiler GCC version 9.2.1 20190827 (Red Hat 9.2.1-1)
REM options -cpp -mtune=generic -march=x86-64 -g -O0 -fpre-include=/usr/include/finclude/math-vector-fortran.h
REM seed 1637873737 -1225373377 606456256 833816623 -448413162 1845413709 -1181479 -1890592453 1029669926 -1960599668 1237286631 1939853596 -1208574626 864769101 1077141767 -2067440590 -1636446690 1726414684 754250766 696281741 236219312 2122123898 -854345932 1331530534 -363115268 1282289227 -1354695401 -1157262962 -414999953 -1040183948 -495641258 1921344152 -310804968
REM
CELL 1.54180   15.00000   15.00000   15.00000   90.00000   90.00000   90.00000
LATT -1
SFAC C  
C      1  0.3685140000000  0.5795060000000  0.3220600000000 1.0
C      1  0.3836930000000  0.3995410000000  0.3220490000000 1.0
C      1  0.5596050000000  0.3583720000000  0.3219950000000 1.0
C      1  0.6531380000000  0.5129810000000  0.3220150000000 1.0
C      1  0.5350000000000  0.6496180000000  0.3220430000000 1.0
C      1  0.6314840000000  0.5795070000000  0.6666120000000 1.0
C      1  0.6163040000000  0.3995370000000  0.6666200000000 1.0
C      1  0.4403940000000  0.3583690000000  0.6666720000000 1.0
C      1  0.3468620000000  0.5129780000000  0.6666550000000 1.0
C      1  0.4649990000000  0.6496200000000  0.6666290000000 1.0
C      1  0.4555620000000  0.3201850000000  0.5607680000000 1.0
C      1  0.6572150000000  0.4022520000000  0.5606870000000 1.0
C      1  0.6415230000000  0.6192600000000  0.5606880000000 1.0
C      1  0.4302820000000  0.6715030000000  0.5607160000000 1.0
C      1  0.3152410000000  0.4867260000000  0.5607630000000 1.0
C      1  0.5444280000000  0.3201820000000  0.4278830000000 1.0
C      1  0.3427810000000  0.4022540000000  0.4279800000000 1.0
C      1  0.3584810000000  0.6192580000000  0.4279850000000 1.0
C      1  0.5697160000000  0.6714980000000  0.4279570000000 1.0
C      1  0.6847590000000  0.4867260000000  0.4279060000000 1.0
C      1  0.6407250000000  0.4097510000000  0.3290030000000 1.0
C      1  0.6293940000000  0.6060110000000  0.3289860000000 1.0
C      1  0.4391820000000  0.6557820000000  0.3290020000000 1.0
C      1  0.3329780000000  0.4903110000000  0.3290140000000 1.0
C      1  0.4576110000000  0.3382410000000  0.3290290000000 1.0
C      1  0.3592740000000  0.4097480000000  0.6596650000000 1.0
C      1  0.3706070000000  0.6060100000000  0.6596840000000 1.0
C      1  0.5608170000000  0.6557830000000  0.6596690000000 1.0
C      1  0.6670170000000  0.4903070000000  0.6596570000000 1.0
C      1  0.5423990000000  0.3382380000000  0.6596500000000 1.0
C      1  0.4188860000000  0.7099420000000  0.4172970000000 1.0
C      1  0.2752190000000  0.4877500000000  0.4173250000000 1.0
C      1  0.4421820000000  0.2824830000000  0.4173010000000 1.0
C      1  0.6890110000000  0.3778380000000  0.4172440000000 1.0
C      1  0.6746340000000  0.6420540000000  0.4172810000000 1.0
C      1  0.5811140000000  0.7099430000000  0.5713740000000 1.0
C      1  0.7247780000000  0.4877490000000  0.5713470000000 1.0
C      1  0.5578180000000  0.2824820000000  0.5713610000000 1.0
C      1  0.3109880000000  0.3778400000000  0.5714240000000 1.0
C      1  0.3253650000000  0.6420530000000  0.5713910000000 1.0
C      1  0.5213600000000  0.4235270000000  0.4312900000000 1.0
C      1  0.5793160000000  0.4965850000000  0.4312640000000 1.0
C      1  0.5277420000000  0.5742810000000  0.4312440000000 1.0
C      1  0.4379170000000  0.5492410000000  0.4312530000000 1.0
C      1  0.4339730000000  0.4560710000000  0.4312780000000 1.0
C      1  0.4786400000000  0.4235340000000  0.5573820000000 1.0
C      1  0.4206840000000  0.4965940000000  0.5574080000000 1.0
C      1  0.4722550000000  0.5742850000000  0.5574210000000 1.0
C      1  0.5620860000000  0.5492460000000  0.5574220000000 1.0
C      1  0.5660260000000  0.4560770000000  0.5573930000000 1.0
C      1  0.5000010000000  0.8300760000000  0.4943330000000 1.0
C      1  0.6941040000000  0.2330160000000  0.4943960000000 1.0
C      1  0.3059060000000  0.2330100000000  0.4942810000000 1.0
C      1  0.1860740000000  0.6021140000000  0.4942730000000 1.0
C      1  0.8139270000000  0.6021090000000  0.4943970000000 1.0
C      1  0.6362220000000  0.3125020000000  0.4943500000000 1.0
C      1  0.5000000000000  0.7317460000000  0.4943350000000 1.0
C      1  0.3637810000000  0.3124970000000  0.4943190000000 1.0
C      1  0.2795710000000  0.5716530000000  0.4943440000000 1.0
C      1  0.7204300000000  0.5716520000000  0.4943270000000 1.0
END
