TITL C-3036482-790-879 -0.00106985640449046 3375 -336.764226945193 0 0 60 (C2) n - 1
REM
REM in /home/bkarasulu/work/CARBON/AIRSS/Generating-Clusters/REBO/Higher-Symm/Only-C60
REM
REM
REM
REM
REM
REM ./C.cell (a2850807a9bf4ad07a5b6933b78d9264)
REM AIRSS Version 0.9.1 bugfix July 2018 build 013d7b7c2542+ Fri, 06 Jul 2018 19:26:36 +0100
REM compiler GCC version 9.2.1 20190827 (Red Hat 9.2.1-1)
REM options -cpp -mtune=generic -march=x86-64 -g -O0 -fpre-include=/usr/include/finclude/math-vector-fortran.h
REM seed 2095444874 -1365622812 590039341 123596229 300942470 1766843965 498844330 -55583546 545632709 693720108 963645610 -186922219 1984697364 -541389416 856306504 753636472 286777851 -1529452973 1576690156 1352218122 -1880056923 129619950 -1415663174 1554724563 2099966186 8040833 -1132174404 -1093451963 -1877108647 -1042921101 1534017297 1925570358 168197306
REM
CELL 1.54180   15.00000   15.00000   15.00000   90.00000   90.00000   90.00000
LATT -1
SFAC C  
C      1  0.6486070000000  0.5587820000000  0.3254040000000 1.0
C      1  0.3513930000000  0.4412180000000  0.3254040000000 1.0
C      1  0.5555930000000  0.3912760000000  0.5954790000000 1.0
C      1  0.4443720000000  0.6087380000000  0.5954860000000 1.0
C      1  0.5079470000000  0.3292600000000  0.6729400000000 1.0
C      1  0.4920530000000  0.6707400000000  0.6729410000000 1.0
C      1  0.4395250000000  0.2504040000000  0.5364820000000 1.0
C      1  0.5604750000000  0.7495960000000  0.5364810000000 1.0
C      1  0.4452570000000  0.4172200000000  0.7080860000000 1.0
C      1  0.5547430000000  0.5827800000000  0.7080860000000 1.0
C      1  0.3023020000000  0.4156540000000  0.4871810000000 1.0
C      1  0.6976970000000  0.5843460000000  0.4871800000000 1.0
C      1  0.4701040000000  0.6639400000000  0.2872240000000 1.0
C      1  0.5298960000000  0.3360600000000  0.2872240000000 1.0
C      1  0.5455520000000  0.4700860000000  0.7272290000000 1.0
C      1  0.4544470000000  0.5299140000000  0.7272290000000 1.0
C      1  0.3987260000000  0.3844390000000  0.4355610000000 1.0
C      1  0.6012740000000  0.6155610000000  0.4355610000000 1.0
C      1  0.4820250000000  0.4460430000000  0.3929330000000 1.0
C      1  0.5179750000000  0.5539570000000  0.3929330000000 1.0
C      1  0.4336640000000  0.4935290000000  0.3026760000000 1.0
C      1  0.5663360000000  0.5064710000000  0.3026760000000 1.0
C      1  0.3248980000000  0.5584900000000  0.5654660000000 1.0
C      1  0.6751020000000  0.4415100000000  0.5654660000000 1.0
C      1  0.4128740000000  0.3555500000000  0.5298900000000 1.0
C      1  0.5871260000000  0.6444500000000  0.5298900000000 1.0
C      1  0.4954940000000  0.7188310000000  0.4471880000000 1.0
C      1  0.5045060000000  0.2811690000000  0.4471880000000 1.0
C      1  0.5578230000000  0.3777180000000  0.4194000000000 1.0
C      1  0.4421780000000  0.6222820000000  0.4194010000000 1.0
C      1  0.4113280000000  0.3074990000000  0.6307350000000 1.0
C      1  0.5886720000000  0.6925020000000  0.6307350000000 1.0
C      1  0.3618670000000  0.5513000000000  0.4576550000000 1.0
C      1  0.6381340000000  0.4486990000000  0.4576550000000 1.0
C      1  0.5563350000000  0.4208610000000  0.2711360000000 1.0
C      1  0.4436650000000  0.5791390000000  0.2711360000000 1.0
C      1  0.6934400000000  0.5524690000000  0.5781440000000 1.0
C      1  0.3065590000000  0.4475310000000  0.5781440000000 1.0
C      1  0.5602940000000  0.5590740000000  0.5772530000000 1.0
C      1  0.4397550000000  0.4409140000000  0.5772520000000 1.0
C      1  0.4678040000000  0.3007300000000  0.3483140000000 1.0
C      1  0.5321960000000  0.6992700000000  0.3483140000000 1.0
C      1  0.6539690000000  0.6032570000000  0.6560580000000 1.0
C      1  0.3460320000000  0.3967430000000  0.6560570000000 1.0
C      1  0.4086290000000  0.7125680000000  0.6077100000000 1.0
C      1  0.5913710000000  0.2874320000000  0.6077110000000 1.0
C      1  0.4519920000000  0.5312770000000  0.5161910000000 1.0
C      1  0.5479960000000  0.4687190000000  0.5162000000000 1.0
C      1  0.6897370000000  0.5211690000000  0.4051360000000 1.0
C      1  0.3102630000000  0.4788310000000  0.4051360000000 1.0
C      1  0.3334420000000  0.6636010000000  0.5472620000000 1.0
C      1  0.6665570000000  0.3364000000000  0.5472620000000 1.0
C      1  0.6244970000000  0.6603530000000  0.3390300000000 1.0
C      1  0.3755030000000  0.3396470000000  0.3390300000000 1.0
C      1  0.4540710000000  0.7732160000000  0.5377290000000 1.0
C      1  0.5459290000000  0.2267840000000  0.5377290000000 1.0
C      1  0.3541770000000  0.6833970000000  0.4564900000000 1.0
C      1  0.6458230000000  0.3166030000000  0.4564900000000 1.0
C      1  0.3996030000000  0.5206660000000  0.6380110000000 1.0
C      1  0.6003960000000  0.4793340000000  0.6380110000000 1.0
END
