TITL C-3036484-3770-735 3.65844654981957e-05 3375 -326.633728192604 0 0 60 (C2) n - 1
REM
REM in /home/bkarasulu/work/CARBON/AIRSS/Generating-Clusters/REBO/Higher-Symm/Only-C60
REM
REM
REM
REM
REM
REM ./C.cell (a2850807a9bf4ad07a5b6933b78d9264)
REM AIRSS Version 0.9.1 bugfix July 2018 build 013d7b7c2542+ Fri, 06 Jul 2018 19:26:36 +0100
REM compiler GCC version 9.2.1 20190827 (Red Hat 9.2.1-1)
REM options -cpp -mtune=generic -march=x86-64 -g -O0 -fpre-include=/usr/include/finclude/math-vector-fortran.h
REM seed -2115613793 -1885436768 -774308092 684874417 859474330 -122946116 662392234 677059945 -1541964815 730144132 -2033273341 -1106506553 365149332 -524179534 1181687890 -678370287 -2088486926 -842487238 -325815029 -520087665 236575968 1154542691 -1373916026 950260236 488157186 -2054493123 -2066506925 100884518 748699419 -1731462578 871151271 980056544 1658199333
REM
CELL 1.54180   15.00000   15.00000   15.00000   90.00000   90.00000   90.00000
LATT -1
SFAC C  
C      1  0.4831520000000  0.3079910000000  0.5975910000000 1.0
C      1  0.4240550000000  0.3039790000000  0.4391290000000 1.0
C      1  0.5891580000000  0.3040650000000  0.4694240000000 1.0
C      1  0.5168480000000  0.6920080000000  0.5975920000000 1.0
C      1  0.5759450000000  0.6960210000000  0.4391290000000 1.0
C      1  0.4108410000000  0.6959350000000  0.4694250000000 1.0
C      1  0.5455400000000  0.4753760000000  0.2964500000000 1.0
C      1  0.6701280000000  0.4708980000000  0.6492380000000 1.0
C      1  0.2757790000000  0.4657630000000  0.5710460000000 1.0
C      1  0.4544590000000  0.5246250000000  0.2964500000000 1.0
C      1  0.3298730000000  0.5291020000000  0.6492390000000 1.0
C      1  0.7242220000000  0.5342360000000  0.5710440000000 1.0
C      1  0.3847970000000  0.4448840000000  0.7046210000000 1.0
C      1  0.3680120000000  0.4493550000000  0.3027170000000 1.0
C      1  0.7326010000000  0.4443210000000  0.5012000000000 1.0
C      1  0.6152050000000  0.5551160000000  0.7046210000000 1.0
C      1  0.6319870000000  0.5506460000000  0.3027160000000 1.0
C      1  0.2673990000000  0.5556790000000  0.5012010000000 1.0
C      1  0.5013500000000  0.5658320000000  0.5585770000000 1.0
C      1  0.4564550000000  0.5627080000000  0.4540970000000 1.0
C      1  0.5692210000000  0.5660930000000  0.4659870000000 1.0
C      1  0.4986500000000  0.4341670000000  0.5585770000000 1.0
C      1  0.5435450000000  0.4372920000000  0.4540960000000 1.0
C      1  0.4307790000000  0.4339070000000  0.4659870000000 1.0
C      1  0.4438780000000  0.5537430000000  0.6563250000000 1.0
C      1  0.3770330000000  0.5622040000000  0.3723620000000 1.0
C      1  0.6832040000000  0.5629250000000  0.4657950000000 1.0
C      1  0.5561240000000  0.4462560000000  0.6563250000000 1.0
C      1  0.6229660000000  0.4377960000000  0.3723610000000 1.0
C      1  0.3167950000000  0.4370750000000  0.4657960000000 1.0
C      1  0.2976900000000  0.5247540000000  0.3131900000000 1.0
C      1  0.7769950000000  0.5177070000000  0.4412250000000 1.0
C      1  0.4084980000000  0.5321270000000  0.7565870000000 1.0
C      1  0.7023090000000  0.4752470000000  0.3131880000000 1.0
C      1  0.2230050000000  0.4822930000000  0.4412270000000 1.0
C      1  0.5915040000000  0.4678720000000  0.7565860000000 1.0
C      1  0.5993810000000  0.5675570000000  0.5945940000000 1.0
C      1  0.3767290000000  0.5385040000000  0.5268730000000 1.0
C      1  0.5491880000000  0.5904350000000  0.3624200000000 1.0
C      1  0.4006190000000  0.4324430000000  0.5945940000000 1.0
C      1  0.6232710000000  0.4614960000000  0.5268720000000 1.0
C      1  0.4508110000000  0.4095650000000  0.3624200000000 1.0
C      1  0.4252180000000  0.6951520000000  0.5651490000000 1.0
C      1  0.4833240000000  0.6971450000000  0.4062750000000 1.0
C      1  0.5915710000000  0.6927680000000  0.5353150000000 1.0
C      1  0.5747820000000  0.3048480000000  0.5651480000000 1.0
C      1  0.5166750000000  0.3028550000000  0.4062740000000 1.0
C      1  0.4084290000000  0.3072310000000  0.5353150000000 1.0
C      1  0.6773970000000  0.6384380000000  0.5676030000000 1.0
C      1  0.3579890000000  0.6265570000000  0.5969760000000 1.0
C      1  0.4662040000000  0.6358920000000  0.3196800000000 1.0
C      1  0.3226030000000  0.3615620000000  0.5676030000000 1.0
C      1  0.6420110000000  0.3734420000000  0.5969750000000 1.0
C      1  0.5337950000000  0.3641090000000  0.3196790000000 1.0
C      1  0.3502350000000  0.3693610000000  0.3828820000000 1.0
C      1  0.6604540000000  0.3750540000000  0.4508190000000 1.0
C      1  0.4713260000000  0.3788030000000  0.6758550000000 1.0
C      1  0.6497640000000  0.6306390000000  0.3828810000000 1.0
C      1  0.3395450000000  0.6249470000000  0.4508210000000 1.0
C      1  0.5286750000000  0.6211960000000  0.6758560000000 1.0
END
