TITL C-3036480-97-914 7.64692758852606e-06 3375 -336.281430305881 0 0 60 (C3i) n - 1
REM
REM in /home/bkarasulu/work/CARBON/AIRSS/Generating-Clusters/REBO/Higher-Symm/Only-C60
REM
REM
REM
REM
REM
REM ./C.cell (a2850807a9bf4ad07a5b6933b78d9264)
REM AIRSS Version 0.9.1 bugfix July 2018 build 013d7b7c2542+ Fri, 06 Jul 2018 19:26:36 +0100
REM compiler GCC version 9.2.1 20190827 (Red Hat 9.2.1-1)
REM options -cpp -mtune=generic -march=x86-64 -g -O0 -fpre-include=/usr/include/finclude/math-vector-fortran.h
REM seed 1166574278 871865716 50753008 -2050852209 1018205417 169792350 9207656 -578326155 -1210596063 -1477897695 1959615399 -1054898030 2972714 -1364311431 1859551426 1039223794 680982034 1843544922 -1623526531 1121280769 -1724309236 -1675351413 2016126948 1017047599 -1964950909 220516201 -1686182180 -690102456 -2005980231 1672967595 2131574898 687301528 -1362273856
REM
CELL 1.54180   15.00000   15.00000   15.00000   90.00000   90.00000   90.00000
LATT -1
SFAC C  
C      1  0.7360360000000  0.5387760000000  0.3708080000000 1.0
C      1  0.2639650000000  0.4075050000000  0.4018270000000 1.0
C      1  0.7360320000000  0.3687320000000  0.5310140000000 1.0
C      1  0.2639640000000  0.4612240000000  0.6291920000000 1.0
C      1  0.7360350000000  0.5924950000000  0.5981730000000 1.0
C      1  0.2639680000000  0.6312680000000  0.4689860000000 1.0
C      1  0.4468540000000  0.3135920000000  0.5533690000000 1.0
C      1  0.5531480000000  0.4530110000000  0.6881210000000 1.0
C      1  0.4468540000000  0.6394190000000  0.6347520000000 1.0
C      1  0.5531460000000  0.6864080000000  0.4466310000000 1.0
C      1  0.4468520000000  0.5469890000000  0.3118790000000 1.0
C      1  0.5531460000000  0.3605810000000  0.3652480000000 1.0
C      1  0.6071660000000  0.4305990000000  0.4669120000000 1.0
C      1  0.3928230000000  0.4366480000000  0.5435560000000 1.0
C      1  0.6071700000000  0.5060410000000  0.5766470000000 1.0
C      1  0.3928340000000  0.5694010000000  0.5330880000000 1.0
C      1  0.6071770000000  0.5633520000000  0.4564440000000 1.0
C      1  0.3928300000000  0.4939590000000  0.4233530000000 1.0
C      1  0.3907980000000  0.6669480000000  0.4727810000000 1.0
C      1  0.6092040000000  0.5599020000000  0.3418130000000 1.0
C      1  0.3907940000000  0.3929600000000  0.3690240000000 1.0
C      1  0.6092020000000  0.3330520000000  0.5272190000000 1.0
C      1  0.3907960000000  0.4400980000000  0.6581870000000 1.0
C      1  0.6092060000000  0.6070400000000  0.6309760000000 1.0
C      1  0.6697040000000  0.4711780000000  0.3126450000000 1.0
C      1  0.3303000000000  0.3233370000000  0.4312850000000 1.0
C      1  0.6697030000000  0.3521580000000  0.6186390000000 1.0
C      1  0.3302960000000  0.5288220000000  0.6873550000000 1.0
C      1  0.6697000000000  0.6766630000000  0.5687150000000 1.0
C      1  0.3302970000000  0.6478420000000  0.3813610000000 1.0
C      1  0.2864230000000  0.4859210000000  0.3364090000000 1.0
C      1  0.7135750000000  0.3512890000000  0.4303960000000 1.0
C      1  0.2864210000000  0.3653620000000  0.5939900000000 1.0
C      1  0.7135770000000  0.5140790000000  0.6635910000000 1.0
C      1  0.2864250000000  0.6487110000000  0.5696040000000 1.0
C      1  0.7135790000000  0.6346380000000  0.4060100000000 1.0
C      1  0.7095030000000  0.4666550000000  0.5646380000000 1.0
C      1  0.2905000000000  0.5393010000000  0.5611950000000 1.0
C      1  0.7095130000000  0.5726540000000  0.4965580000000 1.0
C      1  0.2904970000000  0.5333450000000  0.4353620000000 1.0
C      1  0.7095000000000  0.4606990000000  0.4388050000000 1.0
C      1  0.2904870000000  0.4273460000000  0.5034420000000 1.0
C      1  0.5205370000000  0.6143300000000  0.3661310000000 1.0
C      1  0.4794630000000  0.4412370000000  0.3340550000000 1.0
C      1  0.5205350000000  0.3269100000000  0.4679200000000 1.0
C      1  0.4794630000000  0.3856700000000  0.6338690000000 1.0
C      1  0.5205370000000  0.5587630000000  0.6659450000000 1.0
C      1  0.4794650000000  0.6730900000000  0.5320800000000 1.0
C      1  0.6483400000000  0.6886200000000  0.4723680000000 1.0
C      1  0.3516580000000  0.5703820000000  0.3228320000000 1.0
C      1  0.6483400000000  0.3817620000000  0.3504650000000 1.0
C      1  0.3516600000000  0.3113800000000  0.5276320000000 1.0
C      1  0.6483420000000  0.4296180000000  0.6771680000000 1.0
C      1  0.3516600000000  0.6182380000000  0.6495350000000 1.0
C      1  0.5483400000000  0.4187310000000  0.5605500000000 1.0
C      1  0.4516610000000  0.5117990000000  0.6006520000000 1.0
C      1  0.5483480000000  0.5930690000000  0.5401060000000 1.0
C      1  0.4516600000000  0.5812690000000  0.4394500000000 1.0
C      1  0.5483390000000  0.4882010000000  0.3993480000000 1.0
C      1  0.4516520000000  0.4069310000000  0.4598940000000 1.0
END
