TITL C-3036481-494-925 -0.000490709888638291 3375 -345.302632070155 0 0 60 (C1) n - 1
REM
REM in /home/bkarasulu/work/CARBON/AIRSS/Generating-Clusters/REBO/Higher-Symm/Only-C60
REM
REM
REM
REM
REM
REM ./C.cell (a2850807a9bf4ad07a5b6933b78d9264)
REM AIRSS Version 0.9.1 bugfix July 2018 build 013d7b7c2542+ Fri, 06 Jul 2018 19:26:36 +0100
REM compiler GCC version 9.2.1 20190827 (Red Hat 9.2.1-1)
REM options -cpp -mtune=generic -march=x86-64 -g -O0 -fpre-include=/usr/include/finclude/math-vector-fortran.h
REM seed 1036604448 -1311129911 473526314 -291388450 -1791075178 1101403671 1861943193 -266107523 1757557351 1978570019 -1779545881 1587089645 1888405330 615344437 -904478717 -1787232749 2090594116 -1480193615 874275419 -1177688656 -123573270 -1599536224 -321481214 1991198379 1251817565 -2112547060 -1780190046 1609369635 -1400010 -2049947352 1974087442 -1394144269 -430907645
REM
CELL 1.54180   15.00000   15.00000   15.00000   90.00000   90.00000   90.00000
LATT -1
SFAC C  
C      1  0.5880080000000  0.2859790000000  0.4202640000000 1.0
C      1  0.3554070000000  0.5755130000000  0.5118340000000 1.0
C      1  0.4875680000000  0.4234820000000  0.7195780000000 1.0
C      1  0.5803290000000  0.5786280000000  0.6452700000000 1.0
C      1  0.5090970000000  0.4024230000000  0.5178740000000 1.0
C      1  0.5419320000000  0.3693520000000  0.6624130000000 1.0
C      1  0.4438930000000  0.5075470000000  0.7181600000000 1.0
C      1  0.2856390000000  0.4815840000000  0.6775070000000 1.0
C      1  0.7056880000000  0.6246510000000  0.5486450000000 1.0
C      1  0.6010540000000  0.3856330000000  0.4747560000000 1.0
C      1  0.6981130000000  0.5246340000000  0.5270480000000 1.0
C      1  0.6582280000000  0.4589950000000  0.3269190000000 1.0
C      1  0.4622510000000  0.7189790000000  0.6309790000000 1.0
C      1  0.7455140000000  0.4270650000000  0.5395480000000 1.0
C      1  0.6641550000000  0.4596270000000  0.4390730000000 1.0
C      1  0.4988040000000  0.2976640000000  0.6161660000000 1.0
C      1  0.6065560000000  0.5025510000000  0.5792690000000 1.0
C      1  0.7187700000000  0.5511910000000  0.3989550000000 1.0
C      1  0.6208280000000  0.6850050000000  0.4178530000000 1.0
C      1  0.3459390000000  0.6317650000000  0.7094820000000 1.0
C      1  0.5247260000000  0.5322350000000  0.2482880000000 1.0
C      1  0.4334110000000  0.4658090000000  0.2615270000000 1.0
C      1  0.5241870000000  0.7087550000000  0.5684840000000 1.0
C      1  0.5059300000000  0.6223100000000  0.2963270000000 1.0
C      1  0.6996540000000  0.6305990000000  0.3852440000000 1.0
C      1  0.4358120000000  0.5667770000000  0.5684190000000 1.0
C      1  0.4005380000000  0.6204910000000  0.3382120000000 1.0
C      1  0.3386490000000  0.7917910000000  0.7023130000000 1.0
C      1  0.3860180000000  0.4063140000000  0.6333440000000 1.0
C      1  0.5231700000000  0.2806120000000  0.3466130000000 1.0
C      1  0.5400670000000  0.2728710000000  0.5231810000000 1.0
C      1  0.5209360000000  0.4515860000000  0.3282920000000 1.0
C      1  0.4562000000000  0.6900860000000  0.3985150000000 1.0
C      1  0.5064680000000  0.6459290000000  0.4880240000000 1.0
C      1  0.2903960000000  0.4251840000000  0.5856490000000 1.0
C      1  0.4055610000000  0.3085400000000  0.6189110000000 1.0
C      1  0.4670960000000  0.3631740000000  0.2970700000000 1.0
C      1  0.3619940000000  0.5177590000000  0.3086720000000 1.0
C      1  0.4885420000000  0.5718230000000  0.6614490000000 1.0
C      1  0.3375880000000  0.3368040000000  0.5315530000000 1.0
C      1  0.6259850000000  0.4934110000000  0.2585090000000 1.0
C      1  0.4211580000000  0.3092650000000  0.3810430000000 1.0
C      1  0.4186100000000  0.4436590000000  0.4623480000000 1.0
C      1  0.5485550000000  0.7141410000000  0.3485620000000 1.0
C      1  0.6519340000000  0.2890750000000  0.5142320000000 1.0
C      1  0.5108210000000  0.4903760000000  0.4185760000000 1.0
C      1  0.5449800000000  0.5918110000000  0.3969280000000 1.0
C      1  0.3151690000000  0.4748370000000  0.4979810000000 1.0
C      1  0.6149410000000  0.4092660000000  0.6181740000000 1.0
C      1  0.4564370000000  0.4596330000000  0.5943780000000 1.0
C      1  0.3510990000000  0.5371660000000  0.7182650000000 1.0
C      1  0.6865850000000  0.3651670000000  0.5748630000000 1.0
C      1  0.3826600000000  0.7147020000000  0.6820620000000 1.0
C      1  0.3334570000000  0.5696430000000  0.4071540000000 1.0
C      1  0.3027640000000  0.4624320000000  0.3857070000000 1.0
C      1  0.3415200000000  0.3682970000000  0.4230430000000 1.0
C      1  0.4416420000000  0.3155630000000  0.4910640000000 1.0
C      1  0.6327470000000  0.6534660000000  0.6219540000000 1.0
C      1  0.5290830000000  0.5379860000000  0.5159510000000 1.0
C      1  0.6251370000000  0.6983880000000  0.5175230000000 1.0
END
