TITL C-3036485-3770-859 0.00388495582391192 3375 -336.552504603693 0 0 60 (C3h) n - 1
REM
REM in /home/bkarasulu/work/CARBON/AIRSS/Generating-Clusters/REBO/Higher-Symm/Only-C60
REM
REM
REM
REM
REM
REM ./C.cell (a2850807a9bf4ad07a5b6933b78d9264)
REM AIRSS Version 0.9.1 bugfix July 2018 build 013d7b7c2542+ Fri, 06 Jul 2018 19:26:36 +0100
REM compiler GCC version 9.2.1 20190827 (Red Hat 9.2.1-1)
REM options -cpp -mtune=generic -march=x86-64 -g -O0 -fpre-include=/usr/include/finclude/math-vector-fortran.h
REM seed 1240844272 643779956 661744698 938666327 1874089757 -148617660 -162299766 -1587139285 -335445079 342868062 1219284161 -1469532409 232493222 1049636660 1821905350 1604656336 -883706332 -1788037772 -38091626 -1070813570 2124435375 -1697909964 -1026051166 -2118936848 1230502343 -1151579691 -24786719 -899851621 310047090 -1157908379 365566904 -183865687 -1091468990
REM
CELL 1.54180   15.00000   15.00000   15.00000   90.00000   90.00000   90.00000
LATT -1
SFAC C  
C      1  0.4048510000000  0.7279090000000  0.3893560000000 1.0
C      1  0.4064310000000  0.2922390000000  0.3567130000000 1.0
C      1  0.4059010000000  0.4804430000000  0.7521950000000 1.0
C      1  0.5932890000000  0.7278690000000  0.3922210000000 1.0
C      1  0.5947170000000  0.2904390000000  0.3574320000000 1.0
C      1  0.5946410000000  0.4813760000000  0.7523100000000 1.0
C      1  0.4006680000000  0.5783530000000  0.3104970000000 1.0
C      1  0.4005680000000  0.2974310000000  0.5250660000000 1.0
C      1  0.4016040000000  0.6220590000000  0.6618870000000 1.0
C      1  0.5985150000000  0.5795450000000  0.3133530000000 1.0
C      1  0.5991580000000  0.2978120000000  0.5257530000000 1.0
C      1  0.5993960000000  0.6249460000000  0.6629070000000 1.0
C      1  0.3976180000000  0.5294690000000  0.4038140000000 1.0
C      1  0.3960720000000  0.4022250000000  0.5214240000000 1.0
C      1  0.3962020000000  0.5676590000000  0.5727900000000 1.0
C      1  0.6040490000000  0.5298120000000  0.4050880000000 1.0
C      1  0.6039180000000  0.4026900000000  0.5226180000000 1.0
C      1  0.6026340000000  0.5679250000000  0.5743060000000 1.0
C      1  0.5758810000000  0.8167250000000  0.3821450000000 1.0
C      1  0.5780850000000  0.2359100000000  0.2863580000000 1.0
C      1  0.5778790000000  0.4468460000000  0.8349720000000 1.0
C      1  0.4211290000000  0.8167710000000  0.3773850000000 1.0
C      1  0.4238420000000  0.2389160000000  0.2849070000000 1.0
C      1  0.4230440000000  0.4455220000000  0.8345770000000 1.0
C      1  0.5480940000000  0.5626730000000  0.7261160000000 1.0
C      1  0.5478530000000  0.6648670000000  0.3335570000000 1.0
C      1  0.5483340000000  0.2728360000000  0.4411360000000 1.0
C      1  0.4519020000000  0.5620820000000  0.7260270000000 1.0
C      1  0.4516440000000  0.6643980000000  0.3324580000000 1.0
C      1  0.4520140000000  0.2730970000000  0.4405800000000 1.0
C      1  0.5464440000000  0.5744800000000  0.4819290000000 1.0
C      1  0.5466920000000  0.4466890000000  0.4450120000000 1.0
C      1  0.5455390000000  0.4786010000000  0.5741430000000 1.0
C      1  0.4542300000000  0.5742550000000  0.4812650000000 1.0
C      1  0.4543590000000  0.4464300000000  0.4444040000000 1.0
C      1  0.4532320000000  0.4784060000000  0.5735050000000 1.0
C      1  0.5402910000000  0.4905730000000  0.2930640000000 1.0
C      1  0.5409050000000  0.3276120000000  0.6129450000000 1.0
C      1  0.5423570000000  0.6866690000000  0.5903850000000 1.0
C      1  0.4578160000000  0.4849620000000  0.2930400000000 1.0
C      1  0.4585360000000  0.3275300000000  0.6124730000000 1.0
C      1  0.4598550000000  0.6841100000000  0.5950380000000 1.0
C      1  0.6462210000000  0.4316690000000  0.6914290000000 1.0
C      1  0.6446250000000  0.6987630000000  0.4651630000000 1.0
C      1  0.6458930000000  0.3683380000000  0.3449280000000 1.0
C      1  0.3543180000000  0.4312910000000  0.6908990000000 1.0
C      1  0.3537260000000  0.7000580000000  0.4632270000000 1.0
C      1  0.3550290000000  0.3699070000000  0.3451380000000 1.0
C      1  0.3536520000000  0.3351820000000  0.6280430000000 1.0
C      1  0.3560170000000  0.6942190000000  0.5775770000000 1.0
C      1  0.3508670000000  0.4728690000000  0.2931010000000 1.0
C      1  0.6456280000000  0.3352040000000  0.6292140000000 1.0
C      1  0.6495060000000  0.6920840000000  0.5803260000000 1.0
C      1  0.6441500000000  0.4704870000000  0.2931510000000 1.0
C      1  0.6838850000000  0.4353850000000  0.5911820000000 1.0
C      1  0.6826120000000  0.6090700000000  0.5097670000000 1.0
C      1  0.6830150000000  0.4531820000000  0.3986410000000 1.0
C      1  0.3168330000000  0.4361160000000  0.5905970000000 1.0
C      1  0.3167060000000  0.6113350000000  0.5103310000000 1.0
C      1  0.3171260000000  0.4536790000000  0.4001340000000 1.0
END
