TITL C-3036480-97-1103 -2.61826731787492e-06 3375 -333.890178958196 0 0 60 (T23) n - 1
REM
REM in /home/bkarasulu/work/CARBON/AIRSS/Generating-Clusters/REBO/Higher-Symm/Only-C60
REM
REM
REM
REM
REM
REM ./C.cell (a2850807a9bf4ad07a5b6933b78d9264)
REM AIRSS Version 0.9.1 bugfix July 2018 build 013d7b7c2542+ Fri, 06 Jul 2018 19:26:36 +0100
REM compiler GCC version 9.2.1 20190827 (Red Hat 9.2.1-1)
REM options -cpp -mtune=generic -march=x86-64 -g -O0 -fpre-include=/usr/include/finclude/math-vector-fortran.h
REM seed 1273698873 -803517080 -243181152 -2103677266 -877179761 -735966781 1200882025 1074055613 -112603226 1632781230 1424968637 -1700679448 -1729309412 -1716434016 -1951794328 -1646311338 -1568875670 -600204822 -1869352787 762449052 -1780562235 305233285 -694843050 -1406944846 -1012041613 -1876612694 716481552 -761348662 305181976 524484035 1678847468 210687311 726797908
REM
CELL 1.54180   15.00000   15.00000   15.00000   90.00000   90.00000   90.00000
LATT -1
SFAC C  
C      1  0.5382010000000  0.2717640000000  0.4717310000000 1.0
C      1  0.4717310000000  0.5382000000000  0.2717640000000 1.0
C      1  0.2717640000000  0.4717310000000  0.5382010000000 1.0
C      1  0.4617990000000  0.2717640000000  0.5282690000000 1.0
C      1  0.5382010000000  0.7282360000000  0.5282690000000 1.0
C      1  0.4618000000000  0.7282360000000  0.4717310000000 1.0
C      1  0.5282690000000  0.5382010000000  0.7282360000000 1.0
C      1  0.4717310000000  0.4618000000000  0.7282360000000 1.0
C      1  0.5282690000000  0.4617990000000  0.2717640000000 1.0
C      1  0.7282360000000  0.4717310000000  0.4618000000000 1.0
C      1  0.2717640000000  0.5282680000000  0.4618000000000 1.0
C      1  0.7282360000000  0.5282690000000  0.5382010000000 1.0
C      1  0.6403460000000  0.7031640000000  0.5098870000000 1.0
C      1  0.5098870000000  0.6403460000000  0.7031640000000 1.0
C      1  0.7031640000000  0.5098870000000  0.6403460000000 1.0
C      1  0.3596540000000  0.7031650000000  0.4901130000000 1.0
C      1  0.6403460000000  0.2968350000000  0.4901130000000 1.0
C      1  0.3596540000000  0.2968360000000  0.5098870000000 1.0
C      1  0.4901120000000  0.6403460000000  0.2968350000000 1.0
C      1  0.5098870000000  0.3596540000000  0.2968360000000 1.0
C      1  0.4901130000000  0.3596540000000  0.7031640000000 1.0
C      1  0.2968350000000  0.5098870000000  0.3596540000000 1.0
C      1  0.7031640000000  0.4901130000000  0.3596540000000 1.0
C      1  0.2968360000000  0.4901130000000  0.6403460000000 1.0
C      1  0.5286450000000  0.3865850000000  0.5381890000000 1.0
C      1  0.5381890000000  0.5286450000000  0.3865850000000 1.0
C      1  0.3865850000000  0.5381890000000  0.5286450000000 1.0
C      1  0.4713550000000  0.3865850000000  0.4618110000000 1.0
C      1  0.5286450000000  0.6134150000000  0.4618110000000 1.0
C      1  0.4713550000000  0.6134150000000  0.5381890000000 1.0
C      1  0.4618110000000  0.5286450000000  0.6134150000000 1.0
C      1  0.5381890000000  0.4713550000000  0.6134140000000 1.0
C      1  0.4618110000000  0.4713550000000  0.3865850000000 1.0
C      1  0.6134150000000  0.5381890000000  0.4713550000000 1.0
C      1  0.3865850000000  0.4618110000000  0.4713550000000 1.0
C      1  0.6134140000000  0.4618110000000  0.5286450000000 1.0
C      1  0.3820710000000  0.5758060000000  0.3307760000000 1.0
C      1  0.3307750000000  0.3820700000000  0.5758070000000 1.0
C      1  0.5758060000000  0.3307750000000  0.3820710000000 1.0
C      1  0.6179300000000  0.5758070000000  0.6692260000000 1.0
C      1  0.3820710000000  0.4241940000000  0.6692250000000 1.0
C      1  0.6179300000000  0.4241940000000  0.3307750000000 1.0
C      1  0.6692250000000  0.3820710000000  0.4241940000000 1.0
C      1  0.3307760000000  0.6179290000000  0.4241950000000 1.0
C      1  0.6692260000000  0.6179300000000  0.5758070000000 1.0
C      1  0.4241940000000  0.3307750000000  0.6179300000000 1.0
C      1  0.5758070000000  0.6692260000000  0.6179300000000 1.0
C      1  0.4241940000000  0.6692240000000  0.3820710000000 1.0
C      1  0.3624910000000  0.5677130000000  0.6554310000000 1.0
C      1  0.6554310000000  0.3624910000000  0.5677130000000 1.0
C      1  0.5677130000000  0.6554310000000  0.3624910000000 1.0
C      1  0.6375090000000  0.5677130000000  0.3445690000000 1.0
C      1  0.3624910000000  0.4322870000000  0.3445690000000 1.0
C      1  0.6375090000000  0.4322870000000  0.6554310000000 1.0
C      1  0.3445690000000  0.3624910000000  0.4322870000000 1.0
C      1  0.6554310000000  0.6375090000000  0.4322860000000 1.0
C      1  0.3445690000000  0.6375090000000  0.5677130000000 1.0
C      1  0.4322860000000  0.6554310000000  0.6375090000000 1.0
C      1  0.5677130000000  0.3445690000000  0.6375090000000 1.0
C      1  0.4322870000000  0.3445690000000  0.3624900000000 1.0
END
