TITL C-3036484-3770-806 4.20417533256185e-06 3375 -353.396494916073 0 0 60 (C1) n - 1
REM
REM in /home/bkarasulu/work/CARBON/AIRSS/Generating-Clusters/REBO/Higher-Symm/Only-C60
REM
REM
REM
REM
REM
REM ./C.cell (a2850807a9bf4ad07a5b6933b78d9264)
REM AIRSS Version 0.9.1 bugfix July 2018 build 013d7b7c2542+ Fri, 06 Jul 2018 19:26:36 +0100
REM compiler GCC version 9.2.1 20190827 (Red Hat 9.2.1-1)
REM options -cpp -mtune=generic -march=x86-64 -g -O0 -fpre-include=/usr/include/finclude/math-vector-fortran.h
REM seed -1149465276 425585494 -675331869 -1773734724 941581760 -1330961274 874752424 -699632074 1668179919 1422251833 -1279788302 -387437179 312503861 -897641796 1303893374 -1729049586 -1047945885 187855011 17980550 -1136196318 -233713943 -1365877464 1148551551 -852661887 -134659620 1914092310 -243464324 995270780 -1167379988 1346864147 -736892102 1723676617 -1177391244
REM
CELL 1.54180   15.00000   15.00000   15.00000   90.00000   90.00000   90.00000
LATT -1
SFAC C  
C      1  0.7046610000000  0.5628440000000  0.5222730000000 1.0
C      1  0.7053130000000  0.4519600000000  0.5459820000000 1.0
C      1  0.7073480000000  0.4864060000000  0.4385030000000 1.0
C      1  0.3752830000000  0.4551090000000  0.3038870000000 1.0
C      1  0.3848900000000  0.7323340000000  0.5499130000000 1.0
C      1  0.3906710000000  0.3178180000000  0.6670620000000 1.0
C      1  0.3625340000000  0.4999460000000  0.4642970000000 1.0
C      1  0.3596770000000  0.5785850000000  0.5322150000000 1.0
C      1  0.3605410000000  0.4220630000000  0.5336090000000 1.0
C      1  0.5896000000000  0.3567990000000  0.3537490000000 1.0
C      1  0.5965730000000  0.6969090000000  0.4390500000000 1.0
C      1  0.5907660000000  0.4526540000000  0.7004600000000 1.0
C      1  0.5206880000000  0.5966840000000  0.4966760000000 1.0
C      1  0.5228550000000  0.4431640000000  0.5861740000000 1.0
C      1  0.5242240000000  0.4500450000000  0.4226720000000 1.0
C      1  0.5497730000000  0.3185580000000  0.6239510000000 1.0
C      1  0.5328930000000  0.4960960000000  0.2979770000000 1.0
C      1  0.5393840000000  0.6917690000000  0.5878900000000 1.0
C      1  0.4513520000000  0.5229070000000  0.4099780000000 1.0
C      1  0.4530880000000  0.5898340000000  0.5822920000000 1.0
C      1  0.4570550000000  0.3726700000000  0.5383330000000 1.0
C      1  0.5862440000000  0.2875180000000  0.4342930000000 1.0
C      1  0.5870450000000  0.6528540000000  0.3438110000000 1.0
C      1  0.5772210000000  0.5563580000000  0.7098080000000 1.0
C      1  0.2923600000000  0.4541130000000  0.6189480000000 1.0
C      1  0.2731630000000  0.3736540000000  0.3991870000000 1.0
C      1  0.2785070000000  0.6815800000000  0.4347670000000 1.0
C      1  0.5398550000000  0.3739790000000  0.7026510000000 1.0
C      1  0.5281890000000  0.3997220000000  0.2948690000000 1.0
C      1  0.5410260000000  0.7376810000000  0.5030240000000 1.0
C      1  0.6992860000000  0.6158860000000  0.6140010000000 1.0
C      1  0.7063160000000  0.3451050000000  0.5394200000000 1.0
C      1  0.7039120000000  0.5349220000000  0.3447540000000 1.0
C      1  0.3188970000000  0.6644490000000  0.5194670000000 1.0
C      1  0.3183700000000  0.3536210000000  0.6146160000000 1.0
C      1  0.3148910000000  0.4573520000000  0.3801740000000 1.0
C      1  0.4335530000000  0.3733520000000  0.3016560000000 1.0
C      1  0.4481360000000  0.7559990000000  0.4749360000000 1.0
C      1  0.4432820000000  0.3848940000000  0.7219690000000 1.0
C      1  0.4929330000000  0.6269670000000  0.3930160000000 1.0
C      1  0.4890070000000  0.5226700000000  0.6505970000000 1.0
C      1  0.4930350000000  0.3466460000000  0.4447950000000 1.0
C      1  0.5923210000000  0.5986420000000  0.5836770000000 1.0
C      1  0.5987620000000  0.3724300000000  0.5452060000000 1.0
C      1  0.5961950000000  0.5239750000000  0.3765570000000 1.0
C      1  0.4291590000000  0.7066610000000  0.3933600000000 1.0
C      1  0.4189540000000  0.4784950000000  0.7113780000000 1.0
C      1  0.4205200000000  0.3167540000000  0.3788780000000 1.0
C      1  0.3304580000000  0.3008700000000  0.4033890000000 1.0
C      1  0.3385220000000  0.7010270000000  0.3670980000000 1.0
C      1  0.3292250000000  0.5004350000000  0.6918800000000 1.0
C      1  0.6542120000000  0.6102490000000  0.7008850000000 1.0
C      1  0.6657010000000  0.2750710000000  0.4839300000000 1.0
C      1  0.6630050000000  0.6139340000000  0.3046690000000 1.0
C      1  0.4441240000000  0.6910370000000  0.6197200000000 1.0
C      1  0.4588510000000  0.2833740000000  0.6020430000000 1.0
C      1  0.4391660000000  0.5339950000000  0.2990870000000 1.0
C      1  0.6283080000000  0.4132230000000  0.4446740000000 1.0
C      1  0.6263300000000  0.5909780000000  0.4551040000000 1.0
C      1  0.6217890000000  0.4943740000000  0.6007630000000 1.0
END
