TITL C-3036481-494-902 7.03501474618669e-06 3375 -347.75271734107 0 0 60 (S4) n - 1
REM
REM in /home/bkarasulu/work/CARBON/AIRSS/Generating-Clusters/REBO/Higher-Symm/Only-C60
REM
REM
REM
REM
REM
REM ./C.cell (a2850807a9bf4ad07a5b6933b78d9264)
REM AIRSS Version 0.9.1 bugfix July 2018 build 013d7b7c2542+ Fri, 06 Jul 2018 19:26:36 +0100
REM compiler GCC version 9.2.1 20190827 (Red Hat 9.2.1-1)
REM options -cpp -mtune=generic -march=x86-64 -g -O0 -fpre-include=/usr/include/finclude/math-vector-fortran.h
REM seed 765109469 -693970274 -435639018 -2049549803 -721228921 973126441 1043729066 592735829 -327463887 285605034 1321536170 -1830132361 -1942495481 345241216 -1410082412 944412311 1037822276 -353749840 701614058 -2036908733 -1869507912 300319938 975257082 -1897923487 -247611357 1616583907 277582662 -2089535462 456736199 455389460 -1350354532 -1650444715 -2107258454
REM
CELL 1.54180   15.00000   15.00000   15.00000   90.00000   90.00000   90.00000
LATT -1
SFAC C  
C      1  0.5094580000000  0.7312930000000  0.5361760000000 1.0
C      1  0.4905430000000  0.5361760000000  0.2687070000000 1.0
C      1  0.5094590000000  0.2687070000000  0.4638240000000 1.0
C      1  0.4905400000000  0.4638240000000  0.7312930000000 1.0
C      1  0.6139620000000  0.3304120000000  0.3560460000000 1.0
C      1  0.3860390000000  0.3560450000000  0.6695870000000 1.0
C      1  0.6139590000000  0.6695880000000  0.6439560000000 1.0
C      1  0.3860410000000  0.6439550000000  0.3304120000000 1.0
C      1  0.3393800000000  0.4534880000000  0.3962990000000 1.0
C      1  0.6606200000000  0.3963000000000  0.5465130000000 1.0
C      1  0.3393790000000  0.5465120000000  0.6036990000000 1.0
C      1  0.6606210000000  0.6037000000000  0.4534890000000 1.0
C      1  0.3992970000000  0.6340860000000  0.4278480000000 1.0
C      1  0.6007040000000  0.4278490000000  0.3659150000000 1.0
C      1  0.3992960000000  0.3659140000000  0.5721510000000 1.0
C      1  0.6007020000000  0.5721510000000  0.6340860000000 1.0
C      1  0.3316200000000  0.4937700000000  0.3118160000000 1.0
C      1  0.6683810000000  0.3118170000000  0.5062310000000 1.0
C      1  0.3316180000000  0.5062300000000  0.6881820000000 1.0
C      1  0.6683810000000  0.6881830000000  0.4937710000000 1.0
C      1  0.5282740000000  0.3563560000000  0.7286380000000 1.0
C      1  0.4717230000000  0.7286380000000  0.6436440000000 1.0
C      1  0.5282770000000  0.6436450000000  0.2713630000000 1.0
C      1  0.4717260000000  0.2713620000000  0.3563550000000 1.0
C      1  0.3808390000000  0.7216110000000  0.6501330000000 1.0
C      1  0.6191610000000  0.6501340000000  0.2783900000000 1.0
C      1  0.3808410000000  0.2783890000000  0.3498660000000 1.0
C      1  0.6191590000000  0.3498670000000  0.7216120000000 1.0
C      1  0.4523300000000  0.6366950000000  0.5497380000000 1.0
C      1  0.5476700000000  0.5497390000000  0.3633050000000 1.0
C      1  0.4523310000000  0.3633050000000  0.4502610000000 1.0
C      1  0.5476690000000  0.4502610000000  0.6366950000000 1.0
C      1  0.4951680000000  0.4120950000000  0.5432880000000 1.0
C      1  0.5048320000000  0.5432880000000  0.5879050000000 1.0
C      1  0.4951680000000  0.5879050000000  0.4567120000000 1.0
C      1  0.5048330000000  0.4567120000000  0.4120950000000 1.0
C      1  0.6552740000000  0.5874520000000  0.3527580000000 1.0
C      1  0.3447280000000  0.3527570000000  0.4125470000000 1.0
C      1  0.6552720000000  0.4125480000000  0.6472440000000 1.0
C      1  0.3447270000000  0.6472430000000  0.5874510000000 1.0
C      1  0.3401110000000  0.6691620000000  0.4855780000000 1.0
C      1  0.6598900000000  0.4855800000000  0.3308380000000 1.0
C      1  0.3401110000000  0.3308370000000  0.5144190000000 1.0
C      1  0.6598880000000  0.5144210000000  0.6691640000000 1.0
C      1  0.5922700000000  0.5447560000000  0.4880240000000 1.0
C      1  0.4077300000000  0.4880230000000  0.4552440000000 1.0
C      1  0.5922700000000  0.4552440000000  0.5119770000000 1.0
C      1  0.4077300000000  0.5119770000000  0.5447550000000 1.0
C      1  0.5253450000000  0.3364640000000  0.3049500000000 1.0
C      1  0.4746560000000  0.3049500000000  0.6635360000000 1.0
C      1  0.5253420000000  0.6635370000000  0.6950500000000 1.0
C      1  0.4746570000000  0.6950500000000  0.3364630000000 1.0
C      1  0.4951740000000  0.2670170000000  0.5761540000000 1.0
C      1  0.5048240000000  0.5761540000000  0.7329830000000 1.0
C      1  0.4951750000000  0.7329830000000  0.4238460000000 1.0
C      1  0.5048270000000  0.4238460000000  0.2670170000000 1.0
C      1  0.6101490000000  0.2817660000000  0.4383610000000 1.0
C      1  0.3898500000000  0.4383610000000  0.7182340000000 1.0
C      1  0.6101480000000  0.7182340000000  0.5616400000000 1.0
C      1  0.3898530000000  0.5616390000000  0.2817650000000 1.0
END
