TITL C-3036480-97-476 1.25112788725332e-05 3375 -354.997728923544 0 0 60 (C1) n - 1
REM
REM in /home/bkarasulu/work/CARBON/AIRSS/Generating-Clusters/REBO/Higher-Symm/Only-C60
REM
REM
REM
REM
REM
REM ./C.cell (a2850807a9bf4ad07a5b6933b78d9264)
REM AIRSS Version 0.9.1 bugfix July 2018 build 013d7b7c2542+ Fri, 06 Jul 2018 19:26:36 +0100
REM compiler GCC version 9.2.1 20190827 (Red Hat 9.2.1-1)
REM options -cpp -mtune=generic -march=x86-64 -g -O0 -fpre-include=/usr/include/finclude/math-vector-fortran.h
REM seed 1089518901 1956215459 -204533146 1352940925 2097745585 1310545824 -488211573 -2098911576 1374589493 -1667432875 875846972 655920125 951766767 68615769 753085997 -2096509895 -1683297330 319882109 -265940554 796923870 1829624147 -1055133958 1464265490 -345114493 2140627932 1620330323 1959369991 -1278812070 1779194047 -1076747893 -382410377 859964512 -1847890609
REM
CELL 1.54180   15.00000   15.00000   15.00000   90.00000   90.00000   90.00000
LATT -1
SFAC C  
C      1  0.4597820000000  0.6385020000000  0.2640360000000 1.0
C      1  0.5426570000000  0.6440360000000  0.2669350000000 1.0
C      1  0.6428770000000  0.3139390000000  0.5524560000000 1.0
C      1  0.3459880000000  0.3128900000000  0.5548060000000 1.0
C      1  0.5457370000000  0.4449680000000  0.2730690000000 1.0
C      1  0.4557080000000  0.4430750000000  0.2743570000000 1.0
C      1  0.3823630000000  0.7379950000000  0.4878050000000 1.0
C      1  0.6224850000000  0.7460620000000  0.4937680000000 1.0
C      1  0.6831390000000  0.6785880000000  0.5104630000000 1.0
C      1  0.3134490000000  0.6771250000000  0.5055970000000 1.0
C      1  0.4613010000000  0.8031840000000  0.4653310000000 1.0
C      1  0.5547570000000  0.8213090000000  0.4774870000000 1.0
C      1  0.6043670000000  0.6473960000000  0.3503970000000 1.0
C      1  0.3944510000000  0.6384150000000  0.3447020000000 1.0
C      1  0.4556530000000  0.6926880000000  0.6948920000000 1.0
C      1  0.5452730000000  0.6931310000000  0.6981440000000 1.0
C      1  0.6646140000000  0.5518240000000  0.3393550000000 1.0
C      1  0.3321270000000  0.5441240000000  0.3349920000000 1.0
C      1  0.4566450000000  0.5544910000000  0.5091460000000 1.0
C      1  0.5371170000000  0.5568950000000  0.5129450000000 1.0
C      1  0.6141590000000  0.2283560000000  0.5819130000000 1.0
C      1  0.3959240000000  0.2364680000000  0.5845410000000 1.0
C      1  0.4590590000000  0.4461450000000  0.7381340000000 1.0
C      1  0.5505530000000  0.4489860000000  0.7407360000000 1.0
C      1  0.6014800000000  0.3583320000000  0.2939260000000 1.0
C      1  0.4079150000000  0.3534100000000  0.2943970000000 1.0
C      1  0.4735500000000  0.4658210000000  0.6072280000000 1.0
C      1  0.5535940000000  0.4605620000000  0.6079840000000 1.0
C      1  0.6702920000000  0.4584470000000  0.5056700000000 1.0
C      1  0.3195670000000  0.4571220000000  0.5040560000000 1.0
C      1  0.3282070000000  0.4036890000000  0.5828990000000 1.0
C      1  0.6700200000000  0.4015760000000  0.5819450000000 1.0
C      1  0.3528730000000  0.5512100000000  0.5077260000000 1.0
C      1  0.6407180000000  0.5534950000000  0.5130020000000 1.0
C      1  0.4272280000000  0.2526350000000  0.4242280000000 1.0
C      1  0.5416310000000  0.2507680000000  0.4269520000000 1.0
C      1  0.4443350000000  0.7099240000000  0.4016220000000 1.0
C      1  0.5536560000000  0.7184480000000  0.4112680000000 1.0
C      1  0.3552240000000  0.3172400000000  0.4567510000000 1.0
C      1  0.6150140000000  0.3248160000000  0.4583200000000 1.0
C      1  0.3189440000000  0.6114910000000  0.5927650000000 1.0
C      1  0.6793970000000  0.6132940000000  0.5970120000000 1.0
C      1  0.6741360000000  0.5558970000000  0.6938000000000 1.0
C      1  0.3373740000000  0.5510710000000  0.6861910000000 1.0
C      1  0.3808370000000  0.6526470000000  0.6739390000000 1.0
C      1  0.6217690000000  0.6545420000000  0.6807460000000 1.0
C      1  0.6115640000000  0.5185980000000  0.7784280000000 1.0
C      1  0.3881800000000  0.5064960000000  0.7728860000000 1.0
C      1  0.3610920000000  0.4485810000000  0.3361230000000 1.0
C      1  0.6354780000000  0.4581460000000  0.3367400000000 1.0
C      1  0.5519080000000  0.1898600000000  0.5217110000000 1.0
C      1  0.4543650000000  0.2030800000000  0.5155830000000 1.0
C      1  0.3806240000000  0.4517000000000  0.6528770000000 1.0
C      1  0.6409270000000  0.4506520000000  0.6692240000000 1.0
C      1  0.3176810000000  0.6068020000000  0.4224780000000 1.0
C      1  0.6776540000000  0.6102870000000  0.4288730000000 1.0
C      1  0.3356500000000  0.4044570000000  0.4269380000000 1.0
C      1  0.6431390000000  0.4094870000000  0.4287750000000 1.0
C      1  0.4568660000000  0.2820310000000  0.3291390000000 1.0
C      1  0.5569310000000  0.2827920000000  0.3217900000000 1.0
END
