TITL C-3036482-790-550 6.01946741495074e-05 3375 -345.128663589404 0 0 60 (Ci) n - 1
REM
REM in /home/bkarasulu/work/CARBON/AIRSS/Generating-Clusters/REBO/Higher-Symm/Only-C60
REM
REM
REM
REM
REM
REM ./C.cell (a2850807a9bf4ad07a5b6933b78d9264)
REM AIRSS Version 0.9.1 bugfix July 2018 build 013d7b7c2542+ Fri, 06 Jul 2018 19:26:36 +0100
REM compiler GCC version 9.2.1 20190827 (Red Hat 9.2.1-1)
REM options -cpp -mtune=generic -march=x86-64 -g -O0 -fpre-include=/usr/include/finclude/math-vector-fortran.h
REM seed 398968099 -681303792 -702355387 1438484047 1216623697 -459369387 -1188997307 585896109 741381133 -132039085 -1371009920 664904015 -948614989 1199948133 -680755122 -202345935 757187877 222285512 898598160 1881397636 597095935 1971279584 -1545971467 -1697608299 -1805688189 1379678731 -126725354 -581150058 -909255929 -219394075 1812252862 -1903678499 -1584168855
REM
CELL 1.54180   15.00000   15.00000   15.00000   90.00000   90.00000   90.00000
LATT -1
SFAC C  
C      1  0.6655720000000  0.5159110000000  0.2291680000000 1.0
C      1  0.4653510000000  0.4880000000000  0.1815170000000 1.0
C      1  0.2998730000000  0.5211460000000  0.2520750000000 1.0
C      1  0.1874860000000  0.4843110000000  0.4299530000000 1.0
C      1  0.2009460000000  0.5254830000000  0.6086050000000 1.0
C      1  0.3344250000000  0.4840900000000  0.7708310000000 1.0
C      1  0.5346480000000  0.5119990000000  0.8184830000000 1.0
C      1  0.7001250000000  0.4788550000000  0.7479220000000 1.0
C      1  0.8125160000000  0.5156910000000  0.5700440000000 1.0
C      1  0.7990590000000  0.4745150000000  0.3913950000000 1.0
C      1  0.5638950000000  0.5769790000000  0.7394770000000 1.0
C      1  0.6976370000000  0.4294390000000  0.6574460000000 1.0
C      1  0.7473600000000  0.5775690000000  0.5131910000000 1.0
C      1  0.7117840000000  0.4271360000000  0.3634650000000 1.0
C      1  0.5856590000000  0.5719520000000  0.2628330000000 1.0
C      1  0.4361060000000  0.4230210000000  0.2605220000000 1.0
C      1  0.3023630000000  0.5705650000000  0.3425490000000 1.0
C      1  0.2526350000000  0.4224250000000  0.4868090000000 1.0
C      1  0.2882150000000  0.5728660000000  0.6365390000000 1.0
C      1  0.4143420000000  0.4280490000000  0.7371690000000 1.0
C      1  0.5263860000000  0.5992630000000  0.4224620000000 1.0
C      1  0.4808290000000  0.3984390000000  0.4235490000000 1.0
C      1  0.4346040000000  0.5976060000000  0.4478760000000 1.0
C      1  0.4213160000000  0.3982540000000  0.4979570000000 1.0
C      1  0.4300860000000  0.5987650000000  0.5429520000000 1.0
C      1  0.4736180000000  0.4007370000000  0.5775410000000 1.0
C      1  0.5191710000000  0.6015590000000  0.5764540000000 1.0
C      1  0.5653950000000  0.4023950000000  0.5521230000000 1.0
C      1  0.5786840000000  0.6017440000000  0.5020450000000 1.0
C      1  0.5699160000000  0.4012380000000  0.4570470000000 1.0
C      1  0.3678530000000  0.5275050000000  0.5860810000000 1.0
C      1  0.4453080000000  0.4718710000000  0.6475450000000 1.0
C      1  0.5409760000000  0.5326050000000  0.6501170000000 1.0
C      1  0.6234990000000  0.4743500000000  0.5986580000000 1.0
C      1  0.6554830000000  0.5327800000000  0.5071230000000 1.0
C      1  0.6321650000000  0.4724500000000  0.4139070000000 1.0
C      1  0.5546540000000  0.5281400000000  0.3524360000000 1.0
C      1  0.4590420000000  0.4674030000000  0.3498810000000 1.0
C      1  0.3765210000000  0.5256890000000  0.4012830000000 1.0
C      1  0.3445050000000  0.4672080000000  0.4929740000000 1.0
C      1  0.2854990000000  0.6659650000000  0.6220130000000 1.0
C      1  0.3942990000000  0.3365560000000  0.7273130000000 1.0
C      1  0.5445490000000  0.6675430000000  0.7464800000000 1.0
C      1  0.6832990000000  0.3366620000000  0.6671260000000 1.0
C      1  0.7473740000000  0.6689060000000  0.5299980000000 1.0
C      1  0.7144990000000  0.3340350000000  0.3779870000000 1.0
C      1  0.6057030000000  0.6634450000000  0.2726860000000 1.0
C      1  0.4554510000000  0.3324560000000  0.2535190000000 1.0
C      1  0.3167000000000  0.6633430000000  0.3328690000000 1.0
C      1  0.2526200000000  0.3310880000000  0.4699980000000 1.0
C      1  0.2955150000000  0.5479030000000  0.7361900000000 1.0
C      1  0.4850350000000  0.4461860000000  0.8102570000000 1.0
C      1  0.6570010000000  0.5430060000000  0.7768330000000 1.0
C      1  0.7897420000000  0.4511510000000  0.6164820000000 1.0
C      1  0.8134280000000  0.5400990000000  0.4394090000000 1.0
C      1  0.7044810000000  0.4520980000000  0.2638160000000 1.0
C      1  0.5149650000000  0.5538140000000  0.1897420000000 1.0
C      1  0.3430010000000  0.4569940000000  0.2231680000000 1.0
C      1  0.2102620000000  0.5488480000000  0.3835200000000 1.0
C      1  0.1865690000000  0.4598980000000  0.5605910000000 1.0
END
