TITL C-3036480-97-368 0.0405295161908856 3375 -333.876122612578 0 0 60 (C4) n - 1
REM
REM in /home/bkarasulu/work/CARBON/AIRSS/Generating-Clusters/REBO/Higher-Symm/Only-C60
REM
REM
REM
REM
REM
REM ./C.cell (a2850807a9bf4ad07a5b6933b78d9264)
REM AIRSS Version 0.9.1 bugfix July 2018 build 013d7b7c2542+ Fri, 06 Jul 2018 19:26:36 +0100
REM compiler GCC version 9.2.1 20190827 (Red Hat 9.2.1-1)
REM options -cpp -mtune=generic -march=x86-64 -g -O0 -fpre-include=/usr/include/finclude/math-vector-fortran.h
REM seed 1804355205 1315935691 548952781 715689573 -1874205729 -1811547809 -350589214 1947790562 1408384613 -1768191190 251587562 -1963543370 356552160 1276113352 -812430054 776613122 666147657 -82824232 1737986258 520167824 -973333977 1987185506 1467868982 2063617364 -1489337873 -1828093992 1525844575 531054924 1604240421 1860150973 769448143 -539019274 -1278441033
REM
CELL 1.54180   15.00000   15.00000   15.00000   90.00000   90.00000   90.00000
LATT -1
SFAC C  
C      1  0.3733830000000  0.4944730000000  0.4437010000000 1.0
C      1  0.4437010000000  0.4944720000000  0.6266200000000 1.0
C      1  0.6266280000000  0.4944900000000  0.5563170000000 1.0
C      1  0.5563110000000  0.4944830000000  0.3733770000000 1.0
C      1  0.4249540000000  0.3330010000000  0.4455140000000 1.0
C      1  0.4456230000000  0.3329470000000  0.5750710000000 1.0
C      1  0.5750150000000  0.3330410000000  0.5544660000000 1.0
C      1  0.5545050000000  0.3330160000000  0.4249340000000 1.0
C      1  0.5472430000000  0.6609800000000  0.4378710000000 1.0
C      1  0.4378710000000  0.6609800000000  0.4527570000000 1.0
C      1  0.4527570000000  0.6609800000000  0.5621280000000 1.0
C      1  0.5621290000000  0.6609800000000  0.5472420000000 1.0
C      1  0.7061830000000  0.6000200000000  0.4508410000000 1.0
C      1  0.4508410000000  0.6000200000000  0.2938160000000 1.0
C      1  0.2938160000000  0.6000200000000  0.5491580000000 1.0
C      1  0.5491580000000  0.6000200000000  0.7061840000000 1.0
C      1  0.4586470000000  0.5108330000000  0.2251690000000 1.0
C      1  0.2251680000000  0.5108380000000  0.5413540000000 1.0
C      1  0.5413530000000  0.5108290000000  0.7748280000000 1.0
C      1  0.7748310000000  0.5108320000000  0.4586470000000 1.0
C      1  0.5922600000000  0.4171280000000  0.2714850000000 1.0
C      1  0.2714870000000  0.4171270000000  0.4077400000000 1.0
C      1  0.4077380000000  0.4171250000000  0.7285110000000 1.0
C      1  0.7285120000000  0.4171270000000  0.5922630000000 1.0
C      1  0.3035690000000  0.6143020000000  0.3624960000000 1.0
C      1  0.3624960000000  0.6143020000000  0.6964300000000 1.0
C      1  0.6964280000000  0.6143020000000  0.6375050000000 1.0
C      1  0.6375040000000  0.6143030000000  0.3035690000000 1.0
C      1  0.6918530000000  0.5059410000000  0.6450930000000 1.0
C      1  0.6450920000000  0.5059490000000  0.3081440000000 1.0
C      1  0.3081470000000  0.5059400000000  0.3549100000000 1.0
C      1  0.3549080000000  0.5059290000000  0.6918510000000 1.0
C      1  0.2541220000000  0.4286710000000  0.5016190000000 1.0
C      1  0.5016340000000  0.4286890000000  0.7459480000000 1.0
C      1  0.7459630000000  0.4286860000000  0.4983600000000 1.0
C      1  0.4983720000000  0.4286780000000  0.2540810000000 1.0
C      1  0.3489820000000  0.3783350000000  0.6547780000000 1.0
C      1  0.6547540000000  0.3783210000000  0.6510000000000 1.0
C      1  0.6509900000000  0.3783030000000  0.3452630000000 1.0
C      1  0.3452460000000  0.3783140000000  0.3489950000000 1.0
C      1  0.5643160000000  0.3860520000000  0.6762120000000 1.0
C      1  0.6761600000000  0.3860440000000  0.4356900000000 1.0
C      1  0.4356870000000  0.3860570000000  0.3238120000000 1.0
C      1  0.3237460000000  0.3860710000000  0.5643080000000 1.0
C      1  0.3631750000000  0.5321240000000  0.2699830000000 1.0
C      1  0.2699810000000  0.5321240000000  0.6368240000000 1.0
C      1  0.6368230000000  0.5321250000000  0.7300190000000 1.0
C      1  0.7300170000000  0.5321240000000  0.3631760000000 1.0
C      1  0.6228080000000  0.5788830000000  0.5105290000000 1.0
C      1  0.5105280000000  0.5788830000000  0.3771920000000 1.0
C      1  0.3771940000000  0.5788810000000  0.4894720000000 1.0
C      1  0.4894720000000  0.5788820000000  0.6228080000000 1.0
C      1  0.5180520000000  0.4058240000000  0.3836550000000 1.0
C      1  0.3835830000000  0.4058910000000  0.4819100000000 1.0
C      1  0.4819700000000  0.4058380000000  0.6163010000000 1.0
C      1  0.6163110000000  0.4058280000000  0.5180710000000 1.0
C      1  0.3888750000000  0.6534110000000  0.3617960000000 1.0
C      1  0.3617960000000  0.6534110000000  0.6111260000000 1.0
C      1  0.6111280000000  0.6534110000000  0.6382040000000 1.0
C      1  0.6382040000000  0.6534110000000  0.3888750000000 1.0
END
