TITL C-3036484-3770-133 -4.51422813044598e-06 3375 -352.742273666065 0 0 60 (C2) n - 1
REM
REM in /home/bkarasulu/work/CARBON/AIRSS/Generating-Clusters/REBO/Higher-Symm/Only-C60
REM
REM
REM
REM
REM
REM ./C.cell (a2850807a9bf4ad07a5b6933b78d9264)
REM AIRSS Version 0.9.1 bugfix July 2018 build 013d7b7c2542+ Fri, 06 Jul 2018 19:26:36 +0100
REM compiler GCC version 9.2.1 20190827 (Red Hat 9.2.1-1)
REM options -cpp -mtune=generic -march=x86-64 -g -O0 -fpre-include=/usr/include/finclude/math-vector-fortran.h
REM seed 51856592 693909615 1229865189 1123258828 949740873 -104866584 -1412332826 844890459 -1967580595 -1528520725 -1282800781 -873214972 1031267508 -419313878 -1741685365 -1312547036 1298046911 113628490 -1135388628 637412452 -674379264 -1190036628 1089909331 -782072211 -1277785933 -876603731 2052908298 -1328963933 -621692180 1239588038 -1729938543 -2042057132 1112935825
REM
CELL 1.54180   15.00000   15.00000   15.00000   90.00000   90.00000   90.00000
LATT -1
SFAC C  
C      1  0.4972120000000  0.5373360000000  0.3431000000000 1.0
C      1  0.4973390000000  0.3539300000000  0.4667560000000 1.0
C      1  0.4972120000000  0.4626640000000  0.6569000000000 1.0
C      1  0.4973390000000  0.6460700000000  0.5332440000000 1.0
C      1  0.3465130000000  0.5791980000000  0.6250930000000 1.0
C      1  0.3455890000000  0.6310950000000  0.4121810000000 1.0
C      1  0.3465130000000  0.4208020000000  0.3749070000000 1.0
C      1  0.3455890000000  0.3689050000000  0.5878190000000 1.0
C      1  0.4337280000000  0.6251070000000  0.3403730000000 1.0
C      1  0.4358710000000  0.3505430000000  0.3786590000000 1.0
C      1  0.4337280000000  0.3748930000000  0.6596270000000 1.0
C      1  0.4358710000000  0.6494570000000  0.6213410000000 1.0
C      1  0.6758140000000  0.3456430000000  0.4705430000000 1.0
C      1  0.6765010000000  0.4679460000000  0.6685440000000 1.0
C      1  0.6758140000000  0.6543570000000  0.5294570000000 1.0
C      1  0.6765010000000  0.5320540000000  0.3314560000000 1.0
C      1  0.5373440000000  0.4761170000000  0.5746230000000 1.0
C      1  0.5382600000000  0.5631760000000  0.5201040000000 1.0
C      1  0.5373440000000  0.5238830000000  0.4253770000000 1.0
C      1  0.5382600000000  0.4368240000000  0.4798960000000 1.0
C      1  0.7044160000000  0.5115420000000  0.4192040000000 1.0
C      1  0.7046620000000  0.4343590000000  0.4907230000000 1.0
C      1  0.7044160000000  0.4884580000000  0.5807960000000 1.0
C      1  0.7046620000000  0.5656410000000  0.5092770000000 1.0
C      1  0.3883650000000  0.7206690000000  0.5469040000000 1.0
C      1  0.3842180000000  0.5472710000000  0.2742300000000 1.0
C      1  0.3883650000000  0.2793310000000  0.4530960000000 1.0
C      1  0.3842180000000  0.4527290000000  0.7257700000000 1.0
C      1  0.6303570000000  0.5357380000000  0.7187970000000 1.0
C      1  0.6318070000000  0.7057540000000  0.4615080000000 1.0
C      1  0.6303570000000  0.4642620000000  0.2812030000000 1.0
C      1  0.6318070000000  0.2942460000000  0.5384920000000 1.0
C      1  0.5247920000000  0.5292500000000  0.7197270000000 1.0
C      1  0.5266040000000  0.7096590000000  0.4679250000000 1.0
C      1  0.5247920000000  0.4707500000000  0.2802730000000 1.0
C      1  0.5266040000000  0.2903410000000  0.5320750000000 1.0
C      1  0.6042610000000  0.6877610000000  0.3624960000000 1.0
C      1  0.6030150000000  0.3678860000000  0.3106270000000 1.0
C      1  0.6042610000000  0.3122390000000  0.6375040000000 1.0
C      1  0.6030150000000  0.6321140000000  0.6893730000000 1.0
C      1  0.5003720000000  0.6973130000000  0.3659380000000 1.0
C      1  0.4988640000000  0.3703930000000  0.3025570000000 1.0
C      1  0.5003720000000  0.3026870000000  0.6340620000000 1.0
C      1  0.4988640000000  0.6296070000000  0.6974430000000 1.0
C      1  0.3159600000000  0.4985880000000  0.6806410000000 1.0
C      1  0.3183310000000  0.6801250000000  0.4998300000000 1.0
C      1  0.3159600000000  0.5014120000000  0.3193590000000 1.0
C      1  0.3183310000000  0.3198750000000  0.5001700000000 1.0
C      1  0.2740690000000  0.3746390000000  0.4380460000000 1.0
C      1  0.2720300000000  0.4329690000000  0.6296080000000 1.0
C      1  0.2740690000000  0.6253610000000  0.5619540000000 1.0
C      1  0.2720300000000  0.5670310000000  0.3703920000000 1.0
C      1  0.4130070000000  0.4641810000000  0.4443340000000 1.0
C      1  0.4152550000000  0.4340980000000  0.5421010000000 1.0
C      1  0.4130070000000  0.5358190000000  0.5556660000000 1.0
C      1  0.4152550000000  0.5659020000000  0.4578990000000 1.0
C      1  0.6531510000000  0.3774650000000  0.6846410000000 1.0
C      1  0.6522930000000  0.6714920000000  0.6196060000000 1.0
C      1  0.6531510000000  0.6225350000000  0.3153590000000 1.0
C      1  0.6522930000000  0.3285080000000  0.3803940000000 1.0
END
