TITL C-3036484-3770-259 0.0289095178339462 3375 -337.097298174898 0 0 60 (C1) n - 1
REM
REM in /home/bkarasulu/work/CARBON/AIRSS/Generating-Clusters/REBO/Higher-Symm/Only-C60
REM
REM
REM
REM
REM
REM ./C.cell (a2850807a9bf4ad07a5b6933b78d9264)
REM AIRSS Version 0.9.1 bugfix July 2018 build 013d7b7c2542+ Fri, 06 Jul 2018 19:26:36 +0100
REM compiler GCC version 9.2.1 20190827 (Red Hat 9.2.1-1)
REM options -cpp -mtune=generic -march=x86-64 -g -O0 -fpre-include=/usr/include/finclude/math-vector-fortran.h
REM seed 1215545148 591014748 -1637323882 -261421648 -1295690417 1530926106 -1965261247 1265721698 -1330784836 1974093486 371318768 1763229553 -1465186706 1078320350 901574133 -15793265 -1466623629 -1345848631 -906352307 1048457643 92788854 -34990134 1539543587 -855562063 138850012 173296609 -722049556 642916832 -1013052314 2037683273 181525070 -232558250 -1719506434
REM
CELL 1.54180   15.00000   15.00000   15.00000   90.00000   90.00000   90.00000
LATT -1
SFAC C  
C      1  0.5467290000000  0.5529000000000  0.7142340000000 1.0
C      1  0.6568610000000  0.6372620000000  0.4119560000000 1.0
C      1  0.4563530000000  0.4705630000000  0.5343680000000 1.0
C      1  0.6527930000000  0.3070510000000  0.5582800000000 1.0
C      1  0.3578830000000  0.4952770000000  0.5091970000000 1.0
C      1  0.3874430000000  0.5241250000000  0.6731650000000 1.0
C      1  0.5305490000000  0.7473920000000  0.5295170000000 1.0
C      1  0.5596080000000  0.4760380000000  0.6383250000000 1.0
C      1  0.3950420000000  0.6856390000000  0.4240800000000 1.0
C      1  0.5608200000000  0.6059600000000  0.3602020000000 1.0
C      1  0.2778480000000  0.4327010000000  0.4640170000000 1.0
C      1  0.6412940000000  0.5704660000000  0.7502010000000 1.0
C      1  0.3670350000000  0.2945320000000  0.5219200000000 1.0
C      1  0.7442980000000  0.5042630000000  0.4978500000000 1.0
C      1  0.5863490000000  0.3940210000000  0.5868330000000 1.0
C      1  0.3748290000000  0.7050240000000  0.5268180000000 1.0
C      1  0.3221800000000  0.6271990000000  0.3668000000000 1.0
C      1  0.4527030000000  0.7264250000000  0.5775700000000 1.0
C      1  0.6635180000000  0.4256100000000  0.3863840000000 1.0
C      1  0.5765550000000  0.2727120000000  0.4876390000000 1.0
C      1  0.6611550000000  0.5684850000000  0.6488870000000 1.0
C      1  0.2190880000000  0.6042610000000  0.3836980000000 1.0
C      1  0.4593830000000  0.6803040000000  0.6608020000000 1.0
C      1  0.4908550000000  0.6878070000000  0.3677000000000 1.0
C      1  0.3268600000000  0.3412150000000  0.4298070000000 1.0
C      1  0.6247230000000  0.6890510000000  0.5301390000000 1.0
C      1  0.4230590000000  0.6119250000000  0.3172640000000 1.0
C      1  0.4602260000000  0.6124220000000  0.4846540000000 1.0
C      1  0.5616120000000  0.3108160000000  0.3199900000000 1.0
C      1  0.5887510000000  0.6255950000000  0.6099400000000 1.0
C      1  0.4988910000000  0.5703830000000  0.5680930000000 1.0
C      1  0.3154070000000  0.3777170000000  0.5553790000000 1.0
C      1  0.3167230000000  0.6423440000000  0.5676060000000 1.0
C      1  0.4246190000000  0.4178480000000  0.3100100000000 1.0
C      1  0.3649100000000  0.4277700000000  0.6234190000000 1.0
C      1  0.3866240000000  0.4633060000000  0.3948400000000 1.0
C      1  0.4652650000000  0.5140360000000  0.2929080000000 1.0
C      1  0.4343140000000  0.3412080000000  0.4182900000000 1.0
C      1  0.4664910000000  0.3266950000000  0.3199340000000 1.0
C      1  0.3328900000000  0.5546230000000  0.5857860000000 1.0
C      1  0.6100230000000  0.4009200000000  0.4755240000000 1.0
C      1  0.4681900000000  0.4483700000000  0.6971980000000 1.0
C      1  0.5764400000000  0.7163060000000  0.4307310000000 1.0
C      1  0.7070920000000  0.4051090000000  0.5360400000000 1.0
C      1  0.4799260000000  0.3007990000000  0.5115430000000 1.0
C      1  0.5917770000000  0.2613820000000  0.3975620000000 1.0
C      1  0.5895790000000  0.5250630000000  0.4316240000000 1.0
C      1  0.5387700000000  0.4683300000000  0.3564890000000 1.0
C      1  0.6984430000000  0.5311340000000  0.3985090000000 1.0
C      1  0.5057610000000  0.3467540000000  0.6809830000000 1.0
C      1  0.6049990000000  0.3966150000000  0.3099530000000 1.0
C      1  0.7039110000000  0.4970740000000  0.6036950000000 1.0
C      1  0.5889050000000  0.5166280000000  0.5360980000000 1.0
C      1  0.6722330000000  0.5897450000000  0.5136580000000 1.0
C      1  0.4249230000000  0.5567440000000  0.4120970000000 1.0
C      1  0.4551710000000  0.3719390000000  0.5897410000000 1.0
C      1  0.5966690000000  0.3050480000000  0.6570380000000 1.0
C      1  0.4630010000000  0.5944760000000  0.7002100000000 1.0
C      1  0.5029160000000  0.4214520000000  0.4533490000000 1.0
C      1  0.2887330000000  0.5231430000000  0.3994550000000 1.0
END
