TITL C-3036484-3770-271 -1.27090580032382e-06 3375 -341.36053099325 0 0 60 (C3) n - 1
REM
REM in /home/bkarasulu/work/CARBON/AIRSS/Generating-Clusters/REBO/Higher-Symm/Only-C60
REM
REM
REM
REM
REM
REM ./C.cell (a2850807a9bf4ad07a5b6933b78d9264)
REM AIRSS Version 0.9.1 bugfix July 2018 build 013d7b7c2542+ Fri, 06 Jul 2018 19:26:36 +0100
REM compiler GCC version 9.2.1 20190827 (Red Hat 9.2.1-1)
REM options -cpp -mtune=generic -march=x86-64 -g -O0 -fpre-include=/usr/include/finclude/math-vector-fortran.h
REM seed 1057491830 444683907 -1039791740 307011302 -1245123632 10285331 1343345083 1396262371 -314061898 -1573786238 1347927898 -551452888 -2015750410 -407161297 -1530269292 -851140985 -280014220 -359562534 -1437068863 -1994875697 -2074595438 1960559168 -164802870 -2041661852 -1719467986 -462759281 -683246200 1346873861 -1541591850 -1289397015 380954249 1613227586 -1483430347
REM
CELL 1.54180   15.00000   15.00000   15.00000   90.00000   90.00000   90.00000
LATT -1
SFAC C  
C      1  0.2697460000000  0.3959770000000  0.5881920000000 1.0
C      1  0.2697590000000  0.6284080000000  0.5459980000000 1.0
C      1  0.2697520000000  0.4756510000000  0.3658040000000 1.0
C      1  0.4075410000000  0.3520130000000  0.6475620000000 1.0
C      1  0.4075600000000  0.7017940000000  0.5543830000000 1.0
C      1  0.4075490000000  0.4462080000000  0.2980530000000 1.0
C      1  0.2771140000000  0.3647510000000  0.5032450000000 1.0
C      1  0.2771240000000  0.5704540000000  0.6155130000000 1.0
C      1  0.2771260000000  0.5648300000000  0.3812350000000 1.0
C      1  0.5108680000000  0.5981780000000  0.7194000000000 1.0
C      1  0.5108740000000  0.6409160000000  0.3052750000000 1.0
C      1  0.5108520000000  0.2609040000000  0.4753260000000 1.0
C      1  0.3593980000000  0.5195540000000  0.6576210000000 1.0
C      1  0.3594060000000  0.6267390000000  0.4042590000000 1.0
C      1  0.3593910000000  0.3537290000000  0.4381150000000 1.0
C      1  0.3404480000000  0.6696270000000  0.4978470000000 1.0
C      1  0.3404350000000  0.4133360000000  0.3541800000000 1.0
C      1  0.3404330000000  0.4170620000000  0.6479680000000 1.0
C      1  0.7275840000000  0.5655820000000  0.5016130000000 1.0
C      1  0.7275800000000  0.4685860000000  0.4423910000000 1.0
C      1  0.7275780000000  0.4657960000000  0.5560030000000 1.0
C      1  0.3962190000000  0.6846280000000  0.6473260000000 1.0
C      1  0.3962150000000  0.5352840000000  0.2664480000000 1.0
C      1  0.3961990000000  0.2801050000000  0.5862230000000 1.0
C      1  0.6893510000000  0.5393890000000  0.6263430000000 1.0
C      1  0.6893560000000  0.5897050000000  0.4027100000000 1.0
C      1  0.6893440000000  0.3708750000000  0.4709520000000 1.0
C      1  0.4435360000000  0.4091560000000  0.4637290000000 1.0
C      1  0.4435400000000  0.5140150000000  0.5968100000000 1.0
C      1  0.4435450000000  0.5768370000000  0.4394590000000 1.0
C      1  0.5443600000000  0.3059550000000  0.7313420000000 1.0
C      1  0.5443880000000  0.7973670000000  0.5523750000000 1.0
C      1  0.5443690000000  0.3966700000000  0.2162840000000 1.0
C      1  0.5512160000000  0.5740300000000  0.4213530000000 1.0
C      1  0.5512060000000  0.3948710000000  0.4752100000000 1.0
C      1  0.5512120000000  0.5310920000000  0.6034380000000 1.0
C      1  0.6558250000000  0.6226030000000  0.5566460000000 1.0
C      1  0.6558190000000  0.4877420000000  0.3654940000000 1.0
C      1  0.6558120000000  0.3896300000000  0.5778640000000 1.0
C      1  0.5105380000000  0.3717900000000  0.6617780000000 1.0
C      1  0.5105570000000  0.7042080000000  0.5301440000000 1.0
C      1  0.5105440000000  0.4240000000000  0.3080780000000 1.0
C      1  0.4827310000000  0.5938160000000  0.5363850000000 1.0
C      1  0.4827260000000  0.4846030000000  0.4005610000000 1.0
C      1  0.4827210000000  0.4215830000000  0.5630540000000 1.0
C      1  0.5915040000000  0.4357170000000  0.6374000000000 1.0
C      1  0.5915170000000  0.6511260000000  0.4869680000000 1.0
C      1  0.5915060000000  0.4131430000000  0.3756340000000 1.0
C      1  0.5787330000000  0.5421180000000  0.7669060000000 1.0
C      1  0.5787460000000  0.7100820000000  0.3300690000000 1.0
C      1  0.5787210000000  0.2477880000000  0.4030260000000 1.0
C      1  0.6364410000000  0.3165050000000  0.3893740000000 1.0
C      1  0.6364470000000  0.4959310000000  0.7142200000000 1.0
C      1  0.6364600000000  0.6875420000000  0.3964100000000 1.0
C      1  0.6044290000000  0.3090150000000  0.5183930000000 1.0
C      1  0.6044440000000  0.6114120000000  0.6561980000000 1.0
C      1  0.6044450000000  0.5795560000000  0.3254120000000 1.0
C      1  0.4223940000000  0.6140140000000  0.3134760000000 1.0
C      1  0.4223750000000  0.2814650000000  0.4945260000000 1.0
C      1  0.4223900000000  0.6045330000000  0.6919960000000 1.0
END
