TITL C-3036484-3770-366 -1.05550717376803e-05 3375 -340.037575278724 0 0 60 (C1) n - 1
REM
REM in /home/bkarasulu/work/CARBON/AIRSS/Generating-Clusters/REBO/Higher-Symm/Only-C60
REM
REM
REM
REM
REM
REM ./C.cell (a2850807a9bf4ad07a5b6933b78d9264)
REM AIRSS Version 0.9.1 bugfix July 2018 build 013d7b7c2542+ Fri, 06 Jul 2018 19:26:36 +0100
REM compiler GCC version 9.2.1 20190827 (Red Hat 9.2.1-1)
REM options -cpp -mtune=generic -march=x86-64 -g -O0 -fpre-include=/usr/include/finclude/math-vector-fortran.h
REM seed 1971088328 -769351791 -747717841 -1039723429 -244330981 970573110 1151068120 -2064109986 -1893992114 40898152 -204624036 2018636788 1015102082 818095244 -896323381 -1335257376 -727234601 2030757476 1385541988 986410607 1677293962 -1699325618 -553602127 -60625983 1300147239 -233438730 -422112504 2088579492 -292198827 -1830220165 -1941740220 992919894 1507813394
REM
CELL 1.54180   15.00000   15.00000   15.00000   90.00000   90.00000   90.00000
LATT -1
SFAC C  
C      1  0.6111720000000  0.7310120000000  0.3924510000000 1.0
C      1  0.5342020000000  0.3765090000000  0.6733930000000 1.0
C      1  0.4021380000000  0.2778920000000  0.3819920000000 1.0
C      1  0.4556140000000  0.5285010000000  0.4292740000000 1.0
C      1  0.4644070000000  0.2731470000000  0.5546760000000 1.0
C      1  0.4479140000000  0.5933610000000  0.3120490000000 1.0
C      1  0.3236340000000  0.3629790000000  0.4449450000000 1.0
C      1  0.6160390000000  0.5654920000000  0.3481640000000 1.0
C      1  0.7198290000000  0.4273380000000  0.6205520000000 1.0
C      1  0.4316330000000  0.4689680000000  0.3552500000000 1.0
C      1  0.4350920000000  0.5158110000000  0.6246050000000 1.0
C      1  0.6758350000000  0.6673890000000  0.4078790000000 1.0
C      1  0.7194340000000  0.5763980000000  0.5590080000000 1.0
C      1  0.3246390000000  0.4500390000000  0.5146250000000 1.0
C      1  0.2985790000000  0.3794600000000  0.5893480000000 1.0
C      1  0.4376820000000  0.6603120000000  0.4198830000000 1.0
C      1  0.3735170000000  0.7180980000000  0.5740690000000 1.0
C      1  0.7406930000000  0.4725120000000  0.4412750000000 1.0
C      1  0.3087760000000  0.5093000000000  0.3228840000000 1.0
C      1  0.4446730000000  0.3247540000000  0.6549120000000 1.0
C      1  0.5194340000000  0.7244620000000  0.4518500000000 1.0
C      1  0.6331040000000  0.4982310000000  0.4653510000000 1.0
C      1  0.4028360000000  0.5288020000000  0.5264810000000 1.0
C      1  0.2872840000000  0.4400750000000  0.3884970000000 1.0
C      1  0.3552730000000  0.3908680000000  0.6728390000000 1.0
C      1  0.5558940000000  0.3024110000000  0.5249810000000 1.0
C      1  0.4946320000000  0.3125710000000  0.3400770000000 1.0
C      1  0.2845530000000  0.5776850000000  0.6157920000000 1.0
C      1  0.5891860000000  0.6862970000000  0.5315210000000 1.0
C      1  0.6124050000000  0.2942280000000  0.4487770000000 1.0
C      1  0.3819710000000  0.6309030000000  0.5006610000000 1.0
C      1  0.7420650000000  0.4873890000000  0.5491830000000 1.0
C      1  0.6379980000000  0.6960780000000  0.6227840000000 1.0
C      1  0.7074010000000  0.3011050000000  0.4500090000000 1.0
C      1  0.6405120000000  0.4172330000000  0.6811750000000 1.0
C      1  0.2933040000000  0.5376590000000  0.4512870000000 1.0
C      1  0.4839340000000  0.7080850000000  0.5585670000000 1.0
C      1  0.4579120000000  0.6452840000000  0.6451760000000 1.0
C      1  0.3546610000000  0.5960250000000  0.3749240000000 1.0
C      1  0.5734680000000  0.3798100000000  0.5734640000000 1.0
C      1  0.6222880000000  0.6258670000000  0.6782280000000 1.0
C      1  0.4111070000000  0.3781470000000  0.3457210000000 1.0
C      1  0.6092310000000  0.4630030000000  0.5557420000000 1.0
C      1  0.5765420000000  0.3442530000000  0.3753800000000 1.0
C      1  0.3730450000000  0.4827940000000  0.6842220000000 1.0
C      1  0.3578180000000  0.2886840000000  0.5888560000000 1.0
C      1  0.5310600000000  0.6037880000000  0.3892720000000 1.0
C      1  0.2859900000000  0.6935260000000  0.5076450000000 1.0
C      1  0.3776390000000  0.2757860000000  0.4815390000000 1.0
C      1  0.7576640000000  0.3727860000000  0.4237210000000 1.0
C      1  0.5284300000000  0.4849480000000  0.6591820000000 1.0
C      1  0.4853820000000  0.5033510000000  0.2736760000000 1.0
C      1  0.5806580000000  0.4900190000000  0.2922790000000 1.0
C      1  0.6333290000000  0.5251690000000  0.6465980000000 1.0
C      1  0.2555530000000  0.5975860000000  0.5250310000000 1.0
C      1  0.3572090000000  0.6316550000000  0.6460440000000 1.0
C      1  0.5260290000000  0.5939210000000  0.6825250000000 1.0
C      1  0.6453270000000  0.6080680000000  0.4905210000000 1.0
C      1  0.7116560000000  0.5658070000000  0.3831960000000 1.0
C      1  0.6007140000000  0.4363710000000  0.3759930000000 1.0
END
