TITL C-3036484-3770-530 2.4284694326799e-06 3375 -334.065512753798 0 0 60 (C1) n - 1
REM
REM in /home/bkarasulu/work/CARBON/AIRSS/Generating-Clusters/REBO/Higher-Symm/Only-C60
REM
REM
REM
REM
REM
REM ./C.cell (a2850807a9bf4ad07a5b6933b78d9264)
REM AIRSS Version 0.9.1 bugfix July 2018 build 013d7b7c2542+ Fri, 06 Jul 2018 19:26:36 +0100
REM compiler GCC version 9.2.1 20190827 (Red Hat 9.2.1-1)
REM options -cpp -mtune=generic -march=x86-64 -g -O0 -fpre-include=/usr/include/finclude/math-vector-fortran.h
REM seed 1364661039 160203710 -1931815541 -1486361927 1565630135 -1422721872 2031031043 -1983954676 -2070445136 -2142664703 -1138674950 1230999453 -1301488497 -548152617 1505463999 1862731338 1578926764 574143800 973155833 1979488819 1772830054 -1852554728 295507032 1113992391 -1815112538 -1042529631 -378691679 -781936826 1227305702 -982991378 975825616 1978754444 -1817167171
REM
CELL 1.54180   15.00000   15.00000   15.00000   90.00000   90.00000   90.00000
LATT -1
SFAC C  
C      1  0.3635070000000  0.3063450000000  0.3998970000000 1.0
C      1  0.6288330000000  0.3278830000000  0.5988050000000 1.0
C      1  0.3594260000000  0.2973290000000  0.6190860000000 1.0
C      1  0.6317510000000  0.3171690000000  0.3869440000000 1.0
C      1  0.7097310000000  0.4807560000000  0.4001170000000 1.0
C      1  0.2896260000000  0.4786000000000  0.6096880000000 1.0
C      1  0.7158370000000  0.4842860000000  0.6079590000000 1.0
C      1  0.2860770000000  0.4794530000000  0.3886100000000 1.0
C      1  0.5402390000000  0.3347010000000  0.5397790000000 1.0
C      1  0.4394140000000  0.3381310000000  0.4536090000000 1.0
C      1  0.5476030000000  0.3104270000000  0.4372080000000 1.0
C      1  0.4312360000000  0.3172410000000  0.5611580000000 1.0
C      1  0.4447680000000  0.7757480000000  0.4399960000000 1.0
C      1  0.5539590000000  0.7765060000000  0.5591630000000 1.0
C      1  0.4505800000000  0.7703120000000  0.5436710000000 1.0
C      1  0.5489720000000  0.7734520000000  0.4547190000000 1.0
C      1  0.5550760000000  0.4980810000000  0.7464090000000 1.0
C      1  0.4398940000000  0.5027750000000  0.2493330000000 1.0
C      1  0.5507250000000  0.4988950000000  0.2592600000000 1.0
C      1  0.4435950000000  0.5010500000000  0.7508730000000 1.0
C      1  0.5541770000000  0.5418550000000  0.4557150000000 1.0
C      1  0.4535810000000  0.5375680000000  0.5425280000000 1.0
C      1  0.5591140000000  0.5541710000000  0.5622040000000 1.0
C      1  0.4488180000000  0.5578250000000  0.4356440000000 1.0
C      1  0.4377340000000  0.4302850000000  0.5520540000000 1.0
C      1  0.5717700000000  0.4343220000000  0.4405420000000 1.0
C      1  0.4397060000000  0.4509640000000  0.4422500000000 1.0
C      1  0.5698660000000  0.4442320000000  0.5538100000000 1.0
C      1  0.3883430000000  0.7156050000000  0.3970710000000 1.0
C      1  0.6101110000000  0.7171620000000  0.6034400000000 1.0
C      1  0.3993320000000  0.7031610000000  0.5828480000000 1.0
C      1  0.6033530000000  0.7099740000000  0.4133910000000 1.0
C      1  0.6762230000000  0.3911550000000  0.6387270000000 1.0
C      1  0.3195750000000  0.3841600000000  0.3389410000000 1.0
C      1  0.6779880000000  0.3879840000000  0.3591050000000 1.0
C      1  0.3177270000000  0.3852100000000  0.6675430000000 1.0
C      1  0.6868980000000  0.5517120000000  0.4581850000000 1.0
C      1  0.3204470000000  0.5422060000000  0.5436170000000 1.0
C      1  0.6916500000000  0.5562080000000  0.5516020000000 1.0
C      1  0.3168670000000  0.5472750000000  0.4499180000000 1.0
C      1  0.4710490000000  0.3957510000000  0.2369490000000 1.0
C      1  0.5800240000000  0.3858960000000  0.7465870000000 1.0
C      1  0.4743150000000  0.3944000000000  0.7624620000000 1.0
C      1  0.5770700000000  0.3874550000000  0.2521070000000 1.0
C      1  0.6610890000000  0.4789500000000  0.7071580000000 1.0
C      1  0.3335620000000  0.4831750000000  0.2853100000000 1.0
C      1  0.6562130000000  0.4795680000000  0.2997950000000 1.0
C      1  0.3367810000000  0.4872910000000  0.7131970000000 1.0
C      1  0.4264010000000  0.4043500000000  0.6610610000000 1.0
C      1  0.5369010000000  0.4038210000000  0.3515930000000 1.0
C      1  0.4272270000000  0.4063840000000  0.3401620000000 1.0
C      1  0.5364510000000  0.4095320000000  0.6489610000000 1.0
C      1  0.6229780000000  0.6173140000000  0.6120130000000 1.0
C      1  0.3793790000000  0.6151050000000  0.3878840000000 1.0
C      1  0.6152540000000  0.6105120000000  0.4026110000000 1.0
C      1  0.3913380000000  0.6036770000000  0.5971700000000 1.0
C      1  0.6194350000000  0.5812090000000  0.7071740000000 1.0
C      1  0.3771040000000  0.5840040000000  0.2917660000000 1.0
C      1  0.6110060000000  0.5795560000000  0.3066230000000 1.0
C      1  0.3922930000000  0.5798710000000  0.6940010000000 1.0
END
