TITL C-3036483-1610-728 -0.0553266098829586 3375 -347.936094913856 0 0 60 (C1) n - 1
REM
REM in /home/bkarasulu/work/CARBON/AIRSS/Generating-Clusters/REBO/Higher-Symm/Only-C60
REM
REM
REM
REM
REM
REM ./C.cell (a2850807a9bf4ad07a5b6933b78d9264)
REM AIRSS Version 0.9.1 bugfix July 2018 build 013d7b7c2542+ Fri, 06 Jul 2018 19:26:36 +0100
REM compiler GCC version 9.2.1 20190827 (Red Hat 9.2.1-1)
REM options -cpp -mtune=generic -march=x86-64 -g -O0 -fpre-include=/usr/include/finclude/math-vector-fortran.h
REM seed 37215767 1698375517 -1935916339 2144583549 -189187502 2093187509 -703052369 -1428111695 2120372364 959834813 918943323 -1622357722 823890196 -77953563 -677096022 -611406439 -1524332589 -1727702522 -2092315573 279448382 -532638085 -1157864929 -995975748 -1105954399 -1630604972 1446555503 -205137767 1436503 1075646302 -201868782 -1448966695 1021157342 -999567132
REM
CELL 1.54180   15.00000   15.00000   15.00000   90.00000   90.00000   90.00000
LATT -1
SFAC C  
C      1  0.5092190000000  0.4143650000000  0.7149640000000 1.0
C      1  0.4351000000000  0.7497760000000  0.4485500000000 1.0
C      1  0.4025240000000  0.5550320000000  0.2863410000000 1.0
C      1  0.5031240000000  0.5363810000000  0.3382850000000 1.0
C      1  0.4926360000000  0.4811110000000  0.5548230000000 1.0
C      1  0.4620950000000  0.4990150000000  0.7274700000000 1.0
C      1  0.6009200000000  0.4009800000000  0.6680040000000 1.0
C      1  0.4322370000000  0.4046150000000  0.5634900000000 1.0
C      1  0.6092020000000  0.3220410000000  0.5185600000000 1.0
C      1  0.3499700000000  0.5855720000000  0.6341820000000 1.0
C      1  0.5278360000000  0.6470080000000  0.3301670000000 1.0
C      1  0.4395170000000  0.3657340000000  0.6701870000000 1.0
C      1  0.2671540000000  0.5106120000000  0.5630640000000 1.0
C      1  0.6975960000000  0.3732610000000  0.4919520000000 1.0
C      1  0.4422050000000  0.3487920000000  0.3196510000000 1.0
C      1  0.6068750000000  0.5834120000000  0.7054600000000 1.0
C      1  0.5954010000000  0.4910650000000  0.3422980000000 1.0
C      1  0.6554160000000  0.4342880000000  0.5729980000000 1.0
C      1  0.5996720000000  0.3971430000000  0.2869020000000 1.0
C      1  0.3421890000000  0.4059740000000  0.6610660000000 1.0
C      1  0.6537970000000  0.6328070000000  0.4339220000000 1.0
C      1  0.6824390000000  0.6265200000000  0.6556600000000 1.0
C      1  0.3186370000000  0.5342710000000  0.3272040000000 1.0
C      1  0.5832490000000  0.3126450000000  0.6075630000000 1.0
C      1  0.4561380000000  0.5675700000000  0.6138400000000 1.0
C      1  0.7403210000000  0.3282330000000  0.4000110000000 1.0
C      1  0.7177310000000  0.5620680000000  0.5863600000000 1.0
C      1  0.6805030000000  0.5499450000000  0.3722240000000 1.0
C      1  0.4312840000000  0.6456420000000  0.3133530000000 1.0
C      1  0.2957750000000  0.6052120000000  0.5359310000000 1.0
C      1  0.5056680000000  0.2631360000000  0.6171770000000 1.0
C      1  0.5785700000000  0.6899000000000  0.3946180000000 1.0
C      1  0.4210660000000  0.2903120000000  0.5636600000000 1.0
C      1  0.3705230000000  0.3314460000000  0.4707260000000 1.0
C      1  0.3179010000000  0.3391800000000  0.5720920000000 1.0
C      1  0.5266010000000  0.7303190000000  0.4644270000000 1.0
C      1  0.7263760000000  0.5695860000000  0.4952910000000 1.0
C      1  0.5433570000000  0.3317360000000  0.4587890000000 1.0
C      1  0.6641490000000  0.4954520000000  0.6639290000000 1.0
C      1  0.6284010000000  0.4513140000000  0.4439920000000 1.0
C      1  0.3869990000000  0.6801870000000  0.5972890000000 1.0
C      1  0.4757610000000  0.6993090000000  0.6115410000000 1.0
C      1  0.3137120000000  0.5944060000000  0.4242970000000 1.0
C      1  0.5156150000000  0.5792040000000  0.7016320000000 1.0
C      1  0.3529840000000  0.4902800000000  0.4464830000000 1.0
C      1  0.3089150000000  0.4377930000000  0.3599200000000 1.0
C      1  0.5171910000000  0.3576490000000  0.2643910000000 1.0
C      1  0.3481010000000  0.3512260000000  0.3637950000000 1.0
C      1  0.6019510000000  0.6067650000000  0.5249390000000 1.0
C      1  0.5439700000000  0.6821160000000  0.5477040000000 1.0
C      1  0.3708000000000  0.4974980000000  0.6898130000000 1.0
C      1  0.4583590000000  0.4904430000000  0.4253430000000 1.0
C      1  0.4615340000000  0.5730170000000  0.5007840000000 1.0
C      1  0.4614790000000  0.3814410000000  0.4245670000000 1.0
C      1  0.3502830000000  0.6977240000000  0.4993130000000 1.0
C      1  0.6648690000000  0.3803700000000  0.3633590000000 1.0
C      1  0.7599730000000  0.5093810000000  0.4164370000000 1.0
C      1  0.5886390000000  0.5048020000000  0.5260700000000 1.0
C      1  0.3743650000000  0.6795300000000  0.3893120000000 1.0
C      1  0.3311260000000  0.4433810000000  0.5338290000000 1.0
END
