TITL C-3036486-2224-225 3.62019491327373e-06 3375 -382.145011970465 0 0 60 (T23) n - 1
REM
REM in /home/bkarasulu/work/CARBON/AIRSS/Generating-Clusters/REBO/Higher-Symm/Only-C60
REM
REM
REM
REM
REM
REM ./C.cell (a2850807a9bf4ad07a5b6933b78d9264)
REM AIRSS Version 0.9.1 bugfix July 2018 build 013d7b7c2542+ Fri, 06 Jul 2018 19:26:36 +0100
REM compiler GCC version 9.2.1 20190827 (Red Hat 9.2.1-1)
REM options -cpp -mtune=generic -march=x86-64 -g -O0 -fpre-include=/usr/include/finclude/math-vector-fortran.h
REM seed -1104859294 585419249 182493967 -246304080 1432391280 1204484021 -1304915036 1524745338 -750961495 1377839424 -1910824168 -1248719602 1745850272 1260146352 -1932055569 599270315 1436138913 -1781706647 -248508924 1057024573 55130140 -268272846 1841786459 -160650625 -716097829 -636755135 2062751633 153986135 649522428 1663747585 -649147726 730397903 1665946333
REM
CELL 1.54180   15.00000   15.00000   15.00000   90.00000   90.00000   90.00000
LATT -1
SFAC C  
C      1  0.6175330000000  0.3215740000000  0.5441670000000 1.0
C      1  0.5441680000000  0.6175330000000  0.3215740000000 1.0
C      1  0.3215750000000  0.5441680000000  0.6175330000000 1.0
C      1  0.3824700000000  0.3215730000000  0.4558290000000 1.0
C      1  0.6175290000000  0.6784280000000  0.4558300000000 1.0
C      1  0.3824680000000  0.6784250000000  0.5441730000000 1.0
C      1  0.4558310000000  0.6175290000000  0.6784280000000 1.0
C      1  0.5441730000000  0.3824680000000  0.6784250000000 1.0
C      1  0.4558290000000  0.3824700000000  0.3215730000000 1.0
C      1  0.6784250000000  0.5441730000000  0.3824680000000 1.0
C      1  0.3215730000000  0.4558290000000  0.3824700000000 1.0
C      1  0.6784280000000  0.4558300000000  0.6175290000000 1.0
C      1  0.5501280000000  0.3150000000000  0.6094960000000 1.0
C      1  0.3150010000000  0.6094960000000  0.5501280000000 1.0
C      1  0.6094960000000  0.5501280000000  0.3150000000000 1.0
C      1  0.4498750000000  0.3150020000000  0.3905000000000 1.0
C      1  0.4498740000000  0.6849980000000  0.6095010000000 1.0
C      1  0.5501230000000  0.6850010000000  0.3905030000000 1.0
C      1  0.6849980000000  0.6095000000000  0.4498740000000 1.0
C      1  0.6850000000000  0.3905030000000  0.5501220000000 1.0
C      1  0.3150010000000  0.3905010000000  0.4498750000000 1.0
C      1  0.3905030000000  0.5501230000000  0.6850010000000 1.0
C      1  0.3905000000000  0.4498760000000  0.3150020000000 1.0
C      1  0.6095000000000  0.4498730000000  0.6849970000000 1.0
C      1  0.6134020000000  0.7139180000000  0.5438360000000 1.0
C      1  0.5438360000000  0.6134010000000  0.7139180000000 1.0
C      1  0.7139180000000  0.5438350000000  0.6134010000000 1.0
C      1  0.3865950000000  0.7139170000000  0.4561690000000 1.0
C      1  0.6134040000000  0.2860840000000  0.4561620000000 1.0
C      1  0.3865990000000  0.2860810000000  0.5438340000000 1.0
C      1  0.4561620000000  0.6134050000000  0.2860840000000 1.0
C      1  0.5438330000000  0.3865990000000  0.2860810000000 1.0
C      1  0.4561680000000  0.3865940000000  0.7139170000000 1.0
C      1  0.2860810000000  0.5438340000000  0.3865990000000 1.0
C      1  0.7139170000000  0.4561680000000  0.3865940000000 1.0
C      1  0.2860840000000  0.4561620000000  0.6134050000000 1.0
C      1  0.5329410000000  0.7304440000000  0.6011260000000 1.0
C      1  0.7304450000000  0.6011260000000  0.5329400000000 1.0
C      1  0.6011260000000  0.5329400000000  0.7304440000000 1.0
C      1  0.4670560000000  0.7304460000000  0.3988790000000 1.0
C      1  0.4670610000000  0.2695540000000  0.6011220000000 1.0
C      1  0.5329420000000  0.2695560000000  0.3988730000000 1.0
C      1  0.2695540000000  0.6011230000000  0.4670620000000 1.0
C      1  0.2695560000000  0.3988740000000  0.5329430000000 1.0
C      1  0.7304460000000  0.3988780000000  0.4670550000000 1.0
C      1  0.3988730000000  0.5329430000000  0.2695560000000 1.0
C      1  0.3988780000000  0.4670550000000  0.7304460000000 1.0
C      1  0.6011220000000  0.4670620000000  0.2695540000000 1.0
C      1  0.6949290000000  0.6751810000000  0.6063460000000 1.0
C      1  0.3248230000000  0.3936510000000  0.6949300000000 1.0
C      1  0.3050680000000  0.6751800000000  0.3936580000000 1.0
C      1  0.6949300000000  0.3248230000000  0.3936500000000 1.0
C      1  0.3050730000000  0.3248170000000  0.6063460000000 1.0
C      1  0.3936510000000  0.6949300000000  0.3248230000000 1.0
C      1  0.6063460000000  0.3050730000000  0.3248170000000 1.0
C      1  0.3248170000000  0.6063460000000  0.3050730000000 1.0
C      1  0.3936580000000  0.3050680000000  0.6751790000000 1.0
C      1  0.6751810000000  0.6063450000000  0.6949290000000 1.0
C      1  0.6063460000000  0.6949280000000  0.6751810000000 1.0
C      1  0.6751790000000  0.3936580000000  0.3050680000000 1.0
END
