TITL C-3036480-97-1022 5.47177408110428e-06 3375 -346.492039664893 0 0 60 (C5) n - 1
REM
REM in /home/bkarasulu/work/CARBON/AIRSS/Generating-Clusters/REBO/Higher-Symm/Only-C60
REM
REM
REM
REM
REM
REM ./C.cell (a2850807a9bf4ad07a5b6933b78d9264)
REM AIRSS Version 0.9.1 bugfix July 2018 build 013d7b7c2542+ Fri, 06 Jul 2018 19:26:36 +0100
REM compiler GCC version 9.2.1 20190827 (Red Hat 9.2.1-1)
REM options -cpp -mtune=generic -march=x86-64 -g -O0 -fpre-include=/usr/include/finclude/math-vector-fortran.h
REM seed -1996754740 -260107216 921075156 1449447170 -330374885 -1433047265 962517427 -1349515429 -1409134074 -1225974373 1689738217 296782721 709579696 -262743108 903645995 779016697 -51594140 -566286821 -666286457 -1074584577 194637788 5907499 -159112078 -222066418 2123780134 -1852250255 -1316277522 56248141 -1500252890 1491541865 162347422 686921159 -1037401246
REM
CELL 1.54180   15.00000   15.00000   15.00000   90.00000   90.00000   90.00000
LATT -1
SFAC C  
C      1  0.6854930000000  0.5591250000000  0.6673300000000 1.0
C      1  0.5010770000000  0.6946560000000  0.6673620000000 1.0
C      1  0.3151910000000  0.5611480000000  0.6673600000000 1.0
C      1  0.3847240000000  0.3431040000000  0.6673260000000 1.0
C      1  0.6135830000000  0.3418540000000  0.6673070000000 1.0
C      1  0.5853790000000  0.4583220000000  0.3470760000000 1.0
C      1  0.5660320000000  0.5683460000000  0.3470910000000 1.0
C      1  0.4554140000000  0.5839470000000  0.3471030000000 1.0
C      1  0.4063950000000  0.4835630000000  0.3470940000000 1.0
C      1  0.4867170000000  0.4059230000000  0.3470770000000 1.0
C      1  0.5314950000000  0.5850370000000  0.4551410000000 1.0
C      1  0.4288600000000  0.5562390000000  0.4551460000000 1.0
C      1  0.4245340000000  0.4497290000000  0.4551320000000 1.0
C      1  0.5244940000000  0.4127000000000  0.4551190000000 1.0
C      1  0.5905990000000  0.4963260000000  0.4551240000000 1.0
C      1  0.6071860000000  0.3517770000000  0.3614800000000 1.0
C      1  0.6740990000000  0.5561610000000  0.3615030000000 1.0
C      1  0.5003990000000  0.6829570000000  0.3615330000000 1.0
C      1  0.3261300000000  0.5569390000000  0.3615300000000 1.0
C      1  0.3921290000000  0.3522590000000  0.3614980000000 1.0
C      1  0.4996290000000  0.3113970000000  0.5362380000000 1.0
C      1  0.6792550000000  0.4413600000000  0.5362400000000 1.0
C      1  0.6111600000000  0.6523540000000  0.5362740000000 1.0
C      1  0.3894500000000  0.6527940000000  0.5362920000000 1.0
C      1  0.3205200000000  0.4420710000000  0.5362700000000 1.0
C      1  0.5562250000000  0.7422640000000  0.5040450000000 1.0
C      1  0.2869680000000  0.6283360000000  0.5040510000000 1.0
C      1  0.3121140000000  0.3370520000000  0.5040110000000 1.0
C      1  0.5969130000000  0.2709560000000  0.5039790000000 1.0
C      1  0.7477820000000  0.5213910000000  0.5040000000000 1.0
C      1  0.4998460000000  0.6309820000000  0.5504170000000 1.0
C      1  0.3753770000000  0.5403210000000  0.5504150000000 1.0
C      1  0.4231380000000  0.3939280000000  0.5503920000000 1.0
C      1  0.5771250000000  0.3941140000000  0.5503800000000 1.0
C      1  0.6245330000000  0.5406210000000  0.5503950000000 1.0
C      1  0.4172770000000  0.5274850000000  0.6507880000000 1.0
C      1  0.4482870000000  0.4297940000000  0.6507730000000 1.0
C      1  0.5507790000000  0.4290970000000  0.6507640000000 1.0
C      1  0.5831130000000  0.5263580000000  0.6507740000000 1.0
C      1  0.5006040000000  0.5871650000000  0.6507890000000 1.0
C      1  0.2868540000000  0.4780490000000  0.4124640000000 1.0
C      1  0.4550170000000  0.2905170000000  0.4124250000000 1.0
C      1  0.6853350000000  0.3925000000000  0.4124190000000 1.0
C      1  0.6595180000000  0.6430600000000  0.4124550000000 1.0
C      1  0.4132420000000  0.6959320000000  0.4124820000000 1.0
C      1  0.7148600000000  0.4830240000000  0.4099040000000 1.0
C      1  0.5825480000000  0.6991130000000  0.4099440000000 1.0
C      1  0.3361470000000  0.6400520000000  0.4099560000000 1.0
C      1  0.3161760000000  0.3874610000000  0.4099250000000 1.0
C      1  0.5502330000000  0.2904120000000  0.4098930000000 1.0
C      1  0.4428060000000  0.7424440000000  0.5052650000000 1.0
C      1  0.2517480000000  0.5205240000000  0.5052520000000 1.0
C      1  0.4037660000000  0.2702400000000  0.5052060000000 1.0
C      1  0.6887770000000  0.3374760000000  0.5051920000000 1.0
C      1  0.7129050000000  0.6293140000000  0.5052290000000 1.0
C      1  0.2549310000000  0.5801580000000  0.5999040000000 1.0
C      1  0.3480280000000  0.2916780000000  0.5998590000000 1.0
C      1  0.6511570000000  0.2910740000000  0.5998340000000 1.0
C      1  0.7454030000000  0.5791800000000  0.5998650000000 1.0
C      1  0.5005220000000  0.7578430000000  0.5999080000000 1.0
END
