TITL C-3036484-3770-804 -1.71830945160791e-06 3375 -341.477953250927 0 0 60 (D2) n - 1
REM
REM in /home/bkarasulu/work/CARBON/AIRSS/Generating-Clusters/REBO/Higher-Symm/Only-C60
REM
REM
REM
REM
REM
REM ./C.cell (a2850807a9bf4ad07a5b6933b78d9264)
REM AIRSS Version 0.9.1 bugfix July 2018 build 013d7b7c2542+ Fri, 06 Jul 2018 19:26:36 +0100
REM compiler GCC version 9.2.1 20190827 (Red Hat 9.2.1-1)
REM options -cpp -mtune=generic -march=x86-64 -g -O0 -fpre-include=/usr/include/finclude/math-vector-fortran.h
REM seed -1481045229 1252760485 -1702988682 839269705 -1965926576 -1762138079 867855593 1532525884 -331477008 -226968643 1103421707 -553793675 1584911136 -1232997717 1020316049 -633746415 134997471 -319470351 1432417632 558588613 442499539 -1879632334 1422749027 -938050840 -837553750 1474831454 1332722848 -1913412865 -1468915040 786607201 360019726 1066215063 301748810
REM
CELL 1.54180   15.00000   15.00000   15.00000   90.00000   90.00000   90.00000
LATT -1
SFAC C  
C      1  0.2838660000000  0.4512220000000  0.6205510000000 1.0
C      1  0.6280320000000  0.4506100000000  0.7225780000000 1.0
C      1  0.7161370000000  0.4512370000000  0.3794480000000 1.0
C      1  0.3719710000000  0.4506050000000  0.2774210000000 1.0
C      1  0.2774190000000  0.5494970000000  0.3719720000000 1.0
C      1  0.6205480000000  0.5488860000000  0.2838630000000 1.0
C      1  0.7225780000000  0.5495090000000  0.6280280000000 1.0
C      1  0.3794490000000  0.5488750000000  0.7161370000000 1.0
C      1  0.7038110000000  0.3699400000000  0.5689650000000 1.0
C      1  0.5621130000000  0.3753320000000  0.3003400000000 1.0
C      1  0.2961970000000  0.3699280000000  0.4310330000000 1.0
C      1  0.4378950000000  0.3753250000000  0.6996580000000 1.0
C      1  0.6996550000000  0.6247880000000  0.4378900000000 1.0
C      1  0.5689630000000  0.6301770000000  0.7038070000000 1.0
C      1  0.3003380000000  0.6247750000000  0.5621120000000 1.0
C      1  0.4310280000000  0.6301760000000  0.2961950000000 1.0
C      1  0.3669900000000  0.4436580000000  0.4651910000000 1.0
C      1  0.4766440000000  0.4672900000000  0.6549560000000 1.0
C      1  0.6330140000000  0.4436660000000  0.5348080000000 1.0
C      1  0.5233580000000  0.4672940000000  0.3450430000000 1.0
C      1  0.3450430000000  0.5328130000000  0.5233590000000 1.0
C      1  0.4651880000000  0.5564480000000  0.3669890000000 1.0
C      1  0.6549550000000  0.5328240000000  0.4766420000000 1.0
C      1  0.5348080000000  0.5564470000000  0.6330120000000 1.0
C      1  0.6482040000000  0.5538510000000  0.7024720000000 1.0
C      1  0.6991920000000  0.5542880000000  0.3538070000000 1.0
C      1  0.3517930000000  0.5538440000000  0.2975290000000 1.0
C      1  0.3008050000000  0.5542740000000  0.6461940000000 1.0
C      1  0.6461930000000  0.4458350000000  0.3008050000000 1.0
C      1  0.7024750000000  0.4462680000000  0.6482030000000 1.0
C      1  0.3538100000000  0.4458230000000  0.6991950000000 1.0
C      1  0.2975280000000  0.4462570000000  0.3517960000000 1.0
C      1  0.5339860000000  0.7459770000000  0.5744940000000 1.0
C      1  0.5603150000000  0.7423070000000  0.4724230000000 1.0
C      1  0.4660010000000  0.7459770000000  0.4255080000000 1.0
C      1  0.4396720000000  0.7423020000000  0.5275790000000 1.0
C      1  0.5275840000000  0.2578070000000  0.4396770000000 1.0
C      1  0.5745010000000  0.2541350000000  0.5339910000000 1.0
C      1  0.4724300000000  0.2578040000000  0.5603210000000 1.0
C      1  0.4255140000000  0.2541310000000  0.4660070000000 1.0
C      1  0.6409010000000  0.7082900000000  0.4391550000000 1.0
C      1  0.4309530000000  0.7219950000000  0.3424990000000 1.0
C      1  0.3590880000000  0.7082800000000  0.5608470000000 1.0
C      1  0.5690340000000  0.7219960000000  0.6575040000000 1.0
C      1  0.6575100000000  0.2781190000000  0.5690380000000 1.0
C      1  0.4391610000000  0.2918220000000  0.6409060000000 1.0
C      1  0.3425040000000  0.2781100000000  0.4309590000000 1.0
C      1  0.5608510000000  0.2918280000000  0.3590920000000 1.0
C      1  0.2830920000000  0.4155160000000  0.5345890000000 1.0
C      1  0.5412820000000  0.4158910000000  0.7246620000000 1.0
C      1  0.7169130000000  0.4155300000000  0.4654090000000 1.0
C      1  0.4587230000000  0.4158910000000  0.2753370000000 1.0
C      1  0.2753350000000  0.5842120000000  0.4587240000000 1.0
C      1  0.5345850000000  0.5845900000000  0.2830900000000 1.0
C      1  0.7246600000000  0.5842260000000  0.5412780000000 1.0
C      1  0.4654090000000  0.5845840000000  0.7169110000000 1.0
C      1  0.4532350000000  0.5000540000000  0.4532360000000 1.0
C      1  0.4363940000000  0.5000520000000  0.5636070000000 1.0
C      1  0.5467650000000  0.5000560000000  0.5467640000000 1.0
C      1  0.5636060000000  0.5000580000000  0.4363930000000 1.0
END
