TITL C-3036485-3770-375 -0.00041533491092537 3375 -362.847833346838 0 0 60 (D5) n - 1
REM
REM in /home/bkarasulu/work/CARBON/AIRSS/Generating-Clusters/REBO/Higher-Symm/Only-C60
REM
REM
REM
REM
REM
REM ./C.cell (a2850807a9bf4ad07a5b6933b78d9264)
REM AIRSS Version 0.9.1 bugfix July 2018 build 013d7b7c2542+ Fri, 06 Jul 2018 19:26:36 +0100
REM compiler GCC version 9.2.1 20190827 (Red Hat 9.2.1-1)
REM options -cpp -mtune=generic -march=x86-64 -g -O0 -fpre-include=/usr/include/finclude/math-vector-fortran.h
REM seed -909311539 1817599648 327850131 1723696878 -1487276497 -831483251 587633182 1240140487 -1982470924 -1026242222 -144522835 -872771595 1961015227 224456488 -1597801077 -1114673274 -182297500 2085044527 467858978 18140667 1913620956 1598760713 -527626241 -405292106 773370883 -197148577 -1416642104 2119211537 -627053930 -296017418 1721555584 2137051366 -981712602
REM
CELL 1.54180   15.00000   15.00000   15.00000   90.00000   90.00000   90.00000
LATT -1
SFAC C  
C      1  0.3448090000000  0.4339040000000  0.4011470000000 1.0
C      1  0.5461090000000  0.4338520000000  0.3217640000000 1.0
C      1  0.6838250000000  0.4338280000000  0.4887410000000 1.0
C      1  0.5675310000000  0.4338650000000  0.6712750000000 1.0
C      1  0.3580550000000  0.4339120000000  0.6170840000000 1.0
C      1  0.6551890000000  0.5660930000000  0.4011530000000 1.0
C      1  0.4538930000000  0.5661430000000  0.3217730000000 1.0
C      1  0.3161750000000  0.5661720000000  0.4887450000000 1.0
C      1  0.4324680000000  0.5661400000000  0.6712850000000 1.0
C      1  0.6419480000000  0.5660910000000  0.6170900000000 1.0
C      1  0.4538620000000  0.3093330000000  0.4276610000000 1.0
C      1  0.5545480000000  0.3093190000000  0.4337520000000 1.0
C      1  0.5798750000000  0.3093230000000  0.5313970000000 1.0
C      1  0.4948290000000  0.3093410000000  0.5856580000000 1.0
C      1  0.4169480000000  0.3093470000000  0.5215370000000 1.0
C      1  0.5461380000000  0.6906650000000  0.4276610000000 1.0
C      1  0.4454520000000  0.6906800000000  0.4337530000000 1.0
C      1  0.4201250000000  0.6906780000000  0.5313970000000 1.0
C      1  0.5051710000000  0.6906610000000  0.5856590000000 1.0
C      1  0.5830520000000  0.6906530000000  0.5215390000000 1.0
C      1  0.6046860000000  0.3572800000000  0.3634140000000 1.0
C      1  0.6622760000000  0.3572780000000  0.5573400000000 1.0
C      1  0.4956070000000  0.3573600000000  0.6720100000000 1.0
C      1  0.3350850000000  0.3574120000000  0.5489370000000 1.0
C      1  0.4024970000000  0.3573630000000  0.3582620000000 1.0
C      1  0.3953150000000  0.6427140000000  0.3634190000000 1.0
C      1  0.3377230000000  0.6427260000000  0.5573410000000 1.0
C      1  0.5043920000000  0.6426480000000  0.6720150000000 1.0
C      1  0.6649160000000  0.6425880000000  0.5489390000000 1.0
C      1  0.5975010000000  0.6426300000000  0.3582640000000 1.0
C      1  0.3014230000000  0.5102170000000  0.3663980000000 1.0
C      1  0.5657180000000  0.5101890000000  0.2697830000000 1.0
C      1  0.7393030000000  0.5101820000000  0.4913600000000 1.0
C      1  0.5821460000000  0.5102060000000  0.7248770000000 1.0
C      1  0.3115720000000  0.5102270000000  0.6475700000000 1.0
C      1  0.6985740000000  0.4897810000000  0.3664000000000 1.0
C      1  0.4342840000000  0.4898080000000  0.2697900000000 1.0
C      1  0.2606980000000  0.4898180000000  0.4913600000000 1.0
C      1  0.4178510000000  0.4897970000000  0.7248830000000 1.0
C      1  0.6884310000000  0.4897740000000  0.6475730000000 1.0
C      1  0.4881840000000  0.5654120000000  0.4186980000000 1.0
C      1  0.5736150000000  0.5654080000000  0.4637320000000 1.0
C      1  0.5571910000000  0.5654340000000  0.5589010000000 1.0
C      1  0.4615960000000  0.5654500000000  0.5726890000000 1.0
C      1  0.4189490000000  0.5654360000000  0.4860310000000 1.0
C      1  0.5118160000000  0.4345860000000  0.4186870000000 1.0
C      1  0.4263850000000  0.4345920000000  0.4637220000000 1.0
C      1  0.4428100000000  0.4345690000000  0.5588910000000 1.0
C      1  0.5384040000000  0.4345500000000  0.5726800000000 1.0
C      1  0.5810520000000  0.4345620000000  0.4860210000000 1.0
C      1  0.2623860000000  0.3977440000000  0.4993620000000 1.0
C      1  0.4271830000000  0.3977330000000  0.2738120000000 1.0
C      1  0.6926160000000  0.3977090000000  0.3608140000000 1.0
C      1  0.6919160000000  0.3977040000000  0.6401640000000 1.0
C      1  0.4259920000000  0.3977250000000  0.7258150000000 1.0
C      1  0.7376150000000  0.6022570000000  0.4993640000000 1.0
C      1  0.5728160000000  0.6022640000000  0.2738130000000 1.0
C      1  0.3073840000000  0.6022890000000  0.3608170000000 1.0
C      1  0.3080850000000  0.6022970000000  0.6401650000000 1.0
C      1  0.5740070000000  0.6022770000000  0.7258180000000 1.0
END
