TITL C-3036483-1610-310 -0.00119536088256271 3375 -346.136721403171 0 0 60 (C1) n - 1
REM
REM in /home/bkarasulu/work/CARBON/AIRSS/Generating-Clusters/REBO/Higher-Symm/Only-C60
REM
REM
REM
REM
REM
REM ./C.cell (a2850807a9bf4ad07a5b6933b78d9264)
REM AIRSS Version 0.9.1 bugfix July 2018 build 013d7b7c2542+ Fri, 06 Jul 2018 19:26:36 +0100
REM compiler GCC version 9.2.1 20190827 (Red Hat 9.2.1-1)
REM options -cpp -mtune=generic -march=x86-64 -g -O0 -fpre-include=/usr/include/finclude/math-vector-fortran.h
REM seed 162785245 1788474765 1595826479 1344930599 -868344016 902356048 -1278425066 1659514359 -1058479188 1970424999 -2037328254 2084396583 -1818899871 -608569731 -857537752 635172778 1419791119 1599909903 -1374270640 -2001012611 -1514771790 1862912786 715130547 881205297 -1271091713 1795873650 1612728072 802574285 1757538078 -266754443 -2082736278 -1633913558 1671172264
REM
CELL 1.54180   15.00000   15.00000   15.00000   90.00000   90.00000   90.00000
LATT -1
SFAC C  
C      1  0.5941480000000  0.7048190000000  0.3366800000000 1.0
C      1  0.5868230000000  0.3109940000000  0.3437220000000 1.0
C      1  0.3233380000000  0.3480640000000  0.6625800000000 1.0
C      1  0.3332760000000  0.6428730000000  0.6562910000000 1.0
C      1  0.6129100000000  0.5542350000000  0.2804280000000 1.0
C      1  0.5969380000000  0.4604440000000  0.2923380000000 1.0
C      1  0.5009910000000  0.2727500000000  0.4689280000000 1.0
C      1  0.5077940000000  0.7183240000000  0.4621500000000 1.0
C      1  0.3130960000000  0.5427250000000  0.6567940000000 1.0
C      1  0.2929250000000  0.4463780000000  0.6606140000000 1.0
C      1  0.4729700000000  0.5494410000000  0.5237920000000 1.0
C      1  0.4646490000000  0.4459730000000  0.5538390000000 1.0
C      1  0.4177760000000  0.6511210000000  0.7076050000000 1.0
C      1  0.4059420000000  0.3361780000000  0.7138730000000 1.0
C      1  0.4068930000000  0.4500400000000  0.6462160000000 1.0
C      1  0.4230450000000  0.5530470000000  0.6192320000000 1.0
C      1  0.6130180000000  0.6874220000000  0.4957830000000 1.0
C      1  0.6031230000000  0.3118740000000  0.5024470000000 1.0
C      1  0.3687270000000  0.3382210000000  0.3732460000000 1.0
C      1  0.3737470000000  0.6557630000000  0.3654480000000 1.0
C      1  0.4760950000000  0.6631280000000  0.3815860000000 1.0
C      1  0.4679460000000  0.3415350000000  0.3953520000000 1.0
C      1  0.6401960000000  0.6286170000000  0.5853820000000 1.0
C      1  0.6262290000000  0.3720700000000  0.5903750000000 1.0
C      1  0.4426370000000  0.5607440000000  0.3040560000000 1.0
C      1  0.4328960000000  0.4542920000000  0.3342020000000 1.0
C      1  0.3477230000000  0.6466580000000  0.5487400000000 1.0
C      1  0.3389090000000  0.3404930000000  0.5566290000000 1.0
C      1  0.4631080000000  0.5548010000000  0.4158420000000 1.0
C      1  0.4683190000000  0.4451100000000  0.4419660000000 1.0
C      1  0.5371260000000  0.6199320000000  0.2961110000000 1.0
C      1  0.5252760000000  0.3952750000000  0.3136810000000 1.0
C      1  0.3236690000000  0.4416860000000  0.3617770000000 1.0
C      1  0.3403230000000  0.5477080000000  0.3534940000000 1.0
C      1  0.7151050000000  0.5730530000000  0.2969850000000 1.0
C      1  0.7002600000000  0.4630800000000  0.3224750000000 1.0
C      1  0.4308260000000  0.2824490000000  0.5578760000000 1.0
C      1  0.4393880000000  0.7067160000000  0.5523920000000 1.0
C      1  0.7855380000000  0.5495790000000  0.3826870000000 1.0
C      1  0.7895670000000  0.4549090000000  0.4026210000000 1.0
C      1  0.5583620000000  0.3679570000000  0.6583660000000 1.0
C      1  0.5721730000000  0.6317590000000  0.6538120000000 1.0
C      1  0.5544630000000  0.5490600000000  0.6989110000000 1.0
C      1  0.5389310000000  0.4489270000000  0.7082840000000 1.0
C      1  0.5197920000000  0.6352470000000  0.5316160000000 1.0
C      1  0.5059150000000  0.3591850000000  0.5364100000000 1.0
C      1  0.7291830000000  0.6407190000000  0.3822580000000 1.0
C      1  0.7131080000000  0.3847600000000  0.3991130000000 1.0
C      1  0.4894530000000  0.6867510000000  0.6503490000000 1.0
C      1  0.4791400000000  0.3068900000000  0.6556450000000 1.0
C      1  0.4394220000000  0.4334100000000  0.7537420000000 1.0
C      1  0.4487320000000  0.5442910000000  0.7306510000000 1.0
C      1  0.6808420000000  0.5437390000000  0.5747620000000 1.0
C      1  0.6728110000000  0.4534410000000  0.5792960000000 1.0
C      1  0.3170560000000  0.6100950000000  0.4458660000000 1.0
C      1  0.3070540000000  0.3776500000000  0.4543280000000 1.0
C      1  0.6468550000000  0.3237000000000  0.4127700000000 1.0
C      1  0.6560650000000  0.6922790000000  0.4044840000000 1.0
C      1  0.3335340000000  0.4516510000000  0.5301970000000 1.0
C      1  0.3338430000000  0.5359660000000  0.5229100000000 1.0
END
