TITL C-3036486-2224-829 0.021572231119552 3375 -354.334343549814 0 0 60 (C3) n - 1
REM
REM in /home/bkarasulu/work/CARBON/AIRSS/Generating-Clusters/REBO/Higher-Symm/Only-C60
REM
REM
REM
REM
REM
REM ./C.cell (a2850807a9bf4ad07a5b6933b78d9264)
REM AIRSS Version 0.9.1 bugfix July 2018 build 013d7b7c2542+ Fri, 06 Jul 2018 19:26:36 +0100
REM compiler GCC version 9.2.1 20190827 (Red Hat 9.2.1-1)
REM options -cpp -mtune=generic -march=x86-64 -g -O0 -fpre-include=/usr/include/finclude/math-vector-fortran.h
REM seed -1561117854 1005743139 1770662207 -359262740 -214740466 -986021424 -1309535268 834661076 -1132002847 839588218 -61147442 -3990066 -108833803 67729347 -644126147 477076354 984666657 1881100240 1065480978 954615913 -748899085 1628919089 -1562802201 -2050874243 1389279578 65017825 1762859036 -2029169143 1967549652 -912275242 792589692 -239001926 -602310524
REM
CELL 1.54180   15.00000   15.00000   15.00000   90.00000   90.00000   90.00000
LATT -1
SFAC C  
C      1  0.3715880000000  0.2863630000000  0.4115750000000 1.0
C      1  0.7491750000000  0.4956290000000  0.4115120000000 1.0
C      1  0.3790880000000  0.7179920000000  0.4115790000000 1.0
C      1  0.7261370000000  0.4297530000000  0.3494470000000 1.0
C      1  0.4476550000000  0.7309520000000  0.3495370000000 1.0
C      1  0.3262430000000  0.3393080000000  0.3494120000000 1.0
C      1  0.5267640000000  0.5562050000000  0.2921760000000 1.0
C      1  0.4381130000000  0.4951450000000  0.2923250000000 1.0
C      1  0.5352810000000  0.4488690000000  0.2923660000000 1.0
C      1  0.5329690000000  0.7001070000000  0.3821000000000 1.0
C      1  0.3103080000000  0.4286100000000  0.3820000000000 1.0
C      1  0.6567310000000  0.3713160000000  0.3819930000000 1.0
C      1  0.5351580000000  0.7297740000000  0.6255330000000 1.0
C      1  0.2834240000000  0.4155030000000  0.6255190000000 1.0
C      1  0.6814960000000  0.3545820000000  0.6254510000000 1.0
C      1  0.5407500000000  0.4509750000000  0.5339880000000 1.0
C      1  0.5220510000000  0.5597510000000  0.5337020000000 1.0
C      1  0.4371580000000  0.4891240000000  0.5340280000000 1.0
C      1  0.3205360000000  0.5125010000000  0.6536580000000 1.0
C      1  0.5788360000000  0.3383010000000  0.6536570000000 1.0
C      1  0.6006030000000  0.6490940000000  0.6535600000000 1.0
C      1  0.6553280000000  0.3314420000000  0.4704760000000 1.0
C      1  0.5682970000000  0.7187450000000  0.4705660000000 1.0
C      1  0.2764310000000  0.4497970000000  0.4704850000000 1.0
C      1  0.4662290000000  0.3060540000000  0.4657540000000 1.0
C      1  0.6848670000000  0.5676300000000  0.4656470000000 1.0
C      1  0.3489610000000  0.6263320000000  0.4657630000000 1.0
C      1  0.5177230000000  0.3954780000000  0.4475650000000 1.0
C      1  0.5815540000000  0.5675530000000  0.4473360000000 1.0
C      1  0.4007370000000  0.5369550000000  0.4475690000000 1.0
C      1  0.6778290000000  0.6399780000000  0.5824300000000 1.0
C      1  0.2897910000000  0.5839310000000  0.5824750000000 1.0
C      1  0.5323480000000  0.2759900000000  0.5824330000000 1.0
C      1  0.4651560000000  0.4464270000000  0.7267410000000 1.0
C      1  0.5637980000000  0.4965280000000  0.7266790000000 1.0
C      1  0.4711240000000  0.5569500000000  0.7266690000000 1.0
C      1  0.3979460000000  0.5962300000000  0.6583080000000 1.0
C      1  0.4675890000000  0.3634750000000  0.6582820000000 1.0
C      1  0.6344250000000  0.5402120000000  0.6583200000000 1.0
C      1  0.3792270000000  0.4921450000000  0.3655270000000 1.0
C      1  0.5672740000000  0.3992750000000  0.3654910000000 1.0
C      1  0.5535640000000  0.6087390000000  0.3653720000000 1.0
C      1  0.2760170000000  0.5438220000000  0.4933700000000 1.0
C      1  0.5739800000000  0.2842060000000  0.4933060000000 1.0
C      1  0.6499800000000  0.6721110000000  0.4933920000000 1.0
C      1  0.6999210000000  0.3808710000000  0.5396170000000 1.0
C      1  0.5032110000000  0.7327810000000  0.5397050000000 1.0
C      1  0.2967850000000  0.3864250000000  0.5396510000000 1.0
C      1  0.4337300000000  0.7525540000000  0.2627300000000 1.0
C      1  0.3146320000000  0.3165930000000  0.2625170000000 1.0
C      1  0.7516820000000  0.4309490000000  0.2626110000000 1.0
C      1  0.4098640000000  0.4569470000000  0.6283030000000 1.0
C      1  0.5823970000000  0.4434710000000  0.6282210000000 1.0
C      1  0.5077280000000  0.5995500000000  0.6281460000000 1.0
C      1  0.4069060000000  0.7099570000000  0.5184540000000 1.0
C      1  0.3647110000000  0.3144510000000  0.5184110000000 1.0
C      1  0.7282810000000  0.4756810000000  0.5183420000000 1.0
C      1  0.7198940000000  0.5481810000000  0.5926910000000 1.0
C      1  0.3482260000000  0.6663150000000  0.5927940000000 1.0
C      1  0.4317900000000  0.2854150000000  0.5927330000000 1.0
END
