TITL C-3036479-9801-384 1.07732087640895e-05 3375 -320.558536618749 0 0 60 (C3i) n - 1
REM
REM in /home/bkarasulu/work/CARBON/AIRSS/Generating-Clusters/REBO/Higher-Symm/Only-C60
REM
REM
REM
REM
REM
REM ./C.cell (a2850807a9bf4ad07a5b6933b78d9264)
REM AIRSS Version 0.9.1 bugfix July 2018 build 013d7b7c2542+ Fri, 06 Jul 2018 19:26:36 +0100
REM compiler GCC version 9.2.1 20190827 (Red Hat 9.2.1-1)
REM options -cpp -mtune=generic -march=x86-64 -g -O0 -fpre-include=/usr/include/finclude/math-vector-fortran.h
REM seed 495981069 -1718641455 384736150 1788959722 -500651242 123596907 915350231 1858783749 1383324597 1635787087 1063558848 1989944043 -1890559034 54969217 555763818 -1191570435 -401625742 -436526032 1198659000 -941117287 234864541 1442973144 -1642183057 1032143428 1962625022 1572129603 -358061603 352037272 394803458 852485888 888851159 1535764753 979915618
REM
CELL 1.54180   15.00000   15.00000   15.00000   90.00000   90.00000   90.00000
LATT -1
SFAC C  
C      1  0.5624670000000  0.6377800000000  0.7084990000000 1.0
C      1  0.6963110000000  0.5561330000000  0.6398470000000 1.0
C      1  0.6595860000000  0.7102970000000  0.5683930000000 1.0
C      1  0.4279760000000  0.6637140000000  0.2791880000000 1.0
C      1  0.5683900000000  0.3404150000000  0.2897020000000 1.0
C      1  0.4438310000000  0.3601750000000  0.6963180000000 1.0
C      1  0.2792150000000  0.5720650000000  0.3362680000000 1.0
C      1  0.7085030000000  0.4375100000000  0.3622370000000 1.0
C      1  0.2896760000000  0.4316330000000  0.6595610000000 1.0
C      1  0.3363080000000  0.7208130000000  0.4279300000000 1.0
C      1  0.6398230000000  0.3036700000000  0.4438710000000 1.0
C      1  0.3622000000000  0.2915140000000  0.5624670000000 1.0
C      1  0.5720240000000  0.3362850000000  0.7208120000000 1.0
C      1  0.7207850000000  0.4279350000000  0.6637320000000 1.0
C      1  0.6636920000000  0.2791870000000  0.5720700000000 1.0
C      1  0.4375330000000  0.3622200000000  0.2915010000000 1.0
C      1  0.5561690000000  0.6398250000000  0.3036820000000 1.0
C      1  0.4316100000000  0.6595850000000  0.7102970000000 1.0
C      1  0.3036880000000  0.4438670000000  0.3601530000000 1.0
C      1  0.7103240000000  0.5683670000000  0.3404390000000 1.0
C      1  0.2914960000000  0.5624900000000  0.6377630000000 1.0
C      1  0.3404140000000  0.2897030000000  0.4316070000000 1.0
C      1  0.6378000000000  0.7084860000000  0.4375330000000 1.0
C      1  0.3601770000000  0.6963290000000  0.5561290000000 1.0
C      1  0.7363950000000  0.4419120000000  0.5713770000000 1.0
C      1  0.5420960000000  0.7346770000000  0.4491320000000 1.0
C      1  0.4430130000000  0.5678550000000  0.7309670000000 1.0
C      1  0.2736760000000  0.4511650000000  0.4546850000000 1.0
C      1  0.7309830000000  0.5569570000000  0.4321700000000 1.0
C      1  0.2653190000000  0.5508830000000  0.5420560000000 1.0
C      1  0.4547140000000  0.7263280000000  0.5488420000000 1.0
C      1  0.5713360000000  0.2635920000000  0.5580830000000 1.0
C      1  0.4321410000000  0.2690300000000  0.4430250000000 1.0
C      1  0.5488710000000  0.5452910000000  0.2736780000000 1.0
C      1  0.4491490000000  0.4579240000000  0.2653160000000 1.0
C      1  0.5580490000000  0.4286430000000  0.7364110000000 1.0
C      1  0.7263240000000  0.5488350000000  0.5453150000000 1.0
C      1  0.5452860000000  0.2736720000000  0.4511580000000 1.0
C      1  0.4511290000000  0.4547090000000  0.7263210000000 1.0
C      1  0.2636050000000  0.5580880000000  0.4286230000000 1.0
C      1  0.7346810000000  0.4491170000000  0.4579440000000 1.0
C      1  0.2690170000000  0.4430430000000  0.5678300000000 1.0
C      1  0.4579050000000  0.2653230000000  0.5508680000000 1.0
C      1  0.5678590000000  0.7309700000000  0.5569750000000 1.0
C      1  0.4286640000000  0.7364080000000  0.4419170000000 1.0
C      1  0.5569870000000  0.4321450000000  0.2690330000000 1.0
C      1  0.4419510000000  0.5713570000000  0.2635890000000 1.0
C      1  0.5508510000000  0.5420760000000  0.7346840000000 1.0
C      1  0.4901980000000  0.7092540000000  0.3556420000000 1.0
C      1  0.3563540000000  0.5053270000000  0.7043370000000 1.0
C      1  0.7092450000000  0.3556330000000  0.5098480000000 1.0
C      1  0.5098030000000  0.2907460000000  0.6443580000000 1.0
C      1  0.4946840000000  0.2956490000000  0.3563730000000 1.0
C      1  0.6436460000000  0.4946730000000  0.2956630000000 1.0
C      1  0.3556640000000  0.5098350000000  0.2907320000000 1.0
C      1  0.2907550000000  0.6443670000000  0.4901520000000 1.0
C      1  0.5053160000000  0.7043510000000  0.6436270000000 1.0
C      1  0.6443360000000  0.4901650000000  0.7092680000000 1.0
C      1  0.2956410000000  0.3563840000000  0.5053000000000 1.0
C      1  0.7043600000000  0.6436170000000  0.4947000000000 1.0
END
