TITL C-3036484-3770-660 5.89770434105595e-06 3375 -342.739811934484 0 0 60 (C1) n - 1
REM
REM in /home/bkarasulu/work/CARBON/AIRSS/Generating-Clusters/REBO/Higher-Symm/Only-C60
REM
REM
REM
REM
REM
REM ./C.cell (a2850807a9bf4ad07a5b6933b78d9264)
REM AIRSS Version 0.9.1 bugfix July 2018 build 013d7b7c2542+ Fri, 06 Jul 2018 19:26:36 +0100
REM compiler GCC version 9.2.1 20190827 (Red Hat 9.2.1-1)
REM options -cpp -mtune=generic -march=x86-64 -g -O0 -fpre-include=/usr/include/finclude/math-vector-fortran.h
REM seed 1390047580 -1309525669 1424468847 -1170483282 -1033285013 -916264057 2119940887 1981628548 -541954703 986001703 -2054518900 1538648037 1802339690 1651160906 -812761174 1502010217 -1575325498 784325096 -2026281206 -423286618 1567504195 -132222612 1891505372 1213618151 467711714 -506686601 1389709976 992932826 123602705 829119679 -1256062771 60719405 -1826980199
REM
CELL 1.54180   15.00000   15.00000   15.00000   90.00000   90.00000   90.00000
LATT -1
SFAC C  
C      1  0.3257080000000  0.4760010000000  0.7426380000000 1.0
C      1  0.4554830000000  0.5446360000000  0.6705430000000 1.0
C      1  0.7116000000000  0.3872270000000  0.5480050000000 1.0
C      1  0.5514360000000  0.3540390000000  0.3485700000000 1.0
C      1  0.6507730000000  0.3051620000000  0.5773920000000 1.0
C      1  0.3393150000000  0.3629610000000  0.5711100000000 1.0
C      1  0.6380980000000  0.6587010000000  0.3832300000000 1.0
C      1  0.5769480000000  0.4661080000000  0.5366440000000 1.0
C      1  0.2393310000000  0.4752980000000  0.3838290000000 1.0
C      1  0.7060600000000  0.5539460000000  0.5734250000000 1.0
C      1  0.3613250000000  0.6386340000000  0.5624540000000 1.0
C      1  0.5142140000000  0.6092430000000  0.2728230000000 1.0
C      1  0.4751070000000  0.3979460000000  0.6852520000000 1.0
C      1  0.3631730000000  0.5274980000000  0.6784350000000 1.0
C      1  0.5336860000000  0.5156740000000  0.3189360000000 1.0
C      1  0.4726520000000  0.3252090000000  0.5207640000000 1.0
C      1  0.3892450000000  0.4455360000000  0.3967330000000 1.0
C      1  0.2626980000000  0.3944130000000  0.4318270000000 1.0
C      1  0.6908650000000  0.4755880000000  0.3732560000000 1.0
C      1  0.4912780000000  0.4393630000000  0.3864720000000 1.0
C      1  0.4835260000000  0.5904750000000  0.5778350000000 1.0
C      1  0.5940740000000  0.4420900000000  0.6445250000000 1.0
C      1  0.5680820000000  0.6153690000000  0.6763770000000 1.0
C      1  0.2662740000000  0.5668760000000  0.4424390000000 1.0
C      1  0.5894240000000  0.5485720000000  0.5095290000000 1.0
C      1  0.4736520000000  0.4089630000000  0.5982010000000 1.0
C      1  0.4267120000000  0.2901610000000  0.4330830000000 1.0
C      1  0.7343670000000  0.5922040000000  0.4887150000000 1.0
C      1  0.5434070000000  0.3930260000000  0.4753240000000 1.0
C      1  0.3537330000000  0.5426330000000  0.3772280000000 1.0
C      1  0.4467950000000  0.4918610000000  0.5486690000000 1.0
C      1  0.6937980000000  0.4654080000000  0.5999460000000 1.0
C      1  0.8442810000000  0.5217250000000  0.3907570000000 1.0
C      1  0.3127910000000  0.5646960000000  0.6044180000000 1.0
C      1  0.4338880000000  0.7136630000000  0.5825520000000 1.0
C      1  0.4946320000000  0.2810480000000  0.6234210000000 1.0
C      1  0.6099630000000  0.7150400000000  0.5406130000000 1.0
C      1  0.6381900000000  0.3439580000000  0.4726810000000 1.0
C      1  0.3482690000000  0.3419280000000  0.4049940000000 1.0
C      1  0.6215990000000  0.6177950000000  0.5863710000000 1.0
C      1  0.6841750000000  0.6729870000000  0.4655080000000 1.0
C      1  0.3864080000000  0.4245730000000  0.5008250000000 1.0
C      1  0.4966770000000  0.2770900000000  0.3655160000000 1.0
C      1  0.4121670000000  0.7115140000000  0.3588050000000 1.0
C      1  0.4192820000000  0.5755580000000  0.4877120000000 1.0
C      1  0.5201100000000  0.6612930000000  0.4971570000000 1.0
C      1  0.5287400000000  0.7063720000000  0.6212680000000 1.0
C      1  0.3389310000000  0.6500270000000  0.4148340000000 1.0
C      1  0.6664720000000  0.3049930000000  0.3944360000000 1.0
C      1  0.2628900000000  0.5161140000000  0.5388600000000 1.0
C      1  0.4656400000000  0.6820150000000  0.2939730000000 1.0
C      1  0.5481270000000  0.5175080000000  0.7013840000000 1.0
C      1  0.4230910000000  0.7071370000000  0.4684860000000 1.0
C      1  0.6124530000000  0.4412900000000  0.3339940000000 1.0
C      1  0.3932080000000  0.3062960000000  0.6255910000000 1.0
C      1  0.2580110000000  0.4169980000000  0.5294810000000 1.0
C      1  0.7571600000000  0.5288170000000  0.4164040000000 1.0
C      1  0.4606800000000  0.5689190000000  0.3880380000000 1.0
C      1  0.5800640000000  0.3297010000000  0.6395950000000 1.0
C      1  0.5592640000000  0.6001230000000  0.4181180000000 1.0
END
