TITL C-3036479-9801-1115 0.00516612776898104 3375 -341.979737435655 0 0 60 (C1) n - 1
REM
REM in /home/bkarasulu/work/CARBON/AIRSS/Generating-Clusters/REBO/Higher-Symm/Only-C60
REM
REM
REM
REM
REM
REM ./C.cell (a2850807a9bf4ad07a5b6933b78d9264)
REM AIRSS Version 0.9.1 bugfix July 2018 build 013d7b7c2542+ Fri, 06 Jul 2018 19:26:36 +0100
REM compiler GCC version 9.2.1 20190827 (Red Hat 9.2.1-1)
REM options -cpp -mtune=generic -march=x86-64 -g -O0 -fpre-include=/usr/include/finclude/math-vector-fortran.h
REM seed -815400176 -389636143 -865921017 2120780589 -450953458 -1055604077 -2109345680 -1047375137 178372438 -932301871 1910190364 -738054186 -145357525 1227643587 577605207 -1325040417 1964296122 1616737559 -1367223148 -1676341519 -2005021292 -1738945931 -729123205 -650621425 -1412510026 -582443564 -2045196217 -1081598543 -1585169089 -1720724545 642369298 -675771852 -1742266956
REM
CELL 1.54180   15.00000   15.00000   15.00000   90.00000   90.00000   90.00000
LATT -1
SFAC C  
C      1  0.4659490000000  0.4382620000000  0.3419650000000 1.0
C      1  0.4400570000000  0.7026950000000  0.6622600000000 1.0
C      1  0.4519470000000  0.4691410000000  0.7459570000000 1.0
C      1  0.4201040000000  0.3102310000000  0.4041210000000 1.0
C      1  0.5563970000000  0.3972480000000  0.5365270000000 1.0
C      1  0.5768510000000  0.3457540000000  0.4157070000000 1.0
C      1  0.3163770000000  0.3704740000000  0.3475750000000 1.0
C      1  0.4172710000000  0.5091520000000  0.5839950000000 1.0
C      1  0.5134780000000  0.5357390000000  0.7704810000000 1.0
C      1  0.3935670000000  0.4879210000000  0.3710410000000 1.0
C      1  0.2808150000000  0.4048420000000  0.5408960000000 1.0
C      1  0.3311350000000  0.6704700000000  0.5390110000000 1.0
C      1  0.3890370000000  0.5735090000000  0.4294190000000 1.0
C      1  0.3122970000000  0.5917620000000  0.4963000000000 1.0
C      1  0.4334640000000  0.6876440000000  0.5673970000000 1.0
C      1  0.3247450000000  0.3497460000000  0.4529520000000 1.0
C      1  0.5554260000000  0.4290810000000  0.3704250000000 1.0
C      1  0.6026110000000  0.6015280000000  0.2860480000000 1.0
C      1  0.6875180000000  0.6109900000000  0.5154010000000 1.0
C      1  0.5672180000000  0.5338480000000  0.2287580000000 1.0
C      1  0.4325190000000  0.2961510000000  0.6307760000000 1.0
C      1  0.2983260000000  0.5601590000000  0.2965600000000 1.0
C      1  0.4587800000000  0.3984390000000  0.2482780000000 1.0
C      1  0.5156930000000  0.2921430000000  0.5585570000000 1.0
C      1  0.5015940000000  0.3019570000000  0.4526200000000 1.0
C      1  0.5168250000000  0.4613160000000  0.2010530000000 1.0
C      1  0.3472790000000  0.3728000000000  0.6289060000000 1.0
C      1  0.2701770000000  0.4784910000000  0.6279950000000 1.0
C      1  0.5224080000000  0.6228230000000  0.7150720000000 1.0
C      1  0.7067500000000  0.5784220000000  0.4225600000000 1.0
C      1  0.4373100000000  0.6611720000000  0.3011860000000 1.0
C      1  0.3680900000000  0.6136260000000  0.3348360000000 1.0
C      1  0.2709950000000  0.5174150000000  0.5294540000000 1.0
C      1  0.4681500000000  0.3877020000000  0.6873550000000 1.0
C      1  0.3055770000000  0.4653290000000  0.3240530000000 1.0
C      1  0.6958230000000  0.5650240000000  0.6192160000000 1.0
C      1  0.3674920000000  0.4733680000000  0.6773510000000 1.0
C      1  0.4429250000000  0.5841200000000  0.5209820000000 1.0
C      1  0.7218020000000  0.4903040000000  0.4688440000000 1.0
C      1  0.3999500000000  0.3303470000000  0.3009710000000 1.0
C      1  0.6692070000000  0.3532710000000  0.6194520000000 1.0
C      1  0.6452540000000  0.4162390000000  0.4680000000000 1.0
C      1  0.6709120000000  0.4551480000000  0.6355470000000 1.0
C      1  0.6185610000000  0.5465500000000  0.7618750000000 1.0
C      1  0.5401710000000  0.7122850000000  0.4321430000000 1.0
C      1  0.6033790000000  0.5064230000000  0.3792380000000 1.0
C      1  0.7601420000000  0.5051720000000  0.5512310000000 1.0
C      1  0.6185710000000  0.6652950000000  0.5796250000000 1.0
C      1  0.5516900000000  0.5720970000000  0.5120360000000 1.0
C      1  0.5311510000000  0.6578980000000  0.3412150000000 1.0
C      1  0.5289930000000  0.6101170000000  0.6159210000000 1.0
C      1  0.6363350000000  0.6309120000000  0.6879680000000 1.0
C      1  0.5311250000000  0.7036660000000  0.5227190000000 1.0
C      1  0.5738510000000  0.5845390000000  0.4149720000000 1.0
C      1  0.6156410000000  0.2946620000000  0.5974330000000 1.0
C      1  0.4629440000000  0.4130880000000  0.5769900000000 1.0
C      1  0.3938040000000  0.3369920000000  0.5316550000000 1.0
C      1  0.6114090000000  0.4914370000000  0.5470090000000 1.0
C      1  0.6857130000000  0.6002700000000  0.3333270000000 1.0
C      1  0.6664180000000  0.4727960000000  0.7387830000000 1.0
END
