TITL C-3036484-3770-803 -0.000217159112188533 3375 -345.523674537065 0 0 60 (D4) n - 1
REM
REM in /home/bkarasulu/work/CARBON/AIRSS/Generating-Clusters/REBO/Higher-Symm/Only-C60
REM
REM
REM
REM
REM
REM ./C.cell (a2850807a9bf4ad07a5b6933b78d9264)
REM AIRSS Version 0.9.1 bugfix July 2018 build 013d7b7c2542+ Fri, 06 Jul 2018 19:26:36 +0100
REM compiler GCC version 9.2.1 20190827 (Red Hat 9.2.1-1)
REM options -cpp -mtune=generic -march=x86-64 -g -O0 -fpre-include=/usr/include/finclude/math-vector-fortran.h
REM seed -384675187 593921431 -943397842 652505572 491326857 -1217191214 738069600 -561303437 -577175478 -549482669 1071083599 -949968359 1962310001 417567739 -76711131 -1063764611 -1192628740 -1817518563 1420035456 -523612226 -1016154581 1541963732 1725731222 -124479091 1754424963 779377184 402768744 -1553183070 20942072 -80582734 -111249231 686520991 -623544193
REM
CELL 1.54180   15.00000   15.00000   15.00000   90.00000   90.00000   90.00000
LATT -1
SFAC C  
C      1  0.5160220000000  0.3265780000000  0.3644100000000 1.0
C      1  0.3265780000000  0.4839780000000  0.3644100000000 1.0
C      1  0.4839780000000  0.6734220000000  0.3644100000000 1.0
C      1  0.6734220000000  0.5160220000000  0.3644100000000 1.0
C      1  0.5160230000000  0.6734220000000  0.6290850000000 1.0
C      1  0.3265780000000  0.5160230000000  0.6290850000000 1.0
C      1  0.4839770000000  0.3265780000000  0.6290850000000 1.0
C      1  0.6734220000000  0.4839770000000  0.6290850000000 1.0
C      1  0.4997420000000  0.4242600000000  0.5908740000000 1.0
C      1  0.4242600000000  0.5002580000000  0.5908740000000 1.0
C      1  0.5002580000000  0.5757400000000  0.5908740000000 1.0
C      1  0.5757400000000  0.4997420000000  0.5908740000000 1.0
C      1  0.4997410000000  0.5757400000000  0.4026210000000 1.0
C      1  0.4242600000000  0.4997410000000  0.4026210000000 1.0
C      1  0.5002590000000  0.4242600000000  0.4026210000000 1.0
C      1  0.5757400000000  0.5002590000000  0.4026210000000 1.0
C      1  0.6105530000000  0.2949680000000  0.3753120000000 1.0
C      1  0.2949680000000  0.3894470000000  0.3753120000000 1.0
C      1  0.3894470000000  0.7050320000000  0.3753120000000 1.0
C      1  0.7050320000000  0.6105530000000  0.3753120000000 1.0
C      1  0.6105540000000  0.7050320000000  0.6181830000000 1.0
C      1  0.2949680000000  0.6105540000000  0.6181830000000 1.0
C      1  0.3894460000000  0.2949680000000  0.6181830000000 1.0
C      1  0.7050320000000  0.3894460000000  0.6181830000000 1.0
C      1  0.3775810000000  0.2288660000000  0.5345120000000 1.0
C      1  0.2288660000000  0.6224190000000  0.5345120000000 1.0
C      1  0.6224190000000  0.7711340000000  0.5345120000000 1.0
C      1  0.7711340000000  0.3775810000000  0.5345120000000 1.0
C      1  0.3775830000000  0.7711330000000  0.4589840000000 1.0
C      1  0.2288670000000  0.3775830000000  0.4589840000000 1.0
C      1  0.6224170000000  0.2288670000000  0.4589840000000 1.0
C      1  0.7711330000000  0.6224170000000  0.4589840000000 1.0
C      1  0.5457510000000  0.7413450000000  0.3899040000000 1.0
C      1  0.7413450000000  0.4542490000000  0.3899040000000 1.0
C      1  0.4542490000000  0.2586550000000  0.3899040000000 1.0
C      1  0.2586550000000  0.5457510000000  0.3899040000000 1.0
C      1  0.5457500000000  0.2586540000000  0.6035920000000 1.0
C      1  0.7413460000000  0.5457500000000  0.6035920000000 1.0
C      1  0.4542500000000  0.7413460000000  0.6035920000000 1.0
C      1  0.2586540000000  0.4542500000000  0.6035920000000 1.0
C      1  0.7869700000000  0.5433110000000  0.5191820000000 1.0
C      1  0.5433110000000  0.2130300000000  0.5191820000000 1.0
C      1  0.2130300000000  0.4566890000000  0.5191820000000 1.0
C      1  0.4566890000000  0.7869700000000  0.5191820000000 1.0
C      1  0.7869700000000  0.4566890000000  0.4743130000000 1.0
C      1  0.5433110000000  0.7869700000000  0.4743130000000 1.0
C      1  0.2130300000000  0.5433110000000  0.4743130000000 1.0
C      1  0.4566890000000  0.2130300000000  0.4743130000000 1.0
C      1  0.3378510000000  0.5979270000000  0.5141220000000 1.0
C      1  0.5979270000000  0.6621490000000  0.5141220000000 1.0
C      1  0.6621490000000  0.4020730000000  0.5141220000000 1.0
C      1  0.4020730000000  0.3378510000000  0.5141220000000 1.0
C      1  0.3378530000000  0.4020710000000  0.4793720000000 1.0
C      1  0.5979290000000  0.3378530000000  0.4793720000000 1.0
C      1  0.6621470000000  0.5979290000000  0.4793720000000 1.0
C      1  0.4020710000000  0.6621470000000  0.4793720000000 1.0
C      1  0.3684370000000  0.4999990000000  0.4967480000000 1.0
C      1  0.4999990000000  0.6315630000000  0.4967480000000 1.0
C      1  0.6315630000000  0.5000010000000  0.4967480000000 1.0
C      1  0.5000010000000  0.3684370000000  0.4967480000000 1.0
END
