TITL C-3036483-1610-1022 0.0621667470960004 3375 -337.610874060631 0 0 60 (C1) n - 1
REM
REM in /home/bkarasulu/work/CARBON/AIRSS/Generating-Clusters/REBO/Higher-Symm/Only-C60
REM
REM
REM
REM
REM
REM ./C.cell (a2850807a9bf4ad07a5b6933b78d9264)
REM AIRSS Version 0.9.1 bugfix July 2018 build 013d7b7c2542+ Fri, 06 Jul 2018 19:26:36 +0100
REM compiler GCC version 9.2.1 20190827 (Red Hat 9.2.1-1)
REM options -cpp -mtune=generic -march=x86-64 -g -O0 -fpre-include=/usr/include/finclude/math-vector-fortran.h
REM seed 2098606212 -872944967 -927141611 226378337 -1426993829 1047794242 413251417 -720277033 268230617 -6825618 -157905270 -2013556117 -1183383249 -1234279561 1410254149 879573703 1403815396 -962342955 -1066548465 156015178 2144290861 1472332290 -2093020386 1792136632 -1707832492 -23543889 2090027448 1342607254 -1869048751 495335446 -560444887 124822163 1115485655
REM
CELL 1.54180   15.00000   15.00000   15.00000   90.00000   90.00000   90.00000
LATT -1
SFAC C  
C      1  0.7024930000000  0.4662640000000  0.6426050000000 1.0
C      1  0.3468690000000  0.3100640000000  0.6591730000000 1.0
C      1  0.4204580000000  0.7010500000000  0.6658720000000 1.0
C      1  0.4785960000000  0.2708570000000  0.3953010000000 1.0
C      1  0.3135070000000  0.6402220000000  0.3913750000000 1.0
C      1  0.7177600000000  0.5969220000000  0.3792280000000 1.0
C      1  0.6177680000000  0.5650400000000  0.6580840000000 1.0
C      1  0.5065580000000  0.3613180000000  0.6437810000000 1.0
C      1  0.3635770000000  0.5529400000000  0.6633520000000 1.0
C      1  0.5681400000000  0.6701800000000  0.4113260000000 1.0
C      1  0.6147620000000  0.3571740000000  0.4166850000000 1.0
C      1  0.3192740000000  0.4767230000000  0.4198700000000 1.0
C      1  0.6473690000000  0.3942990000000  0.6985560000000 1.0
C      1  0.3192180000000  0.3991030000000  0.6700850000000 1.0
C      1  0.5123580000000  0.6794850000000  0.6707440000000 1.0
C      1  0.6084610000000  0.7498040000000  0.5384480000000 1.0
C      1  0.6757120000000  0.2915330000000  0.5448640000000 1.0
C      1  0.2216800000000  0.4712070000000  0.5412370000000 1.0
C      1  0.5163650000000  0.3938760000000  0.4394020000000 1.0
C      1  0.4014210000000  0.5394580000000  0.4444490000000 1.0
C      1  0.5812610000000  0.5696530000000  0.4387600000000 1.0
C      1  0.5886860000000  0.5835950000000  0.5512500000000 1.0
C      1  0.5520320000000  0.4002870000000  0.5478850000000 1.0
C      1  0.3789470000000  0.5297750000000  0.5557770000000 1.0
C      1  0.4004900000000  0.3177070000000  0.4357840000000 1.0
C      1  0.3918300000000  0.6993380000000  0.4255250000000 1.0
C      1  0.7319800000000  0.4983970000000  0.4168100000000 1.0
C      1  0.5948440000000  0.4974190000000  0.3522500000000 1.0
C      1  0.4492820000000  0.4102260000000  0.3534500000000 1.0
C      1  0.4544300000000  0.5835590000000  0.3542460000000 1.0
C      1  0.5168710000000  0.3287100000000  0.3232300000000 1.0
C      1  0.3490120000000  0.5722060000000  0.3267790000000 1.0
C      1  0.6381090000000  0.5928610000000  0.3207140000000 1.0
C      1  0.6234550000000  0.2752430000000  0.4664000000000 1.0
C      1  0.2401790000000  0.5140760000000  0.4583760000000 1.0
C      1  0.6384560000000  0.7196720000000  0.4528750000000 1.0
C      1  0.3493170000000  0.4818440000000  0.7159470000000 1.0
C      1  0.5619610000000  0.6087600000000  0.7158390000000 1.0
C      1  0.5572870000000  0.3732610000000  0.7183780000000 1.0
C      1  0.7554700000000  0.6392880000000  0.5361900000000 1.0
C      1  0.4882990000000  0.2176760000000  0.5485130000000 1.0
C      1  0.2571780000000  0.6521050000000  0.5471720000000 1.0
C      1  0.5442790000000  0.6070360000000  0.2966090000000 1.0
C      1  0.5709340000000  0.4055010000000  0.2993880000000 1.0
C      1  0.3833810000000  0.4833650000000  0.3032330000000 1.0
C      1  0.3494180000000  0.6472490000000  0.6107150000000 1.0
C      1  0.7113640000000  0.5568760000000  0.5947680000000 1.0
C      1  0.4350750000000  0.2890570000000  0.6132990000000 1.0
C      1  0.6511350000000  0.3828120000000  0.5873920000000 1.0
C      1  0.3007240000000  0.4599080000000  0.5920790000000 1.0
C      1  0.5630650000000  0.6826630000000  0.5871950000000 1.0
C      1  0.7200880000000  0.6659440000000  0.4501880000000 1.0
C      1  0.5352720000000  0.2328830000000  0.4659820000000 1.0
C      1  0.2505660000000  0.6107960000000  0.4600400000000 1.0
C      1  0.3815800000000  0.6312720000000  0.5056350000000 1.0
C      1  0.6750610000000  0.5427730000000  0.4928720000000 1.0
C      1  0.4564260000000  0.3444050000000  0.5227220000000 1.0
C      1  0.3500670000000  0.3925220000000  0.3941970000000 1.0
C      1  0.4790940000000  0.6849170000000  0.3827050000000 1.0
C      1  0.6707530000000  0.4268430000000  0.3843950000000 1.0
END
