TITL C-3036485-3770-263 -9.08786151449093e-07 3375 -340.160504456736 0 0 60 (C1) n - 1
REM
REM in /home/bkarasulu/work/CARBON/AIRSS/Generating-Clusters/REBO/Higher-Symm/Only-C60
REM
REM
REM
REM
REM
REM ./C.cell (a2850807a9bf4ad07a5b6933b78d9264)
REM AIRSS Version 0.9.1 bugfix July 2018 build 013d7b7c2542+ Fri, 06 Jul 2018 19:26:36 +0100
REM compiler GCC version 9.2.1 20190827 (Red Hat 9.2.1-1)
REM options -cpp -mtune=generic -march=x86-64 -g -O0 -fpre-include=/usr/include/finclude/math-vector-fortran.h
REM seed -1107604338 1921424196 -87336137 1891303823 -2130113 136734497 -878567269 -1472339592 -927317090 766717558 901029069 27684225 -504762472 445285081 1249709032 150442927 -1088906042 -11657027 1255186525 776587598 -1267956090 -710379129 -1349573088 1301232621 -1868592777 1352454542 1829508369 1270480787 -595087025 1068829273 359029223 -1472564223 2002174403
REM
CELL 1.54180   15.00000   15.00000   15.00000   90.00000   90.00000   90.00000
LATT -1
SFAC C  
C      1  0.3787000000000  0.4928240000000  0.3346410000000 1.0
C      1  0.5817440000000  0.5740220000000  0.2634960000000 1.0
C      1  0.6375450000000  0.6601540000000  0.3830350000000 1.0
C      1  0.6009040000000  0.3377760000000  0.5866050000000 1.0
C      1  0.5422700000000  0.4758930000000  0.2935630000000 1.0
C      1  0.5138600000000  0.5698730000000  0.4958540000000 1.0
C      1  0.6674720000000  0.2845830000000  0.5077510000000 1.0
C      1  0.3666260000000  0.6001420000000  0.3645960000000 1.0
C      1  0.6728320000000  0.5943350000000  0.5387670000000 1.0
C      1  0.2527880000000  0.4391810000000  0.5696530000000 1.0
C      1  0.4645630000000  0.7122580000000  0.4284680000000 1.0
C      1  0.4433090000000  0.4797690000000  0.2596520000000 1.0
C      1  0.2850270000000  0.5146350000000  0.6437120000000 1.0
C      1  0.3229890000000  0.4013340000000  0.4641380000000 1.0
C      1  0.5588650000000  0.7160430000000  0.4316070000000 1.0
C      1  0.4938190000000  0.6450920000000  0.2808400000000 1.0
C      1  0.5194630000000  0.5051650000000  0.7560900000000 1.0
C      1  0.4769590000000  0.5097280000000  0.4339170000000 1.0
C      1  0.6887120000000  0.3899380000000  0.5356030000000 1.0
C      1  0.6437280000000  0.5907380000000  0.6346280000000 1.0
C      1  0.5031070000000  0.6155860000000  0.7272720000000 1.0
C      1  0.5646500000000  0.3457870000000  0.4518210000000 1.0
C      1  0.2897380000000  0.5347020000000  0.3942360000000 1.0
C      1  0.5999710000000  0.6263440000000  0.4789310000000 1.0
C      1  0.4556620000000  0.6961960000000  0.6874600000000 1.0
C      1  0.4758760000000  0.4122390000000  0.5247120000000 1.0
C      1  0.2997980000000  0.3396630000000  0.5368260000000 1.0
C      1  0.6993750000000  0.5167030000000  0.3581660000000 1.0
C      1  0.6071590000000  0.3157640000000  0.3292520000000 1.0
C      1  0.3102830000000  0.6181290000000  0.6495660000000 1.0
C      1  0.7245420000000  0.5167640000000  0.5198470000000 1.0
C      1  0.4606470000000  0.3405120000000  0.4134760000000 1.0
C      1  0.5544210000000  0.4613900000000  0.3863530000000 1.0
C      1  0.7058180000000  0.4473650000000  0.4376480000000 1.0
C      1  0.5233180000000  0.3111980000000  0.3301260000000 1.0
C      1  0.5286980000000  0.3646020000000  0.6522220000000 1.0
C      1  0.3532120000000  0.6120770000000  0.5124560000000 1.0
C      1  0.4679900000000  0.5337060000000  0.6640610000000 1.0
C      1  0.4876700000000  0.7378170000000  0.6011720000000 1.0
C      1  0.5498630000000  0.4180240000000  0.7476940000000 1.0
C      1  0.5735480000000  0.4453800000000  0.4987530000000 1.0
C      1  0.4598950000000  0.3028340000000  0.5209100000000 1.0
C      1  0.5586940000000  0.2553640000000  0.5214400000000 1.0
C      1  0.4054680000000  0.4238180000000  0.4122980000000 1.0
C      1  0.4798630000000  0.5625900000000  0.2149160000000 1.0
C      1  0.6067740000000  0.6258760000000  0.7077350000000 1.0
C      1  0.7281200000000  0.4582960000000  0.6096340000000 1.0
C      1  0.3735030000000  0.6776100000000  0.6261980000000 1.0
C      1  0.5233510000000  0.5354020000000  0.5828920000000 1.0
C      1  0.4333750000000  0.6630520000000  0.3527150000000 1.0
C      1  0.4168630000000  0.7002620000000  0.5209170000000 1.0
C      1  0.6187850000000  0.4863540000000  0.5942900000000 1.0
C      1  0.2619390000000  0.4798810000000  0.4638420000000 1.0
C      1  0.4412880000000  0.4356130000000  0.6725890000000 1.0
C      1  0.4217640000000  0.3378820000000  0.6202880000000 1.0
C      1  0.3389380000000  0.4138740000000  0.6399440000000 1.0
C      1  0.4096170000000  0.4676430000000  0.5407060000000 1.0
C      1  0.6579610000000  0.5911750000000  0.3239390000000 1.0
C      1  0.6697550000000  0.3463840000000  0.4120200000000 1.0
C      1  0.3465290000000  0.5326630000000  0.5540580000000 1.0
END
