TITL C-3036481-494-512 7.17863041615449e-06 3375 -356.498779636915 0 0 60 (C1) n - 1
REM
REM in /home/bkarasulu/work/CARBON/AIRSS/Generating-Clusters/REBO/Higher-Symm/Only-C60
REM
REM
REM
REM
REM
REM ./C.cell (a2850807a9bf4ad07a5b6933b78d9264)
REM AIRSS Version 0.9.1 bugfix July 2018 build 013d7b7c2542+ Fri, 06 Jul 2018 19:26:36 +0100
REM compiler GCC version 9.2.1 20190827 (Red Hat 9.2.1-1)
REM options -cpp -mtune=generic -march=x86-64 -g -O0 -fpre-include=/usr/include/finclude/math-vector-fortran.h
REM seed -1316875132 -606573452 1889950082 435709770 -644428764 -804434481 685339923 1320433069 -564990437 1988117948 1815438840 222714899 161696923 1001467032 -495177173 1514550968 -819103453 -1551422692 1706716280 569708381 -2088937666 1342171000 105821251 -1814350672 -1521141502 -1411363451 434220663 1378213598 -41068814 313258779 1040492768 -1279512414 1967920576
REM
CELL 1.54180   15.00000   15.00000   15.00000   90.00000   90.00000   90.00000
LATT -1
SFAC C  
C      1  0.4808730000000  0.3860220000000  0.4477490000000 1.0
C      1  0.6082180000000  0.5415500000000  0.4489600000000 1.0
C      1  0.4301100000000  0.5654940000000  0.4507450000000 1.0
C      1  0.4754250000000  0.4036890000000  0.5466020000000 1.0
C      1  0.5936970000000  0.5287120000000  0.5477360000000 1.0
C      1  0.4098340000000  0.5722430000000  0.5494180000000 1.0
C      1  0.2984560000000  0.3487690000000  0.5736250000000 1.0
C      1  0.7456770000000  0.3988830000000  0.5717600000000 1.0
C      1  0.4687450000000  0.7684960000000  0.5716490000000 1.0
C      1  0.3016360000000  0.3513560000000  0.4689620000000 1.0
C      1  0.7265580000000  0.4016130000000  0.4683500000000 1.0
C      1  0.4699460000000  0.7416640000000  0.4691260000000 1.0
C      1  0.5176990000000  0.3356170000000  0.3168850000000 1.0
C      1  0.6379310000000  0.5937820000000  0.3182540000000 1.0
C      1  0.3542530000000  0.5643840000000  0.3299690000000 1.0
C      1  0.5122350000000  0.3371580000000  0.6677850000000 1.0
C      1  0.6322720000000  0.5954950000000  0.6669520000000 1.0
C      1  0.3467730000000  0.5720530000000  0.6789910000000 1.0
C      1  0.5597120000000  0.5288620000000  0.2822540000000 1.0
C      1  0.4470670000000  0.5369240000000  0.2808320000000 1.0
C      1  0.4970440000000  0.4351350000000  0.2805160000000 1.0
C      1  0.5555550000000  0.5312130000000  0.7154100000000 1.0
C      1  0.4422250000000  0.5356900000000  0.7161910000000 1.0
C      1  0.4945920000000  0.4352720000000  0.7145150000000 1.0
C      1  0.4786110000000  0.5804870000000  0.3746090000000 1.0
C      1  0.4397150000000  0.4274350000000  0.3726400000000 1.0
C      1  0.5901550000000  0.4838790000000  0.3759610000000 1.0
C      1  0.4666710000000  0.5863260000000  0.6235570000000 1.0
C      1  0.4383160000000  0.4382690000000  0.6224620000000 1.0
C      1  0.5817690000000  0.4802340000000  0.6242470000000 1.0
C      1  0.2944050000000  0.5718910000000  0.5577620000000 1.0
C      1  0.5462770000000  0.3138210000000  0.5380090000000 1.0
C      1  0.6389290000000  0.6339260000000  0.5391890000000 1.0
C      1  0.3163010000000  0.5511730000000  0.4576510000000 1.0
C      1  0.5412070000000  0.2874130000000  0.4370500000000 1.0
C      1  0.6656890000000  0.6418130000000  0.4382360000000 1.0
C      1  0.7071010000000  0.5731940000000  0.6006080000000 1.0
C      1  0.3311800000000  0.6554780000000  0.6165360000000 1.0
C      1  0.4616950000000  0.2828540000000  0.6000680000000 1.0
C      1  0.7180310000000  0.5678730000000  0.3792980000000 1.0
C      1  0.3344020000000  0.6393460000000  0.3958940000000 1.0
C      1  0.4509270000000  0.2775670000000  0.3776980000000 1.0
C      1  0.3761450000000  0.2857700000000  0.4379370000000 1.0
C      1  0.7463290000000  0.4981230000000  0.4373990000000 1.0
C      1  0.3752280000000  0.7067180000000  0.4481570000000 1.0
C      1  0.3799100000000  0.2840790000000  0.5514040000000 1.0
C      1  0.7491580000000  0.5030190000000  0.5506070000000 1.0
C      1  0.3756730000000  0.7197740000000  0.5599010000000 1.0
C      1  0.5888760000000  0.3907920000000  0.3699090000000 1.0
C      1  0.5551900000000  0.6319490000000  0.3666720000000 1.0
C      1  0.3569660000000  0.4692860000000  0.3620840000000 1.0
C      1  0.5921660000000  0.3892040000000  0.6362550000000 1.0
C      1  0.5453840000000  0.6348740000000  0.6322900000000 1.0
C      1  0.3563560000000  0.4807570000000  0.6302800000000 1.0
C      1  0.2880300000000  0.4484050000000  0.4357100000000 1.0
C      1  0.6404710000000  0.3410870000000  0.4480550000000 1.0
C      1  0.5684130000000  0.6997540000000  0.4473780000000 1.0
C      1  0.2861700000000  0.4588370000000  0.5489320000000 1.0
C      1  0.6513990000000  0.3443550000000  0.5616270000000 1.0
C      1  0.5602210000000  0.7101610000000  0.5606920000000 1.0
END
