TITL C-3036482-790-460 -1.36824209688557e-06 3375 -350.578004297359 0 0 60 (D3) n - 1
REM
REM in /home/bkarasulu/work/CARBON/AIRSS/Generating-Clusters/REBO/Higher-Symm/Only-C60
REM
REM
REM
REM
REM
REM ./C.cell (a2850807a9bf4ad07a5b6933b78d9264)
REM AIRSS Version 0.9.1 bugfix July 2018 build 013d7b7c2542+ Fri, 06 Jul 2018 19:26:36 +0100
REM compiler GCC version 9.2.1 20190827 (Red Hat 9.2.1-1)
REM options -cpp -mtune=generic -march=x86-64 -g -O0 -fpre-include=/usr/include/finclude/math-vector-fortran.h
REM seed 206109724 -1975529037 917982607 2077983033 1997233526 804364584 1569889508 1260518222 1013231452 799660329 376069295 -662886288 -328331184 732411423 -1505229128 244039697 602592963 -295012530 1501790529 -1547678010 2142040058 -1446223520 1113605007 -1804059550 1186733800 -1224447315 -1670738684 -1951381245 -1285413470 456174212 -2111995013 1302416132 993533001
REM
CELL 1.54180   15.00000   15.00000   15.00000   90.00000   90.00000   90.00000
LATT -1
SFAC C  
C      1  0.3065610000000  0.6231160000000  0.3628480000000 1.0
C      1  0.3065720000000  0.3196460000000  0.4619890000000 1.0
C      1  0.3065980000000  0.5572400000000  0.6752300000000 1.0
C      1  0.6934400000000  0.6231140000000  0.6371530000000 1.0
C      1  0.6934260000000  0.3196440000000  0.5380100000000 1.0
C      1  0.6934020000000  0.5572390000000  0.3247700000000 1.0
C      1  0.5414080000000  0.5192180000000  0.4066450000000 1.0
C      1  0.5414220000000  0.4095470000000  0.5300270000000 1.0
C      1  0.5414270000000  0.5712340000000  0.5633140000000 1.0
C      1  0.4585930000000  0.5192180000000  0.5933560000000 1.0
C      1  0.4585770000000  0.4095470000000  0.4699720000000 1.0
C      1  0.4585740000000  0.5712360000000  0.4366860000000 1.0
C      1  0.3794840000000  0.5448720000000  0.3625320000000 1.0
C      1  0.3795030000000  0.3585010000000  0.5298950000000 1.0
C      1  0.3795130000000  0.5966280000000  0.6076140000000 1.0
C      1  0.6205170000000  0.5448700000000  0.6374690000000 1.0
C      1  0.6204960000000  0.3585010000000  0.4701040000000 1.0
C      1  0.6204880000000  0.5966280000000  0.3923860000000 1.0
C      1  0.7077210000000  0.4181560000000  0.5511220000000 1.0
C      1  0.7077210000000  0.5852140000000  0.5452800000000 1.0
C      1  0.7077040000000  0.4966260000000  0.4035250000000 1.0
C      1  0.2922780000000  0.4181590000000  0.4488770000000 1.0
C      1  0.2922800000000  0.5852160000000  0.4547200000000 1.0
C      1  0.2922970000000  0.4966270000000  0.5964740000000 1.0
C      1  0.6299350000000  0.5764630000000  0.4974440000000 1.0
C      1  0.6299270000000  0.4595670000000  0.4350360000000 1.0
C      1  0.6299430000000  0.4639680000000  0.5674750000000 1.0
C      1  0.3700660000000  0.5764640000000  0.5025570000000 1.0
C      1  0.3700730000000  0.4595670000000  0.5649630000000 1.0
C      1  0.3700570000000  0.4639700000000  0.4325250000000 1.0
C      1  0.4001460000000  0.4378260000000  0.7336100000000 1.0
C      1  0.4001130000000  0.7333900000000  0.4370580000000 1.0
C      1  0.4000990000000  0.3287860000000  0.3293670000000 1.0
C      1  0.5998530000000  0.4378260000000  0.2663900000000 1.0
C      1  0.5998890000000  0.7333880000000  0.5629430000000 1.0
C      1  0.5998990000000  0.3287850000000  0.6706320000000 1.0
C      1  0.6266740000000  0.4014140000000  0.7285730000000 1.0
C      1  0.6266460000000  0.7472550000000  0.4710690000000 1.0
C      1  0.6266240000000  0.3513300000000  0.3003140000000 1.0
C      1  0.3733250000000  0.4014160000000  0.2714270000000 1.0
C      1  0.3733570000000  0.7472560000000  0.5289320000000 1.0
C      1  0.3733740000000  0.3513310000000  0.6996860000000 1.0
C      1  0.6595440000000  0.5098410000000  0.2493730000000 1.0
C      1  0.6595850000000  0.2780450000000  0.6167630000000 1.0
C      1  0.6595900000000  0.7121120000000  0.6338090000000 1.0
C      1  0.3404550000000  0.5098420000000  0.7506270000000 1.0
C      1  0.3404120000000  0.2780470000000  0.3832360000000 1.0
C      1  0.3404110000000  0.7121140000000  0.3661920000000 1.0
C      1  0.4185240000000  0.4807990000000  0.2892830000000 1.0
C      1  0.4185620000000  0.3271070000000  0.6220020000000 1.0
C      1  0.4185610000000  0.6920960000000  0.5887440000000 1.0
C      1  0.5814760000000  0.4807980000000  0.7107190000000 1.0
C      1  0.5814360000000  0.3271050000000  0.3779970000000 1.0
C      1  0.5814420000000  0.6920960000000  0.4112560000000 1.0
C      1  0.4838500000000  0.3660320000000  0.3763640000000 1.0
C      1  0.4838860000000  0.4599110000000  0.6778410000000 1.0
C      1  0.4838590000000  0.6740570000000  0.4458010000000 1.0
C      1  0.5161490000000  0.3660340000000  0.6236350000000 1.0
C      1  0.5161140000000  0.4599110000000  0.3221610000000 1.0
C      1  0.5161420000000  0.6740560000000  0.5541980000000 1.0
END
