TITL C-3036482-790-1194 0.0116563454934201 3375 -330.776458386747 0 0 60 (C1) n - 1
REM
REM in /home/bkarasulu/work/CARBON/AIRSS/Generating-Clusters/REBO/Higher-Symm/Only-C60
REM
REM
REM
REM
REM
REM ./C.cell (a2850807a9bf4ad07a5b6933b78d9264)
REM AIRSS Version 0.9.1 bugfix July 2018 build 013d7b7c2542+ Fri, 06 Jul 2018 19:26:36 +0100
REM compiler GCC version 9.2.1 20190827 (Red Hat 9.2.1-1)
REM options -cpp -mtune=generic -march=x86-64 -g -O0 -fpre-include=/usr/include/finclude/math-vector-fortran.h
REM seed -1083970231 -990120858 -2106380398 1503219111 700490417 -249582141 1755387776 507337584 1188738059 -821450628 -1005521016 -208444333 -39583415 -1828205330 613016792 578879677 -1019511743 -929831592 -1374717599 -258682574 1432713551 -415508530 1028097607 765049795 233531842 -2065213012 -1729418416 -2091766788 -740616556 -1958198464 -1859901900 -346788102 2297006
REM
CELL 1.54180   15.00000   15.00000   15.00000   90.00000   90.00000   90.00000
LATT -1
SFAC C  
C      1  0.2520410000000  0.6019330000000  0.5932750000000 1.0
C      1  0.4682810000000  0.5899980000000  0.5692200000000 1.0
C      1  0.2904480000000  0.4432690000000  0.2786200000000 1.0
C      1  0.5618350000000  0.3462190000000  0.7035920000000 1.0
C      1  0.5370500000000  0.7436940000000  0.5029040000000 1.0
C      1  0.6163760000000  0.3122920000000  0.6291330000000 1.0
C      1  0.3614180000000  0.3337580000000  0.5160310000000 1.0
C      1  0.4940560000000  0.4834010000000  0.5362530000000 1.0
C      1  0.2669440000000  0.6273940000000  0.5151330000000 1.0
C      1  0.5961210000000  0.4352700000000  0.7237490000000 1.0
C      1  0.7320840000000  0.6459780000000  0.4920360000000 1.0
C      1  0.5501760000000  0.2929810000000  0.5432330000000 1.0
C      1  0.6798940000000  0.6469130000000  0.5680600000000 1.0
C      1  0.3856570000000  0.4664260000000  0.7057530000000 1.0
C      1  0.4401060000000  0.6542230000000  0.4853750000000 1.0
C      1  0.6162530000000  0.7274160000000  0.5745560000000 1.0
C      1  0.4187210000000  0.5751410000000  0.3030400000000 1.0
C      1  0.4552690000000  0.7481660000000  0.4234270000000 1.0
C      1  0.2835900000000  0.4453740000000  0.3724140000000 1.0
C      1  0.6717750000000  0.4032580000000  0.5105180000000 1.0
C      1  0.5352480000000  0.4388730000000  0.3800690000000 1.0
C      1  0.5127340000000  0.5471440000000  0.4525500000000 1.0
C      1  0.5677460000000  0.4053870000000  0.5479320000000 1.0
C      1  0.6988280000000  0.5848190000000  0.4169510000000 1.0
C      1  0.6814130000000  0.4279820000000  0.4103670000000 1.0
C      1  0.4180980000000  0.5504800000000  0.4069740000000 1.0
C      1  0.3980210000000  0.6709780000000  0.3612270000000 1.0
C      1  0.3001880000000  0.4886450000000  0.5432580000000 1.0
C      1  0.3414020000000  0.6253220000000  0.4486490000000 1.0
C      1  0.6458460000000  0.4622520000000  0.3102800000000 1.0
C      1  0.5563650000000  0.6384080000000  0.7155640000000 1.0
C      1  0.4022550000000  0.3782110000000  0.7101390000000 1.0
C      1  0.3181550000000  0.5303070000000  0.6415510000000 1.0
C      1  0.5032430000000  0.2796070000000  0.4407510000000 1.0
C      1  0.5401070000000  0.3132900000000  0.3389240000000 1.0
C      1  0.5695360000000  0.6330230000000  0.4947310000000 1.0
C      1  0.4702630000000  0.3157410000000  0.6905390000000 1.0
C      1  0.2470000000000  0.3807960000000  0.2294320000000 1.0
C      1  0.5856840000000  0.6573540000000  0.3227050000000 1.0
C      1  0.5527500000000  0.6435230000000  0.6069690000000 1.0
C      1  0.4591290000000  0.4821890000000  0.2495890000000 1.0
C      1  0.4673250000000  0.2621550000000  0.6104180000000 1.0
C      1  0.6639610000000  0.6270930000000  0.3305070000000 1.0
C      1  0.5238120000000  0.6667870000000  0.3974710000000 1.0
C      1  0.5086000000000  0.4110060000000  0.2879120000000 1.0
C      1  0.6310440000000  0.3573470000000  0.3368310000000 1.0
C      1  0.4743720000000  0.5661760000000  0.8186360000000 1.0
C      1  0.3558820000000  0.5014210000000  0.2446510000000 1.0
C      1  0.4907640000000  0.3884770000000  0.4431170000000 1.0
C      1  0.4071410000000  0.4246470000000  0.4973780000000 1.0
C      1  0.6836610000000  0.3756170000000  0.6066980000000 1.0
C      1  0.5706820000000  0.5329810000000  0.6787870000000 1.0
C      1  0.4228110000000  0.2653150000000  0.5196710000000 1.0
C      1  0.6745650000000  0.5100030000000  0.4921290000000 1.0
C      1  0.4108570000000  0.5817290000000  0.6514770000000 1.0
C      1  0.6750760000000  0.4545650000000  0.6603630000000 1.0
C      1  0.3420610000000  0.4862420000000  0.4447740000000 1.0
C      1  0.6498260000000  0.5454660000000  0.5974400000000 1.0
C      1  0.5957680000000  0.5270160000000  0.3861800000000 1.0
C      1  0.4696840000000  0.5385190000000  0.7300830000000 1.0
END
