TITL C-3036486-2224-601 -4.8043312643066e-06 3375 -331.513974436165 0 0 60 (C1) n - 1
REM
REM in /home/bkarasulu/work/CARBON/AIRSS/Generating-Clusters/REBO/Higher-Symm/Only-C60
REM
REM
REM
REM
REM
REM ./C.cell (a2850807a9bf4ad07a5b6933b78d9264)
REM AIRSS Version 0.9.1 bugfix July 2018 build 013d7b7c2542+ Fri, 06 Jul 2018 19:26:36 +0100
REM compiler GCC version 9.2.1 20190827 (Red Hat 9.2.1-1)
REM options -cpp -mtune=generic -march=x86-64 -g -O0 -fpre-include=/usr/include/finclude/math-vector-fortran.h
REM seed -1742849124 -1917587890 -401206586 -460623419 1195836944 966728558 1826468177 1476715069 -1037630855 1305592780 -537547378 -1313859354 1351184643 1441419332 -1315952320 45843793 766849787 328014684 1037810380 1071510992 -242756773 -1861327510 1465908745 1685367287 869702720 838027453 -1074481737 1810697940 193316622 106236855 1874910378 234234738 1387694985
REM
CELL 1.54180   15.00000   15.00000   15.00000   90.00000   90.00000   90.00000
LATT -1
SFAC C  
C      1  0.3587380000000  0.5642770000000  0.3278060000000 1.0
C      1  0.4885410000000  0.6948380000000  0.3044680000000 1.0
C      1  0.6408930000000  0.5447570000000  0.3004820000000 1.0
C      1  0.5978280000000  0.3295380000000  0.3271180000000 1.0
C      1  0.4157640000000  0.3651660000000  0.3359640000000 1.0
C      1  0.4102540000000  0.3029970000000  0.4953250000000 1.0
C      1  0.2859360000000  0.5369590000000  0.4793130000000 1.0
C      1  0.4323100000000  0.6941980000000  0.5058850000000 1.0
C      1  0.6417480000000  0.6182600000000  0.4765300000000 1.0
C      1  0.6727510000000  0.3970290000000  0.4855130000000 1.0
C      1  0.6110810000000  0.4635070000000  0.7406540000000 1.0
C      1  0.4934190000000  0.4012560000000  0.7373970000000 1.0
C      1  0.3458830000000  0.5048600000000  0.7350090000000 1.0
C      1  0.4211940000000  0.5573380000000  0.7417970000000 1.0
C      1  0.5992830000000  0.5676230000000  0.7378600000000 1.0
C      1  0.4264020000000  0.6280730000000  0.6795790000000 1.0
C      1  0.6221470000000  0.6117730000000  0.6600870000000 1.0
C      1  0.6438130000000  0.4262380000000  0.6640580000000 1.0
C      1  0.4782840000000  0.3469460000000  0.6679950000000 1.0
C      1  0.3126960000000  0.4545540000000  0.6516900000000 1.0
C      1  0.5463530000000  0.3026920000000  0.4131420000000 1.0
C      1  0.3469060000000  0.4143570000000  0.4021170000000 1.0
C      1  0.3762780000000  0.6384960000000  0.3990580000000 1.0
C      1  0.5674740000000  0.6796340000000  0.3849510000000 1.0
C      1  0.6792800000000  0.4775460000000  0.3802210000000 1.0
C      1  0.3558200000000  0.3586820000000  0.6196800000000 1.0
C      1  0.3167270000000  0.5833770000000  0.6199250000000 1.0
C      1  0.5277010000000  0.6924890000000  0.6219200000000 1.0
C      1  0.7038280000000  0.5256100000000  0.6001630000000 1.0
C      1  0.5937280000000  0.3147170000000  0.6127470000000 1.0
C      1  0.6674410000000  0.6297510000000  0.3698770000000 1.0
C      1  0.6876650000000  0.3663340000000  0.3789520000000 1.0
C      1  0.4534500000000  0.2953030000000  0.4088380000000 1.0
C      1  0.3085100000000  0.4977930000000  0.3956130000000 1.0
C      1  0.4385450000000  0.7120290000000  0.3938620000000 1.0
C      1  0.5108360000000  0.3903350000000  0.2868070000000 1.0
C      1  0.4051220000000  0.4698020000000  0.2957500000000 1.0
C      1  0.4497770000000  0.5930040000000  0.2715330000000 1.0
C      1  0.5598660000000  0.6082400000000  0.2962330000000 1.0
C      1  0.6136360000000  0.4377680000000  0.2966010000000 1.0
C      1  0.3878530000000  0.4537470000000  0.5664720000000 1.0
C      1  0.4218330000000  0.5834180000000  0.5788040000000 1.0
C      1  0.5541200000000  0.5950620000000  0.5735080000000 1.0
C      1  0.6076190000000  0.4734450000000  0.5721420000000 1.0
C      1  0.5118010000000  0.3814810000000  0.5693630000000 1.0
C      1  0.6778760000000  0.3612770000000  0.5866870000000 1.0
C      1  0.4232560000000  0.2851040000000  0.5947610000000 1.0
C      1  0.2623080000000  0.5157890000000  0.5712990000000 1.0
C      1  0.4325670000000  0.7122560000000  0.6099450000000 1.0
C      1  0.6853150000000  0.6188420000000  0.5732520000000 1.0
C      1  0.6562970000000  0.5095330000000  0.4772620000000 1.0
C      1  0.5758340000000  0.3505240000000  0.4877070000000 1.0
C      1  0.3627030000000  0.3861330000000  0.4894250000000 1.0
C      1  0.3538280000000  0.6124160000000  0.4954100000000 1.0
C      1  0.5359880000000  0.6602130000000  0.4838220000000 1.0
C      1  0.5038420000000  0.4966530000000  0.2508450000000 1.0
C      1  0.5065920000000  0.5073320000000  0.7604040000000 1.0
C      1  0.5148680000000  0.4998090000000  0.3639940000000 1.0
C      1  0.4944850000000  0.4959010000000  0.5574560000000 1.0
C      1  0.5049310000000  0.4993980000000  0.4444150000000 1.0
END
