TITL C-3036479-9801-1199 0.00191042391367752 3375 -354.58916477273 0 0 60 (C2) n - 1
REM
REM in /home/bkarasulu/work/CARBON/AIRSS/Generating-Clusters/REBO/Higher-Symm/Only-C60
REM
REM
REM
REM
REM
REM ./C.cell (a2850807a9bf4ad07a5b6933b78d9264)
REM AIRSS Version 0.9.1 bugfix July 2018 build 013d7b7c2542+ Fri, 06 Jul 2018 19:26:36 +0100
REM compiler GCC version 9.2.1 20190827 (Red Hat 9.2.1-1)
REM options -cpp -mtune=generic -march=x86-64 -g -O0 -fpre-include=/usr/include/finclude/math-vector-fortran.h
REM seed 1257606172 -876534559 1144421681 2052607619 -1476181161 -1961231201 1702742572 546989759 -826603574 1194303716 -1966711589 1353832585 -1096309567 940279772 -607101815 1069163991 253980506 129859193 -1125391723 -1235144925 -1843412877 1245042609 1534498090 1919477979 731214152 -1861973225 -98009908 1381532910 2020873465 -375780334 -1780041142 -327229357 1014821934
REM
CELL 1.54180   15.00000   15.00000   15.00000   90.00000   90.00000   90.00000
LATT -1
SFAC C  
C      1  0.6085530000000  0.2693010000000  0.4700570000000 1.0
C      1  0.6085740000000  0.7306790000000  0.5299260000000 1.0
C      1  0.6137800000000  0.2551430000000  0.5763110000000 1.0
C      1  0.6137860000000  0.7448500000000  0.4236770000000 1.0
C      1  0.5048600000000  0.6216700000000  0.3046050000000 1.0
C      1  0.5048380000000  0.3783260000000  0.6954690000000 1.0
C      1  0.5231600000000  0.6128330000000  0.6960000000000 1.0
C      1  0.5231760000000  0.3871560000000  0.3040540000000 1.0
C      1  0.4080340000000  0.5471650000000  0.5734600000000 1.0
C      1  0.4080670000000  0.4527850000000  0.4265340000000 1.0
C      1  0.4212610000000  0.5530910000000  0.3952150000000 1.0
C      1  0.4212880000000  0.4469020000000  0.6048160000000 1.0
C      1  0.4519160000000  0.4480190000000  0.7345420000000 1.0
C      1  0.4519450000000  0.5520050000000  0.2654980000000 1.0
C      1  0.4696290000000  0.4534980000000  0.2600960000000 1.0
C      1  0.4695870000000  0.5465180000000  0.7398820000000 1.0
C      1  0.6650850000000  0.4495430000000  0.6249430000000 1.0
C      1  0.6651480000000  0.5504490000000  0.3750880000000 1.0
C      1  0.6596140000000  0.4563880000000  0.3835400000000 1.0
C      1  0.6595810000000  0.5436050000000  0.6164760000000 1.0
C      1  0.3744730000000  0.5433650000000  0.6833380000000 1.0
C      1  0.3744810000000  0.4566390000000  0.3166430000000 1.0
C      1  0.3515380000000  0.5681090000000  0.3044410000000 1.0
C      1  0.3515150000000  0.4319100000000  0.6955460000000 1.0
C      1  0.3033470000000  0.5554100000000  0.5362230000000 1.0
C      1  0.3033630000000  0.4445600000000  0.4637490000000 1.0
C      1  0.3127960000000  0.5494240000000  0.4287640000000 1.0
C      1  0.3128320000000  0.4506170000000  0.5712170000000 1.0
C      1  0.7013160000000  0.3128020000000  0.4505880000000 1.0
C      1  0.7013680000000  0.6872020000000  0.5494120000000 1.0
C      1  0.7036310000000  0.3067640000000  0.5546650000000 1.0
C      1  0.7036680000000  0.6932660000000  0.4453170000000 1.0
C      1  0.5085540000000  0.2972720000000  0.4443770000000 1.0
C      1  0.5085900000000  0.7026830000000  0.5556250000000 1.0
C      1  0.5108400000000  0.2896080000000  0.5577920000000 1.0
C      1  0.5108350000000  0.7104340000000  0.4422080000000 1.0
C      1  0.5705990000000  0.5777510000000  0.6162180000000 1.0
C      1  0.5706240000000  0.4222700000000  0.3838070000000 1.0
C      1  0.5819940000000  0.5911340000000  0.3611850000000 1.0
C      1  0.5819730000000  0.4088270000000  0.6388220000000 1.0
C      1  0.4530350000000  0.6896760000000  0.3533490000000 1.0
C      1  0.4529900000000  0.3103270000000  0.6466570000000 1.0
C      1  0.4664960000000  0.6804340000000  0.6497230000000 1.0
C      1  0.4664840000000  0.3195490000000  0.3502570000000 1.0
C      1  0.3594970000000  0.6655820000000  0.3622250000000 1.0
C      1  0.3594860000000  0.3344280000000  0.6377790000000 1.0
C      1  0.3745780000000  0.6517510000000  0.6477770000000 1.0
C      1  0.3745830000000  0.3482420000000  0.3521800000000 1.0
C      1  0.3283510000000  0.6577390000000  0.5639140000000 1.0
C      1  0.3283380000000  0.3422710000000  0.4360470000000 1.0
C      1  0.3235810000000  0.6593790000000  0.4571840000000 1.0
C      1  0.3235260000000  0.3405850000000  0.5427890000000 1.0
C      1  0.4940650000000  0.4091120000000  0.4585660000000 1.0
C      1  0.4940450000000  0.5908700000000  0.5414630000000 1.0
C      1  0.5007270000000  0.4034470000000  0.5646540000000 1.0
C      1  0.5007250000000  0.5966260000000  0.4353420000000 1.0
C      1  0.7237050000000  0.3895110000000  0.4013430000000 1.0
C      1  0.7236930000000  0.6104580000000  0.5986690000000 1.0
C      1  0.7309160000000  0.3854720000000  0.6015150000000 1.0
C      1  0.7309580000000  0.6145680000000  0.3984420000000 1.0
END
