TITL C-3036483-1610-1111 0.00254366719927935 3375 -348.607345178546 0 0 60 (Ci) n - 1
REM
REM in /home/bkarasulu/work/CARBON/AIRSS/Generating-Clusters/REBO/Higher-Symm/Only-C60
REM
REM
REM
REM
REM
REM ./C.cell (a2850807a9bf4ad07a5b6933b78d9264)
REM AIRSS Version 0.9.1 bugfix July 2018 build 013d7b7c2542+ Fri, 06 Jul 2018 19:26:36 +0100
REM compiler GCC version 9.2.1 20190827 (Red Hat 9.2.1-1)
REM options -cpp -mtune=generic -march=x86-64 -g -O0 -fpre-include=/usr/include/finclude/math-vector-fortran.h
REM seed 390098813 -1775426158 -741500135 -1479717438 -537995537 1916043914 -1448675862 -1324774660 -987222713 922697746 1396004707 -626141994 1243352502 2043272676 1247502003 -1251377256 -1240100670 -2136587918 -1474824333 1858011001 -1537413333 -1277655632 -1493303842 2062252761 -888284693 -812862951 -2135517788 920749978 -938779357 -652006600 -794986515 -1036135419 -1552806919
REM
CELL 1.54180   15.00000   15.00000   15.00000   90.00000   90.00000   90.00000
LATT -1
SFAC C  
C      1  0.5928260000000  0.3935500000000  0.6641220000000 1.0
C      1  0.4071760000000  0.6064390000000  0.3358700000000 1.0
C      1  0.7612030000000  0.5475870000000  0.3863780000000 1.0
C      1  0.2387980000000  0.4524340000000  0.6136200000000 1.0
C      1  0.4785720000000  0.5418560000000  0.6874100000000 1.0
C      1  0.5214220000000  0.4581440000000  0.3126030000000 1.0
C      1  0.6946440000000  0.4042630000000  0.6456010000000 1.0
C      1  0.3053610000000  0.5957230000000  0.3543820000000 1.0
C      1  0.4701590000000  0.3630410000000  0.3496220000000 1.0
C      1  0.5298420000000  0.6369590000000  0.6503960000000 1.0
C      1  0.5107860000000  0.3479550000000  0.6743350000000 1.0
C      1  0.4892100000000  0.6520530000000  0.3256650000000 1.0
C      1  0.3841820000000  0.4940590000000  0.5530990000000 1.0
C      1  0.6158260000000  0.5059390000000  0.4468930000000 1.0
C      1  0.6238850000000  0.6728740000000  0.4666650000000 1.0
C      1  0.3761070000000  0.3271310000000  0.5333420000000 1.0
C      1  0.6556440000000  0.5798950000000  0.3699680000000 1.0
C      1  0.3443540000000  0.4201150000000  0.6300300000000 1.0
C      1  0.4989620000000  0.5705240000000  0.5360230000000 1.0
C      1  0.5010460000000  0.4294690000000  0.4639740000000 1.0
C      1  0.5310960000000  0.5365700000000  0.3870180000000 1.0
C      1  0.4689070000000  0.4634320000000  0.6129830000000 1.0
C      1  0.7067340000000  0.5573650000000  0.5614750000000 1.0
C      1  0.2932620000000  0.4426350000000  0.4385230000000 1.0
C      1  0.7681020000000  0.4532330000000  0.3981680000000 1.0
C      1  0.2319090000000  0.5467880000000  0.6018220000000 1.0
C      1  0.4028810000000  0.5069800000000  0.3679950000000 1.0
C      1  0.5971250000000  0.4930080000000  0.6319990000000 1.0
C      1  0.4597770000000  0.6907950000000  0.4496350000000 1.0
C      1  0.5402160000000  0.3091990000000  0.5503740000000 1.0
C      1  0.7264950000000  0.4627700000000  0.5746550000000 1.0
C      1  0.2735080000000  0.5372290000000  0.4253350000000 1.0
C      1  0.6072080000000  0.5693340000000  0.6991950000000 1.0
C      1  0.3927920000000  0.4306490000000  0.3008000000000 1.0
C      1  0.5762570000000  0.6850700000000  0.3859320000000 1.0
C      1  0.4237350000000  0.3149350000000  0.6140750000000 1.0
C      1  0.3441230000000  0.3880670000000  0.3813490000000 1.0
C      1  0.6558730000000  0.6119280000000  0.6186540000000 1.0
C      1  0.6658240000000  0.4114390000000  0.4206420000000 1.0
C      1  0.3341910000000  0.5885660000000  0.5793440000000 1.0
C      1  0.5866240000000  0.6861160000000  0.5695940000000 1.0
C      1  0.4133720000000  0.3138850000000  0.4304170000000 1.0
C      1  0.5939750000000  0.6199720000000  0.2958930000000 1.0
C      1  0.4060180000000  0.3800350000000  0.7041090000000 1.0
C      1  0.4808020000000  0.5973340000000  0.4466020000000 1.0
C      1  0.5192030000000  0.4026600000000  0.5534090000000 1.0
C      1  0.4846000000000  0.2599750000000  0.4947500000000 1.0
C      1  0.5153870000000  0.7400180000000  0.5052650000000 1.0
C      1  0.2521760000000  0.5842580000000  0.5048260000000 1.0
C      1  0.7478380000000  0.4157520000000  0.4951600000000 1.0
C      1  0.4220950000000  0.4782970000000  0.4569420000000 1.0
C      1  0.5779130000000  0.5216950000000  0.5430520000000 1.0
C      1  0.4480510000000  0.5131640000000  0.7791460000000 1.0
C      1  0.5519340000000  0.4868380000000  0.2208630000000 1.0
C      1  0.4104780000000  0.4380930000000  0.7868160000000 1.0
C      1  0.5895070000000  0.5619090000000  0.2131890000000 1.0
C      1  0.5704790000000  0.3941410000000  0.3908280000000 1.0
C      1  0.4295350000000  0.6058510000000  0.6091690000000 1.0
C      1  0.2936430000000  0.3990320000000  0.5303140000000 1.0
C      1  0.7063510000000  0.6009760000000  0.4696860000000 1.0
END
