TITL C-3036479-9801-487 9.93378491852139e-06 3375 -339.128843419883 0 0 60 (Td) n - 1
REM
REM in /home/bkarasulu/work/CARBON/AIRSS/Generating-Clusters/REBO/Higher-Symm/Only-C60
REM
REM
REM
REM
REM
REM ./C.cell (a2850807a9bf4ad07a5b6933b78d9264)
REM AIRSS Version 0.9.1 bugfix July 2018 build 013d7b7c2542+ Fri, 06 Jul 2018 19:26:36 +0100
REM compiler GCC version 9.2.1 20190827 (Red Hat 9.2.1-1)
REM options -cpp -mtune=generic -march=x86-64 -g -O0 -fpre-include=/usr/include/finclude/math-vector-fortran.h
REM seed -1234707043 -2041083317 -825690014 -1676913106 754615484 684334277 -1754928875 1984132588 2017165044 -1509283306 -682247486 -1874965376 1463385703 2033610817 1164122975 -1081645130 1106087913 -2026206523 1875698881 2049731046 -1121718345 1760382819 -989387322 -1589028499 -866383320 -46475644 1501917893 -531937085 -1628889351 1530920638 649308044 419895966 -1653644951
REM
CELL 1.54180   15.00000   15.00000   15.00000   90.00000   90.00000   90.00000
LATT -1
SFAC C  
C      1  0.5794260000000  0.5004530000000  0.3523230000000 1.0
C      1  0.5004530000000  0.3523230000000  0.5794260000000 1.0
C      1  0.3523230000000  0.5794260000000  0.5004530000000 1.0
C      1  0.4205740000000  0.4995470000000  0.3523230000000 1.0
C      1  0.5794260000000  0.4995470000000  0.6476770000000 1.0
C      1  0.4205740000000  0.5004530000000  0.6476770000000 1.0
C      1  0.4995470000000  0.6476770000000  0.5794260000000 1.0
C      1  0.5004530000000  0.6476770000000  0.4205740000000 1.0
C      1  0.4995470000000  0.3523230000000  0.4205740000000 1.0
C      1  0.6476770000000  0.4205740000000  0.5004530000000 1.0
C      1  0.3523230000000  0.4205740000000  0.4995470000000 1.0
C      1  0.6476770000000  0.5794260000000  0.4995470000000 1.0
C      1  0.5004530000000  0.5794260000000  0.3523230000000 1.0
C      1  0.3523230000000  0.5004530000000  0.5794260000000 1.0
C      1  0.5794260000000  0.3523230000000  0.5004530000000 1.0
C      1  0.4995470000000  0.4205740000000  0.3523230000000 1.0
C      1  0.4995470000000  0.5794260000000  0.6476770000000 1.0
C      1  0.5004530000000  0.4205740000000  0.6476770000000 1.0
C      1  0.6476770000000  0.4995470000000  0.5794260000000 1.0
C      1  0.6476770000000  0.5004530000000  0.4205740000000 1.0
C      1  0.3523230000000  0.4995470000000  0.4205740000000 1.0
C      1  0.4205740000000  0.6476770000000  0.5004530000000 1.0
C      1  0.4205740000000  0.3523230000000  0.4995470000000 1.0
C      1  0.5794260000000  0.6476770000000  0.4995470000000 1.0
C      1  0.4807810000000  0.7552600000000  0.4082010000000 1.0
C      1  0.7552600000000  0.4082010000000  0.4807810000000 1.0
C      1  0.4082010000000  0.4807810000000  0.7552600000000 1.0
C      1  0.5192190000000  0.2447400000000  0.4082010000000 1.0
C      1  0.4807810000000  0.2447400000000  0.5917990000000 1.0
C      1  0.5192190000000  0.7552600000000  0.5917990000000 1.0
C      1  0.2447400000000  0.5917990000000  0.4807810000000 1.0
C      1  0.7552600000000  0.5917990000000  0.5192190000000 1.0
C      1  0.2447400000000  0.4082010000000  0.5192190000000 1.0
C      1  0.5917990000000  0.5192190000000  0.7552600000000 1.0
C      1  0.4082010000000  0.5192190000000  0.2447400000000 1.0
C      1  0.5917990000000  0.4807810000000  0.2447400000000 1.0
C      1  0.7552600000000  0.4807810000000  0.4082010000000 1.0
C      1  0.4082010000000  0.7552600000000  0.4807810000000 1.0
C      1  0.4807810000000  0.4082010000000  0.7552600000000 1.0
C      1  0.2447400000000  0.5192190000000  0.4082010000000 1.0
C      1  0.2447400000000  0.4807810000000  0.5917990000000 1.0
C      1  0.7552600000000  0.5192190000000  0.5917990000000 1.0
C      1  0.5917990000000  0.2447400000000  0.4807810000000 1.0
C      1  0.5917990000000  0.7552600000000  0.5192190000000 1.0
C      1  0.4082010000000  0.2447400000000  0.5192190000000 1.0
C      1  0.5192190000000  0.5917990000000  0.7552600000000 1.0
C      1  0.5192190000000  0.4082010000000  0.2447400000000 1.0
C      1  0.4807810000000  0.5917990000000  0.2447400000000 1.0
C      1  0.4387430000000  0.1990160000000  0.4387430000000 1.0
C      1  0.1990160000000  0.4387430000000  0.4387430000000 1.0
C      1  0.4387430000000  0.4387430000000  0.1990160000000 1.0
C      1  0.5612570000000  0.8009840000000  0.4387430000000 1.0
C      1  0.4387430000000  0.8009840000000  0.5612570000000 1.0
C      1  0.5612570000000  0.1990160000000  0.5612570000000 1.0
C      1  0.8009840000000  0.5612570000000  0.4387430000000 1.0
C      1  0.1990160000000  0.5612570000000  0.5612570000000 1.0
C      1  0.8009840000000  0.4387430000000  0.5612570000000 1.0
C      1  0.5612570000000  0.5612570000000  0.1990160000000 1.0
C      1  0.4387430000000  0.5612570000000  0.8009840000000 1.0
C      1  0.5612570000000  0.4387430000000  0.8009840000000 1.0
END
