TITL C-3036485-3770-312 0.000952689248204542 3375 -327.104118966151 0 0 60 (C1) n - 1
REM
REM in /home/bkarasulu/work/CARBON/AIRSS/Generating-Clusters/REBO/Higher-Symm/Only-C60
REM
REM
REM
REM
REM
REM ./C.cell (a2850807a9bf4ad07a5b6933b78d9264)
REM AIRSS Version 0.9.1 bugfix July 2018 build 013d7b7c2542+ Fri, 06 Jul 2018 19:26:36 +0100
REM compiler GCC version 9.2.1 20190827 (Red Hat 9.2.1-1)
REM options -cpp -mtune=generic -march=x86-64 -g -O0 -fpre-include=/usr/include/finclude/math-vector-fortran.h
REM seed -962135508 674399298 1649555740 -1525028243 -1736144432 546968226 -498454205 -1221879325 -1250927131 2081637667 1443581555 878219517 -102222755 1851065919 -2042331029 685894224 -115581554 1407805027 106272303 -650564194 -1399063093 1305002391 -1242347769 -992242709 -353049962 190770613 1005079046 1770796797 -1708831050 681650981 1299085698 -84957767 -1977640673
REM
CELL 1.54180   15.00000   15.00000   15.00000   90.00000   90.00000   90.00000
LATT -1
SFAC C  
C      1  0.3845530000000  0.3961370000000  0.7447740000000 1.0
C      1  0.5627620000000  0.3578240000000  0.7418130000000 1.0
C      1  0.6546030000000  0.5143330000000  0.7409050000000 1.0
C      1  0.5326270000000  0.6502060000000  0.7438370000000 1.0
C      1  0.3656060000000  0.5771140000000  0.7453790000000 1.0
C      1  0.3567850000000  0.6453880000000  0.5347840000000 1.0
C      1  0.3172620000000  0.4083260000000  0.5354550000000 1.0
C      1  0.5312330000000  0.3019620000000  0.5340010000000 1.0
C      1  0.6943400000000  0.4696580000000  0.5271200000000 1.0
C      1  0.5914870000000  0.6775230000000  0.5314150000000 1.0
C      1  0.5395260000000  0.5838270000000  0.5046090000000 1.0
C      1  0.4299420000000  0.5671410000000  0.5054720000000 1.0
C      1  0.4122290000000  0.4573700000000  0.5050500000000 1.0
C      1  0.5108170000000  0.4067260000000  0.5037110000000 1.0
C      1  0.5888340000000  0.4850670000000  0.5037560000000 1.0
C      1  0.6147510000000  0.6766180000000  0.4293890000000 1.0
C      1  0.3688580000000  0.6615000000000  0.4316890000000 1.0
C      1  0.3061630000000  0.4229040000000  0.4320080000000 1.0
C      1  0.5156610000000  0.2911820000000  0.4310590000000 1.0
C      1  0.7098160000000  0.4477330000000  0.4265560000000 1.0
C      1  0.4422960000000  0.5724280000000  0.2498980000000 1.0
C      1  0.4139440000000  0.4660660000000  0.2505520000000 1.0
C      1  0.5063860000000  0.4061820000000  0.2501690000000 1.0
C      1  0.5917680000000  0.4755960000000  0.2492350000000 1.0
C      1  0.5522660000000  0.5782870000000  0.2490410000000 1.0
C      1  0.4931610000000  0.6579310000000  0.2959060000000 1.0
C      1  0.3483850000000  0.5407300000000  0.2970500000000 1.0
C      1  0.4153480000000  0.3666930000000  0.2970410000000 1.0
C      1  0.6021300000000  0.3767790000000  0.2954090000000 1.0
C      1  0.6498110000000  0.5569490000000  0.2944160000000 1.0
C      1  0.7187460000000  0.5246690000000  0.3750430000000 1.0
C      1  0.5456110000000  0.7110520000000  0.3776930000000 1.0
C      1  0.3152660000000  0.6058940000000  0.3804570000000 1.0
C      1  0.3441330000000  0.3553870000000  0.3814760000000 1.0
C      1  0.5913390000000  0.3069620000000  0.3806960000000 1.0
C      1  0.4652510000000  0.2797960000000  0.6120010000000 1.0
C      1  0.6957520000000  0.3999940000000  0.6060040000000 1.0
C      1  0.6563290000000  0.6551900000000  0.6103690000000 1.0
C      1  0.3986060000000  0.6986900000000  0.6142920000000 1.0
C      1  0.2782640000000  0.4641940000000  0.6147250000000 1.0
C      1  0.4083090000000  0.4918180000000  0.6130010000000 1.0
C      1  0.4773670000000  0.4122020000000  0.6119270000000 1.0
C      1  0.5741320000000  0.4535550000000  0.6109310000000 1.0
C      1  0.5650290000000  0.5585120000000  0.6120320000000 1.0
C      1  0.4625180000000  0.5821000000000  0.6130620000000 1.0
C      1  0.6320060000000  0.4217950000000  0.6930810000000 1.0
C      1  0.6137150000000  0.6008030000000  0.6953750000000 1.0
C      1  0.4376620000000  0.6396580000000  0.6978850000000 1.0
C      1  0.3464290000000  0.4841460000000  0.6981980000000 1.0
C      1  0.4665980000000  0.3496210000000  0.6963580000000 1.0
C      1  0.4372250000000  0.3089730000000  0.3898510000000 1.0
C      1  0.6677860000000  0.3781750000000  0.3858540000000 1.0
C      1  0.6660940000000  0.6144090000000  0.3886750000000 1.0
C      1  0.4439230000000  0.6902060000000  0.3908240000000 1.0
C      1  0.3010630000000  0.5030340000000  0.3908840000000 1.0
C      1  0.7406110000000  0.5482340000000  0.5522980000000 1.0
C      1  0.5352580000000  0.7499050000000  0.5537510000000 1.0
C      1  0.2698450000000  0.6159290000000  0.5558300000000 1.0
C      1  0.3217400000000  0.3169120000000  0.5576350000000 1.0
C      1  0.6200460000000  0.2820050000000  0.5582940000000 1.0
END
