TITL C-3036486-2224-181 -2.53168842710489e-06 3375 -361.039733540476 0 0 60 (C3i) n - 1
REM
REM in /home/bkarasulu/work/CARBON/AIRSS/Generating-Clusters/REBO/Higher-Symm/Only-C60
REM
REM
REM
REM
REM
REM ./C.cell (a2850807a9bf4ad07a5b6933b78d9264)
REM AIRSS Version 0.9.1 bugfix July 2018 build 013d7b7c2542+ Fri, 06 Jul 2018 19:26:36 +0100
REM compiler GCC version 9.2.1 20190827 (Red Hat 9.2.1-1)
REM options -cpp -mtune=generic -march=x86-64 -g -O0 -fpre-include=/usr/include/finclude/math-vector-fortran.h
REM seed 1688652648 -87322751 1586187692 -1757858786 1894380517 1223665914 -1977401186 1910179597 281854857 2094455699 2029232592 1498978344 981750778 -2111119690 506309559 1255982661 151996538 -1239439676 -1922382960 675032088 1679950641 1192053480 -1076107370 2041424473 -938767793 -404575874 1900411514 970574048 301763481 615632974 -1593712945 2076015724 -1358320220
REM
CELL 1.54180   15.00000   15.00000   15.00000   90.00000   90.00000   90.00000
LATT -1
SFAC C  
C      1  0.5419590000000  0.7208380000000  0.6210170000000 1.0
C      1  0.4161350000000  0.2791630000000  0.5968110000000 1.0
C      1  0.3742680000000  0.7208650000000  0.4758120000000 1.0
C      1  0.4580410000000  0.2791620000000  0.3789830000000 1.0
C      1  0.5838650000000  0.7208370000000  0.4031890000000 1.0
C      1  0.6257320000000  0.2791350000000  0.5241880000000 1.0
C      1  0.5903420000000  0.5019260000000  0.2716640000000 1.0
C      1  0.7429150000000  0.4980350000000  0.4640710000000 1.0
C      1  0.6525740000000  0.5019060000000  0.6924070000000 1.0
C      1  0.4096580000000  0.4980740000000  0.7283360000000 1.0
C      1  0.2570850000000  0.5019650000000  0.5359290000000 1.0
C      1  0.3474260000000  0.4980940000000  0.3075930000000 1.0
C      1  0.4730250000000  0.5148190000000  0.4008490000000 1.0
C      1  0.5723770000000  0.4851790000000  0.4270610000000 1.0
C      1  0.5993580000000  0.5147980000000  0.5262130000000 1.0
C      1  0.5269750000000  0.4851810000000  0.5991510000000 1.0
C      1  0.4276230000000  0.5148210000000  0.5729390000000 1.0
C      1  0.4006420000000  0.4852020000000  0.4737870000000 1.0
C      1  0.3936710000000  0.4427110000000  0.6428980000000 1.0
C      1  0.3230930000000  0.5573250000000  0.4793740000000 1.0
C      1  0.4293980000000  0.4427140000000  0.3364720000000 1.0
C      1  0.6063290000000  0.5572890000000  0.3571020000000 1.0
C      1  0.6769070000000  0.4426750000000  0.5206260000000 1.0
C      1  0.5706020000000  0.5572860000000  0.6635280000000 1.0
C      1  0.2694800000000  0.5213920000000  0.6294810000000 1.0
C      1  0.2726020000000  0.4786720000000  0.3651000000000 1.0
C      1  0.5031310000000  0.5213700000000  0.2356210000000 1.0
C      1  0.7305200000000  0.4786080000000  0.3705190000000 1.0
C      1  0.7273980000000  0.5213280000000  0.6349000000000 1.0
C      1  0.4968690000000  0.4786300000000  0.7643790000000 1.0
C      1  0.5523910000000  0.2838910000000  0.3847870000000 1.0
C      1  0.6260130000000  0.7160880000000  0.4878000000000 1.0
C      1  0.5735320000000  0.2838820000000  0.6029960000000 1.0
C      1  0.4476090000000  0.7161090000000  0.6152130000000 1.0
C      1  0.3739870000000  0.2839120000000  0.5122000000000 1.0
C      1  0.4264680000000  0.7161180000000  0.3970040000000 1.0
C      1  0.3502740000000  0.6376800000000  0.5141260000000 1.0
C      1  0.4128780000000  0.3623560000000  0.3773740000000 1.0
C      1  0.5626610000000  0.6376540000000  0.3632590000000 1.0
C      1  0.6497260000000  0.3623200000000  0.4858740000000 1.0
C      1  0.5871220000000  0.6376440000000  0.6226260000000 1.0
C      1  0.4373390000000  0.3623460000000  0.6367410000000 1.0
C      1  0.7270950000000  0.5622220000000  0.5461730000000 1.0
C      1  0.5735490000000  0.4377290000000  0.7197470000000 1.0
C      1  0.3464800000000  0.5622710000000  0.6735790000000 1.0
C      1  0.2729050000000  0.4377780000000  0.4538270000000 1.0
C      1  0.4264510000000  0.5622710000000  0.2802530000000 1.0
C      1  0.6535200000000  0.4377290000000  0.3264210000000 1.0
C      1  0.5927260000000  0.2255560000000  0.4508380000000 1.0
C      1  0.5889890000000  0.7744180000000  0.5557660000000 1.0
C      1  0.4961490000000  0.2255660000000  0.6049060000000 1.0
C      1  0.4072740000000  0.7744440000000  0.5491620000000 1.0
C      1  0.4110110000000  0.2255820000000  0.4442340000000 1.0
C      1  0.5038510000000  0.7744340000000  0.3950940000000 1.0
C      1  0.4578990000000  0.6212250000000  0.3630260000000 1.0
C      1  0.5975500000000  0.3787740000000  0.3950340000000 1.0
C      1  0.6397010000000  0.6211950000000  0.5320170000000 1.0
C      1  0.5421010000000  0.3787750000000  0.6369740000000 1.0
C      1  0.4024500000000  0.6212260000000  0.6049660000000 1.0
C      1  0.3602990000000  0.3788050000000  0.4679830000000 1.0
END
