TITL C-3036481-494-527 0.0216905901534651 3375 -361.34906070745 0 0 60 (S10) n - 1
REM
REM in /home/bkarasulu/work/CARBON/AIRSS/Generating-Clusters/REBO/Higher-Symm/Only-C60
REM
REM
REM
REM
REM
REM ./C.cell (a2850807a9bf4ad07a5b6933b78d9264)
REM AIRSS Version 0.9.1 bugfix July 2018 build 013d7b7c2542+ Fri, 06 Jul 2018 19:26:36 +0100
REM compiler GCC version 9.2.1 20190827 (Red Hat 9.2.1-1)
REM options -cpp -mtune=generic -march=x86-64 -g -O0 -fpre-include=/usr/include/finclude/math-vector-fortran.h
REM seed -1235671020 -432617084 -669313069 -362348077 -772836529 1091248943 -100454852 865386410 648834290 1414848388 -46420281 -662005213 -1856402453 1041281935 -874256773 390516437 1655255320 708061356 339884178 -750353970 1422874535 -555383730 -1864382544 -18049788 268403999 1654885173 1676923315 601888324 -693772552 1987425784 1203940701 1259938797 -879610326
REM
CELL 1.54180   15.00000   15.00000   15.00000   90.00000   90.00000   90.00000
LATT -1
SFAC C  
C      1  0.3663750000000  0.4891550000000  0.2734640000000 1.0
C      1  0.6336280000000  0.3580680000000  0.3231060000000 1.0
C      1  0.3663770000000  0.2812000000000  0.4403120000000 1.0
C      1  0.6336270000000  0.2879100000000  0.5803150000000 1.0
C      1  0.3663720000000  0.3756210000000  0.6896470000000 1.0
C      1  0.6336250000000  0.5108450000000  0.7265360000000 1.0
C      1  0.3663720000000  0.6419320000000  0.6768940000000 1.0
C      1  0.6336230000000  0.7188000000000  0.5596880000000 1.0
C      1  0.3663730000000  0.7120900000000  0.4196850000000 1.0
C      1  0.6336280000000  0.6243790000000  0.3103530000000 1.0
C      1  0.3039460000000  0.3381900000000  0.4665690000000 1.0
C      1  0.6960510000000  0.3494450000000  0.5680650000000 1.0
C      1  0.3039450000000  0.4182060000000  0.6435570000000 1.0
C      1  0.6960560000000  0.5182110000000  0.6642190000000 1.0
C      1  0.3039440000000  0.6112520000000  0.6221480000000 1.0
C      1  0.6960540000000  0.6618100000000  0.5334310000000 1.0
C      1  0.3039490000000  0.6505550000000  0.4319350000000 1.0
C      1  0.6960550000000  0.5817940000000  0.3564430000000 1.0
C      1  0.3039440000000  0.4817890000000  0.3357810000000 1.0
C      1  0.6960560000000  0.3887480000000  0.3778520000000 1.0
C      1  0.4386860000000  0.5526200000000  0.4339480000000 1.0
C      1  0.5613310000000  0.5037380000000  0.4156580000000 1.0
C      1  0.4386990000000  0.4534670000000  0.4295570000000 1.0
C      1  0.5613260000000  0.4209310000000  0.4703650000000 1.0
C      1  0.4386960000000  0.4186090000000  0.5225430000000 1.0
C      1  0.5613130000000  0.4473800000000  0.5660520000000 1.0
C      1  0.4386680000000  0.4962620000000  0.5843420000000 1.0
C      1  0.5613000000000  0.5465330000000  0.5704430000000 1.0
C      1  0.4386750000000  0.5790690000000  0.5296350000000 1.0
C      1  0.5613040000000  0.5813910000000  0.4774570000000 1.0
C      1  0.4630720000000  0.5101390000000  0.6786630000000 1.0
C      1  0.5369600000000  0.6132190000000  0.6385780000000 1.0
C      1  0.4630490000000  0.6730530000000  0.5455640000000 1.0
C      1  0.5369530000000  0.6667740000000  0.4351470000000 1.0
C      1  0.4630500000000  0.5968030000000  0.3495190000000 1.0
C      1  0.5369280000000  0.4898610000000  0.3213370000000 1.0
C      1  0.4630400000000  0.3867810000000  0.3614220000000 1.0
C      1  0.5369510000000  0.3269470000000  0.4544360000000 1.0
C      1  0.4630470000000  0.3332260000000  0.5648530000000 1.0
C      1  0.5369500000000  0.4031970000000  0.6504810000000 1.0
C      1  0.5481130000000  0.7036430000000  0.5965520000000 1.0
C      1  0.4518780000000  0.7215070000000  0.4584000000000 1.0
C      1  0.5481140000000  0.6547570000000  0.3361650000000 1.0
C      1  0.4518940000000  0.5288800000000  0.2764760000000 1.0
C      1  0.5481160000000  0.3920050000000  0.3021830000000 1.0
C      1  0.4518870000000  0.2963570000000  0.4034480000000 1.0
C      1  0.5481220000000  0.2784930000000  0.5416000000000 1.0
C      1  0.4518860000000  0.3452430000000  0.6638350000000 1.0
C      1  0.5481060000000  0.4711200000000  0.7235240000000 1.0
C      1  0.4518840000000  0.6079950000000  0.6978170000000 1.0
C      1  0.7318660000000  0.4536770000000  0.5814550000000 1.0
C      1  0.2681360000000  0.5103930000000  0.5931310000000 1.0
C      1  0.7318660000000  0.5631620000000  0.5692210000000 1.0
C      1  0.2681360000000  0.5917860000000  0.5188800000000 1.0
C      1  0.7318670000000  0.5853520000000  0.4613320000000 1.0
C      1  0.2681340000000  0.5463230000000  0.4185450000000 1.0
C      1  0.7318640000000  0.4896070000000  0.4068690000000 1.0
C      1  0.2681340000000  0.4368380000000  0.4307790000000 1.0
C      1  0.7318640000000  0.4082140000000  0.4811200000000 1.0
C      1  0.2681330000000  0.4146480000000  0.5386680000000 1.0
END
