TITL C-3036479-9801-199 3.76474987365152e-06 3375 -352.435915117774 0 0 60 (C1) n - 1
REM
REM in /home/bkarasulu/work/CARBON/AIRSS/Generating-Clusters/REBO/Higher-Symm/Only-C60
REM
REM
REM
REM
REM
REM ./C.cell (a2850807a9bf4ad07a5b6933b78d9264)
REM AIRSS Version 0.9.1 bugfix July 2018 build 013d7b7c2542+ Fri, 06 Jul 2018 19:26:36 +0100
REM compiler GCC version 9.2.1 20190827 (Red Hat 9.2.1-1)
REM options -cpp -mtune=generic -march=x86-64 -g -O0 -fpre-include=/usr/include/finclude/math-vector-fortran.h
REM seed -1371706064 1683312842 -1995084878 1667447406 -528372832 -1016795013 -933497540 -2008531063 1417491087 -835052280 -1556630438 192716442 918261370 -366866049 -2088113388 915227435 -1118794014 -716439533 -1832064689 1001483127 411063899 434450909 1367126404 -716290926 1826227622 585850147 1084156001 -830524128 663585564 345274389 -1350461885 -1646094208 685754145
REM
CELL 1.54180   15.00000   15.00000   15.00000   90.00000   90.00000   90.00000
LATT -1
SFAC C  
C      1  0.5903350000000  0.2784020000000  0.5154660000000 1.0
C      1  0.6439980000000  0.6890950000000  0.5172700000000 1.0
C      1  0.2568460000000  0.5372190000000  0.5069090000000 1.0
C      1  0.4944660000000  0.2770030000000  0.5715200000000 1.0
C      1  0.6972910000000  0.6075370000000  0.5698210000000 1.0
C      1  0.2957720000000  0.6310480000000  0.5511350000000 1.0
C      1  0.2785110000000  0.5457990000000  0.6178430000000 1.0
C      1  0.5910530000000  0.2936200000000  0.6280770000000 1.0
C      1  0.6297750000000  0.6758820000000  0.6292140000000 1.0
C      1  0.3783790000000  0.4110040000000  0.6965380000000 1.0
C      1  0.6530280000000  0.4331510000000  0.6964280000000 1.0
C      1  0.4813970000000  0.6460860000000  0.7003060000000 1.0
C      1  0.5932350000000  0.4869790000000  0.2580480000000 1.0
C      1  0.4637300000000  0.5871190000000  0.2575050000000 1.0
C      1  0.4418810000000  0.4248510000000  0.2543430000000 1.0
C      1  0.4704950000000  0.5885020000000  0.4578110000000 1.0
C      1  0.4358670000000  0.4325290000000  0.4598150000000 1.0
C      1  0.5892600000000  0.4793570000000  0.4595430000000 1.0
C      1  0.4458320000000  0.4883910000000  0.7165120000000 1.0
C      1  0.5494160000000  0.4425850000000  0.7109210000000 1.0
C      1  0.5348800000000  0.5560330000000  0.7112950000000 1.0
C      1  0.5256280000000  0.4120900000000  0.4370130000000 1.0
C      1  0.5611620000000  0.5673370000000  0.4371760000000 1.0
C      1  0.4094250000000  0.5202140000000  0.4341170000000 1.0
C      1  0.6757130000000  0.3550020000000  0.6475170000000 1.0
C      1  0.5311830000000  0.7098220000000  0.6502470000000 1.0
C      1  0.2960960000000  0.4434800000000  0.6515900000000 1.0
C      1  0.6631880000000  0.3236780000000  0.3729080000000 1.0
C      1  0.5702250000000  0.7318570000000  0.3750130000000 1.0
C      1  0.2662920000000  0.4395990000000  0.3738980000000 1.0
C      1  0.3545000000000  0.5431620000000  0.6943580000000 1.0
C      1  0.5166690000000  0.3438730000000  0.6848250000000 1.0
C      1  0.6322620000000  0.5872500000000  0.6876270000000 1.0
C      1  0.4262930000000  0.3331910000000  0.6893330000000 1.0
C      1  0.6920720000000  0.5190090000000  0.6940170000000 1.0
C      1  0.3912410000000  0.6345990000000  0.7115850000000 1.0
C      1  0.6720070000000  0.3530800000000  0.5407850000000 1.0
C      1  0.5377090000000  0.7195750000000  0.5435250000000 1.0
C      1  0.2878880000000  0.4346880000000  0.5451660000000 1.0
C      1  0.5346430000000  0.4128460000000  0.2744200000000 1.0
C      1  0.5569460000000  0.5737700000000  0.2756670000000 1.0
C      1  0.4064020000000  0.5118870000000  0.2730640000000 1.0
C      1  0.4299180000000  0.6700160000000  0.2426050000000 1.0
C      1  0.3877920000000  0.3546130000000  0.2350820000000 1.0
C      1  0.6819120000000  0.4747660000000  0.2431520000000 1.0
C      1  0.5841050000000  0.2668210000000  0.4159150000000 1.0
C      1  0.6580800000000  0.6906970000000  0.4177890000000 1.0
C      1  0.2505500000000  0.5390530000000  0.4066710000000 1.0
C      1  0.7128920000000  0.5235260000000  0.5484830000000 1.0
C      1  0.3652870000000  0.6821760000000  0.5318610000000 1.0
C      1  0.4139030000000  0.3087190000000  0.5556850000000 1.0
C      1  0.3782540000000  0.3846330000000  0.5150870000000 1.0
C      1  0.6644390000000  0.4544390000000  0.5087040000000 1.0
C      1  0.4530800000000  0.6673470000000  0.5042130000000 1.0
C      1  0.7188210000000  0.3541030000000  0.4400130000000 1.0
C      1  0.5175990000000  0.7659330000000  0.4428820000000 1.0
C      1  0.2639780000000  0.3835440000000  0.4473730000000 1.0
C      1  0.5566300000000  0.3574500000000  0.3551200000000 1.0
C      1  0.5934940000000  0.6224680000000  0.3558370000000 1.0
C      1  0.3462750000000  0.5174950000000  0.3533590000000 1.0
END
