TITL C-3036484-3770-49 -6.5586435341206e-06 3375 -346.700766999695 0 0 60 (D2) n - 1
REM
REM in /home/bkarasulu/work/CARBON/AIRSS/Generating-Clusters/REBO/Higher-Symm/Only-C60
REM
REM
REM
REM
REM
REM ./C.cell (a2850807a9bf4ad07a5b6933b78d9264)
REM AIRSS Version 0.9.1 bugfix July 2018 build 013d7b7c2542+ Fri, 06 Jul 2018 19:26:36 +0100
REM compiler GCC version 9.2.1 20190827 (Red Hat 9.2.1-1)
REM options -cpp -mtune=generic -march=x86-64 -g -O0 -fpre-include=/usr/include/finclude/math-vector-fortran.h
REM seed 2089098689 -1086513915 -1283943580 -628544882 24045587 940773112 -848609345 828201729 -428943250 1497971111 -418648026 961630086 660398718 425119684 -309164269 -794374799 -748902291 -2061706145 200065833 430341455 649193808 1704473897 703070199 -1534621090 965401243 -444424975 1246311182 149315572 -1500229870 -1366378599 -490256368 -864474786 -550294680
REM
CELL 1.54180   15.00000   15.00000   15.00000   90.00000   90.00000   90.00000
LATT -1
SFAC C  
C      1  0.7428960000000  0.5658070000000  0.4934800000000 1.0
C      1  0.7414140000000  0.5085220000000  0.5815150000000 1.0
C      1  0.7428960000000  0.4341930000000  0.5065200000000 1.0
C      1  0.7414140000000  0.4914780000000  0.4184850000000 1.0
C      1  0.2628550000000  0.4184850000000  0.4914770000000 1.0
C      1  0.2613730000000  0.4934790000000  0.5658070000000 1.0
C      1  0.2628550000000  0.5815150000000  0.5085230000000 1.0
C      1  0.2613730000000  0.5065210000000  0.4341930000000 1.0
C      1  0.6514980000000  0.3047940000000  0.6053120000000 1.0
C      1  0.6528190000000  0.3848790000000  0.2904000000000 1.0
C      1  0.6514980000000  0.6952060000000  0.3946880000000 1.0
C      1  0.6528190000000  0.6151210000000  0.7096000000000 1.0
C      1  0.3514490000000  0.7095990000000  0.6151240000000 1.0
C      1  0.3527700000000  0.6053140000000  0.3047960000000 1.0
C      1  0.3514490000000  0.2904010000000  0.3848760000000 1.0
C      1  0.3527700000000  0.3946860000000  0.6952040000000 1.0
C      1  0.6018270000000  0.6740060000000  0.5710530000000 1.0
C      1  0.6098280000000  0.4364370000000  0.6956010000000 1.0
C      1  0.6018270000000  0.3259940000000  0.4289470000000 1.0
C      1  0.6098280000000  0.5635630000000  0.3043990000000 1.0
C      1  0.3944400000000  0.3043990000000  0.5635600000000 1.0
C      1  0.4024410000000  0.5710510000000  0.6740070000000 1.0
C      1  0.3944400000000  0.6956010000000  0.4364400000000 1.0
C      1  0.4024410000000  0.4289490000000  0.3259930000000 1.0
C      1  0.5929470000000  0.3226910000000  0.3333310000000 1.0
C      1  0.5923020000000  0.6598480000000  0.3279940000000 1.0
C      1  0.5929470000000  0.6773090000000  0.6666690000000 1.0
C      1  0.5923020000000  0.3401520000000  0.6720060000000 1.0
C      1  0.4119670000000  0.6720080000000  0.3401540000000 1.0
C      1  0.4113210000000  0.3333340000000  0.3226890000000 1.0
C      1  0.4119670000000  0.3279920000000  0.6598460000000 1.0
C      1  0.4113210000000  0.6666660000000  0.6773110000000 1.0
C      1  0.6084860000000  0.5042840000000  0.5834440000000 1.0
C      1  0.6102000000000  0.4338800000000  0.5044060000000 1.0
C      1  0.6084860000000  0.4957160000000  0.4165560000000 1.0
C      1  0.6102000000000  0.5661200000000  0.4955940000000 1.0
C      1  0.3940690000000  0.4955930000000  0.5661200000000 1.0
C      1  0.3957820000000  0.5834440000000  0.5042860000000 1.0
C      1  0.3940690000000  0.5044070000000  0.4338800000000 1.0
C      1  0.3957820000000  0.4165560000000  0.4957140000000 1.0
C      1  0.6752020000000  0.5224420000000  0.6661120000000 1.0
C      1  0.6746080000000  0.3485480000000  0.5131520000000 1.0
C      1  0.6752020000000  0.4775580000000  0.3338880000000 1.0
C      1  0.6746080000000  0.6514520000000  0.4868480000000 1.0
C      1  0.3296610000000  0.4868460000000  0.6514510000000 1.0
C      1  0.3290670000000  0.6661120000000  0.5224450000000 1.0
C      1  0.3296610000000  0.5131540000000  0.3485490000000 1.0
C      1  0.3290670000000  0.3338880000000  0.4775550000000 1.0
C      1  0.4808060000000  0.3784770000000  0.5574800000000 1.0
C      1  0.4826170000000  0.4585230000000  0.3939340000000 1.0
C      1  0.4808060000000  0.6215230000000  0.4425200000000 1.0
C      1  0.4826170000000  0.5414770000000  0.6060660000000 1.0
C      1  0.5216520000000  0.6060650000000  0.5414790000000 1.0
C      1  0.5234630000000  0.5574820000000  0.3784780000000 1.0
C      1  0.5216520000000  0.3939350000000  0.4585210000000 1.0
C      1  0.5234630000000  0.4425180000000  0.6215220000000 1.0
C      1  0.5021340000000  0.6863560000000  0.3136460000000 1.0
C      1  0.5021340000000  0.6951760000000  0.6951780000000 1.0
C      1  0.5021340000000  0.3136440000000  0.6863540000000 1.0
C      1  0.5021340000000  0.3048240000000  0.3048220000000 1.0
END
