TITL C-3036479-9801-575 -5.09183699265065e-06 3375 -354.803067799774 0 0 60 (C1) n - 1
REM
REM in /home/bkarasulu/work/CARBON/AIRSS/Generating-Clusters/REBO/Higher-Symm/Only-C60
REM
REM
REM
REM
REM
REM ./C.cell (a2850807a9bf4ad07a5b6933b78d9264)
REM AIRSS Version 0.9.1 bugfix July 2018 build 013d7b7c2542+ Fri, 06 Jul 2018 19:26:36 +0100
REM compiler GCC version 9.2.1 20190827 (Red Hat 9.2.1-1)
REM options -cpp -mtune=generic -march=x86-64 -g -O0 -fpre-include=/usr/include/finclude/math-vector-fortran.h
REM seed 940493074 -81696479 771385659 -550949191 344183991 -276857377 -874976014 -970679619 -344768172 208887530 2079234948 375064974 -73854477 10977829 465720459 61080060 -1591909577 -1479291079 608306087 225202949 2131547914 1385332353 1580964761 686873038 1662800626 1229777270 -1497349634 -440170427 -1561325066 -1525936190 -1165499638 1941580769 1352091966
REM
CELL 1.54180   15.00000   15.00000   15.00000   90.00000   90.00000   90.00000
LATT -1
SFAC C  
C      1  0.3411260000000  0.5248060000000  0.6492960000000 1.0
C      1  0.7058610000000  0.5559320000000  0.5623080000000 1.0
C      1  0.4533190000000  0.5191420000000  0.2896960000000 1.0
C      1  0.6570970000000  0.5399790000000  0.6505740000000 1.0
C      1  0.2936870000000  0.5445170000000  0.5610730000000 1.0
C      1  0.5542720000000  0.5336720000000  0.2892810000000 1.0
C      1  0.6108770000000  0.5750880000000  0.3762700000000 1.0
C      1  0.3436930000000  0.5908940000000  0.4738830000000 1.0
C      1  0.5575100000000  0.5891540000000  0.6587960000000 1.0
C      1  0.3900720000000  0.5678600000000  0.3705110000000 1.0
C      1  0.6620120000000  0.6042260000000  0.4746970000000 1.0
C      1  0.4441820000000  0.5689830000000  0.6664940000000 1.0
C      1  0.7038050000000  0.4490930000000  0.5661700000000 1.0
C      1  0.4455260000000  0.4112210000000  0.2695980000000 1.0
C      1  0.3253210000000  0.4150620000000  0.6571010000000 1.0
C      1  0.2877440000000  0.4362650000000  0.5663120000000 1.0
C      1  0.5449780000000  0.4240020000000  0.2776300000000 1.0
C      1  0.6629040000000  0.4315180000000  0.6560770000000 1.0
C      1  0.4042800000000  0.6717030000000  0.5116440000000 1.0
C      1  0.5627770000000  0.6785740000000  0.6050900000000 1.0
C      1  0.5565210000000  0.6564480000000  0.4130690000000 1.0
C      1  0.6083630000000  0.6897690000000  0.5083620000000 1.0
C      1  0.4539260000000  0.6548540000000  0.6077020000000 1.0
C      1  0.4496200000000  0.6418790000000  0.4127710000000 1.0
C      1  0.6370210000000  0.4667320000000  0.3636180000000 1.0
C      1  0.3160130000000  0.4869900000000  0.4461710000000 1.0
C      1  0.5445090000000  0.4836610000000  0.6871730000000 1.0
C      1  0.3519200000000  0.4629770000000  0.3478210000000 1.0
C      1  0.6991390000000  0.5016020000000  0.4439940000000 1.0
C      1  0.4407130000000  0.4613860000000  0.7028880000000 1.0
C      1  0.5583570000000  0.4780190000000  0.5739580000000 1.0
C      1  0.5333810000000  0.4607020000000  0.4101250000000 1.0
C      1  0.4059600000000  0.4671070000000  0.5133130000000 1.0
C      1  0.4573350000000  0.4618010000000  0.5895410000000 1.0
C      1  0.4420770000000  0.4558950000000  0.4181660000000 1.0
C      1  0.5961680000000  0.4821020000000  0.4892950000000 1.0
C      1  0.4125280000000  0.7842130000000  0.5009150000000 1.0
C      1  0.5631870000000  0.7890800000000  0.5841560000000 1.0
C      1  0.5615580000000  0.7701550000000  0.4135860000000 1.0
C      1  0.6102830000000  0.8031380000000  0.4953180000000 1.0
C      1  0.4639270000000  0.7647970000000  0.5856320000000 1.0
C      1  0.4623230000000  0.7498870000000  0.4205620000000 1.0
C      1  0.7363340000000  0.3970060000000  0.4159230000000 1.0
C      1  0.3039740000000  0.3618200000000  0.3274010000000 1.0
C      1  0.4435710000000  0.3575320000000  0.7492830000000 1.0
C      1  0.2642290000000  0.3899240000000  0.4146910000000 1.0
C      1  0.6872340000000  0.3693790000000  0.3322610000000 1.0
C      1  0.5397790000000  0.3829830000000  0.7419110000000 1.0
C      1  0.3992820000000  0.3305750000000  0.4970960000000 1.0
C      1  0.5455780000000  0.3360940000000  0.5809530000000 1.0
C      1  0.5446930000000  0.3275620000000  0.4127430000000 1.0
C      1  0.5937940000000  0.3415240000000  0.4965620000000 1.0
C      1  0.4474590000000  0.3283240000000  0.5815220000000 1.0
C      1  0.4474530000000  0.3229030000000  0.4119810000000 1.0
C      1  0.3080040000000  0.3666660000000  0.5012160000000 1.0
C      1  0.5948910000000  0.3635870000000  0.6612770000000 1.0
C      1  0.5877300000000  0.3496920000000  0.3267470000000 1.0
C      1  0.6835690000000  0.3820320000000  0.4999210000000 1.0
C      1  0.3927740000000  0.3445660000000  0.6624280000000 1.0
C      1  0.4037820000000  0.3429470000000  0.3254480000000 1.0
END
