TITL C-3036479-9801-353 -1.07385415973222e-05 3375 -335.436074620229 0 0 60 (C2) n - 1
REM
REM in /home/bkarasulu/work/CARBON/AIRSS/Generating-Clusters/REBO/Higher-Symm/Only-C60
REM
REM
REM
REM
REM
REM ./C.cell (a2850807a9bf4ad07a5b6933b78d9264)
REM AIRSS Version 0.9.1 bugfix July 2018 build 013d7b7c2542+ Fri, 06 Jul 2018 19:26:36 +0100
REM compiler GCC version 9.2.1 20190827 (Red Hat 9.2.1-1)
REM options -cpp -mtune=generic -march=x86-64 -g -O0 -fpre-include=/usr/include/finclude/math-vector-fortran.h
REM seed -1066301646 -2104015735 234441746 45620898 1433240712 -440974304 -601949541 -1454075492 -1498481265 -1941609505 1843466581 -1557883397 -228517557 1565090346 240108089 1915461466 -807191631 -1603544017 -173997986 -1260069097 987304435 1133811623 -1563287121 1861236373 190918612 -272982012 -1115236510 1599556240 -740644556 -1845196871 -723350767 -623767663 4926678
REM
CELL 1.54180   15.00000   15.00000   15.00000   90.00000   90.00000   90.00000
LATT -1
SFAC C  
C      1  0.4468830000000  0.5625180000000  0.4821660000000 1.0
C      1  0.5531170000000  0.5625180000000  0.5178340000000 1.0
C      1  0.5635170000000  0.5033690000000  0.7334580000000 1.0
C      1  0.4364830000000  0.5033690000000  0.2665420000000 1.0
C      1  0.4065790000000  0.3013730000000  0.4088180000000 1.0
C      1  0.5934210000000  0.3013730000000  0.5911820000000 1.0
C      1  0.7430350000000  0.3981150000000  0.5771910000000 1.0
C      1  0.2569650000000  0.3981150000000  0.4228090000000 1.0
C      1  0.5085090000000  0.3492040000000  0.3932640000000 1.0
C      1  0.4914910000000  0.3492040000000  0.6067360000000 1.0
C      1  0.3097980000000  0.5340710000000  0.5801330000000 1.0
C      1  0.6902020000000  0.5340710000000  0.4198670000000 1.0
C      1  0.5240220000000  0.4893830000000  0.2489000000000 1.0
C      1  0.4759780000000  0.4893830000000  0.7511000000000 1.0
C      1  0.4507940000000  0.6335700000000  0.6834040000000 1.0
C      1  0.5492060000000  0.6335700000000  0.3165960000000 1.0
C      1  0.6349200000000  0.6087750000000  0.2859370000000 1.0
C      1  0.3650800000000  0.6087750000000  0.7140630000000 1.0
C      1  0.5452080000000  0.7163310000000  0.5343730000000 1.0
C      1  0.4547920000000  0.7163310000000  0.4656270000000 1.0
C      1  0.6184200000000  0.4301010000000  0.6108320000000 1.0
C      1  0.3815800000000  0.4301010000000  0.3891680000000 1.0
C      1  0.5524540000000  0.3254230000000  0.4911730000000 1.0
C      1  0.4475460000000  0.3254230000000  0.5088270000000 1.0
C      1  0.3882070000000  0.4103180000000  0.4831970000000 1.0
C      1  0.6117930000000  0.4103180000000  0.5168030000000 1.0
C      1  0.6534550000000  0.6783280000000  0.5403420000000 1.0
C      1  0.3465450000000  0.6783280000000  0.4596580000000 1.0
C      1  0.6732670000000  0.5306880000000  0.3192680000000 1.0
C      1  0.3267330000000  0.5306880000000  0.6807320000000 1.0
C      1  0.3861920000000  0.4223550000000  0.2940120000000 1.0
C      1  0.6138080000000  0.4223550000000  0.7059880000000 1.0
C      1  0.6762880000000  0.6295360000000  0.4540980000000 1.0
C      1  0.3237120000000  0.6295360000000  0.5459020000000 1.0
C      1  0.3110470000000  0.3137940000000  0.4343020000000 1.0
C      1  0.6889530000000  0.3137940000000  0.5656980000000 1.0
C      1  0.6093110000000  0.6366790000000  0.6198480000000 1.0
C      1  0.3906890000000  0.6366790000000  0.3801520000000 1.0
C      1  0.6201760000000  0.3623950000000  0.3737070000000 1.0
C      1  0.3798240000000  0.3623950000000  0.6262930000000 1.0
C      1  0.6131700000000  0.4497000000000  0.3013840000000 1.0
C      1  0.3868300000000  0.4497000000000  0.6986160000000 1.0
C      1  0.3070050000000  0.3605570000000  0.5396160000000 1.0
C      1  0.6929950000000  0.3605570000000  0.4603840000000 1.0
C      1  0.5651670000000  0.6453040000000  0.4476640000000 1.0
C      1  0.4348330000000  0.6453040000000  0.5523360000000 1.0
C      1  0.4024430000000  0.4910010000000  0.5382230000000 1.0
C      1  0.5975570000000  0.4910010000000  0.4617770000000 1.0
C      1  0.4752040000000  0.6857270000000  0.3583470000000 1.0
C      1  0.5247960000000  0.6857270000000  0.6416530000000 1.0
C      1  0.3706090000000  0.5403380000000  0.3533440000000 1.0
C      1  0.6293910000000  0.5403380000000  0.6466560000000 1.0
C      1  0.7290700000000  0.4657120000000  0.4867430000000 1.0
C      1  0.2709300000000  0.4657120000000  0.5132570000000 1.0
C      1  0.4675310000000  0.4591110000000  0.6217000000000 1.0
C      1  0.5324690000000  0.4591110000000  0.3783000000000 1.0
C      1  0.5078800000000  0.5617460000000  0.3930890000000 1.0
C      1  0.4921200000000  0.5617460000000  0.6069110000000 1.0
C      1  0.2768630000000  0.5044780000000  0.4062170000000 1.0
C      1  0.7231370000000  0.5044780000000  0.5937830000000 1.0
END
