TITL C-3036485-3770-259 4.11001313251798e-06 3375 -335.942644007137 0 0 60 (Ci) n - 1
REM
REM in /home/bkarasulu/work/CARBON/AIRSS/Generating-Clusters/REBO/Higher-Symm/Only-C60
REM
REM
REM
REM
REM
REM ./C.cell (a2850807a9bf4ad07a5b6933b78d9264)
REM AIRSS Version 0.9.1 bugfix July 2018 build 013d7b7c2542+ Fri, 06 Jul 2018 19:26:36 +0100
REM compiler GCC version 9.2.1 20190827 (Red Hat 9.2.1-1)
REM options -cpp -mtune=generic -march=x86-64 -g -O0 -fpre-include=/usr/include/finclude/math-vector-fortran.h
REM seed -569915127 -1273598556 -136441188 1613314080 940732140 -1294132728 -1635444090 1779536761 -350462981 693628214 1794195959 68786507 -1299509147 -1188482307 1609304739 -2147031997 -1944085836 1704012960 -1945175978 -483713601 -354400748 -1276819743 924593170 -1907925380 -946290842 -1625572850 1324330191 1928487791 -718396304 113152791 -34162113 -1695629765 -2078643585
REM
CELL 1.54180   15.00000   15.00000   15.00000   90.00000   90.00000   90.00000
LATT -1
SFAC C  
C      1  0.6008930000000  0.2976760000000  0.5522070000000 1.0
C      1  0.3991070000000  0.7023240000000  0.4477930000000 1.0
C      1  0.6749130000000  0.3558520000000  0.4909220000000 1.0
C      1  0.3250870000000  0.6441480000000  0.5090780000000 1.0
C      1  0.5809100000000  0.4059940000000  0.5218280000000 1.0
C      1  0.4190900000000  0.5940060000000  0.4781720000000 1.0
C      1  0.3563610000000  0.3557740000000  0.3721060000000 1.0
C      1  0.6436390000000  0.6442260000000  0.6278940000000 1.0
C      1  0.4600000000000  0.5214320000000  0.5285230000000 1.0
C      1  0.5400000000000  0.4785680000000  0.4714770000000 1.0
C      1  0.4488560000000  0.5184430000000  0.2999520000000 1.0
C      1  0.5511440000000  0.4815570000000  0.7000480000000 1.0
C      1  0.3030950000000  0.5132650000000  0.4998880000000 1.0
C      1  0.6969050000000  0.4867350000000  0.5001120000000 1.0
C      1  0.5688790000000  0.3644780000000  0.3074430000000 1.0
C      1  0.4311210000000  0.6355220000000  0.6925570000000 1.0
C      1  0.3036250000000  0.5864040000000  0.4129770000000 1.0
C      1  0.6963750000000  0.4135960000000  0.5870230000000 1.0
C      1  0.5426670000000  0.6908550000000  0.3951240000000 1.0
C      1  0.4573330000000  0.3091450000000  0.6048760000000 1.0
C      1  0.6488300000000  0.3516870000000  0.3853090000000 1.0
C      1  0.3511700000000  0.6483130000000  0.6146910000000 1.0
C      1  0.4853270000000  0.2494920000000  0.3985570000000 1.0
C      1  0.5146730000000  0.7505080000000  0.6014430000000 1.0
C      1  0.5662250000000  0.2754370000000  0.3692730000000 1.0
C      1  0.4337750000000  0.7245630000000  0.6307270000000 1.0
C      1  0.6820810000000  0.4845510000000  0.6754230000000 1.0
C      1  0.3179190000000  0.5154490000000  0.3245770000000 1.0
C      1  0.4022140000000  0.4464010000000  0.5582830000000 1.0
C      1  0.5977860000000  0.5535990000000  0.4417170000000 1.0
C      1  0.6258730000000  0.5409200000000  0.3346790000000 1.0
C      1  0.3741270000000  0.4590800000000  0.6653210000000 1.0
C      1  0.5440160000000  0.6119870000000  0.3202220000000 1.0
C      1  0.4559840000000  0.3880130000000  0.6797780000000 1.0
C      1  0.6405330000000  0.3844570000000  0.6830030000000 1.0
C      1  0.3594670000000  0.6155430000000  0.3169970000000 1.0
C      1  0.5890660000000  0.7000060000000  0.5723930000000 1.0
C      1  0.4109340000000  0.2999940000000  0.4276070000000 1.0
C      1  0.5515180000000  0.4021750000000  0.6185800000000 1.0
C      1  0.4484820000000  0.5978250000000  0.3814200000000 1.0
C      1  0.5003380000000  0.4386290000000  0.3473730000000 1.0
C      1  0.4996620000000  0.5613710000000  0.6526270000000 1.0
C      1  0.6202810000000  0.5719120000000  0.7075640000000 1.0
C      1  0.3797190000000  0.4280880000000  0.2924360000000 1.0
C      1  0.4485160000000  0.4273950000000  0.4352930000000 1.0
C      1  0.5514840000000  0.5726050000000  0.5647070000000 1.0
C      1  0.7085050000000  0.5575210000000  0.4121620000000 1.0
C      1  0.2914950000000  0.4424790000000  0.5878380000000 1.0
C      1  0.6565070000000  0.5404060000000  0.5834400000000 1.0
C      1  0.3434930000000  0.4595940000000  0.4165600000000 1.0
C      1  0.4530110000000  0.6205900000000  0.2522390000000 1.0
C      1  0.5469890000000  0.3794100000000  0.7477610000000 1.0
C      1  0.4767790000000  0.3911890000000  0.2467460000000 1.0
C      1  0.5232210000000  0.6088110000000  0.7532540000000 1.0
C      1  0.5338040000000  0.2596450000000  0.5973540000000 1.0
C      1  0.4661960000000  0.7403550000000  0.4026460000000 1.0
C      1  0.4269120000000  0.3518390000000  0.5178450000000 1.0
C      1  0.5730880000000  0.6481610000000  0.4821550000000 1.0
C      1  0.6701820000000  0.4527360000000  0.3945790000000 1.0
C      1  0.3298180000000  0.5472640000000  0.6054210000000 1.0
END
