TITL C-3036484-3770-414 -3.28033907106481e-06 3375 -345.711624633742 0 0 60 (S4) n - 1
REM
REM in /home/bkarasulu/work/CARBON/AIRSS/Generating-Clusters/REBO/Higher-Symm/Only-C60
REM
REM
REM
REM
REM
REM ./C.cell (a2850807a9bf4ad07a5b6933b78d9264)
REM AIRSS Version 0.9.1 bugfix July 2018 build 013d7b7c2542+ Fri, 06 Jul 2018 19:26:36 +0100
REM compiler GCC version 9.2.1 20190827 (Red Hat 9.2.1-1)
REM options -cpp -mtune=generic -march=x86-64 -g -O0 -fpre-include=/usr/include/finclude/math-vector-fortran.h
REM seed -1682599600 1579584191 -33960062 359670108 -1546523212 1042675722 -1382025460 -1163488771 -721410295 -977277924 -1620976791 -1938599455 -1121342117 -1591468754 -33358483 11582803 2046385392 -1354280694 -336074998 -1973650015 -1211797290 1517125339 -47339008 -1109413556 103696029 -610481039 450383806 -1822376899 1951064930 889677969 -1204718902 771176562 1818113887
REM
CELL 1.54180   15.00000   15.00000   15.00000   90.00000   90.00000   90.00000
LATT -1
SFAC C  
C      1  0.4605840000000  0.6865280000000  0.6350440000000 1.0
C      1  0.5394160000000  0.3134710000000  0.6350440000000 1.0
C      1  0.4603870000000  0.3161630000000  0.3612920000000 1.0
C      1  0.5396130000000  0.6838370000000  0.3612920000000 1.0
C      1  0.6838910000000  0.4604000000000  0.6387110000000 1.0
C      1  0.3161090000000  0.5396000000000  0.6387110000000 1.0
C      1  0.3134240000000  0.4605990000000  0.3649570000000 1.0
C      1  0.6865760000000  0.5394020000000  0.3649570000000 1.0
C      1  0.3399030000000  0.5779770000000  0.5417510000000 1.0
C      1  0.6600970000000  0.4220230000000  0.5417510000000 1.0
C      1  0.3541720000000  0.4257650000000  0.4587830000000 1.0
C      1  0.6458280000000  0.5742350000000  0.4587830000000 1.0
C      1  0.5742430000000  0.3542240000000  0.5412210000000 1.0
C      1  0.4257570000000  0.6457760000000  0.5412210000000 1.0
C      1  0.4220250000000  0.3399540000000  0.4582530000000 1.0
C      1  0.5779750000000  0.6600460000000  0.4582530000000 1.0
C      1  0.4423730000000  0.3655410000000  0.6627890000000 1.0
C      1  0.5576270000000  0.6344590000000  0.6627890000000 1.0
C      1  0.4501230000000  0.6151810000000  0.3466750000000 1.0
C      1  0.5498770000000  0.3848190000000  0.3466750000000 1.0
C      1  0.3847900000000  0.4501230000000  0.6533120000000 1.0
C      1  0.6152110000000  0.5498770000000  0.6533120000000 1.0
C      1  0.6344910000000  0.4423660000000  0.3372110000000 1.0
C      1  0.3655090000000  0.5576340000000  0.3372110000000 1.0
C      1  0.4177680000000  0.5144710000000  0.4271040000000 1.0
C      1  0.5822320000000  0.4855290000000  0.4271040000000 1.0
C      1  0.4281510000000  0.5157070000000  0.5712060000000 1.0
C      1  0.5718490000000  0.4842930000000  0.5712060000000 1.0
C      1  0.4843040000000  0.4282140000000  0.4287760000000 1.0
C      1  0.5156960000000  0.5717860000000  0.4287760000000 1.0
C      1  0.4855400000000  0.4178210000000  0.5729090000000 1.0
C      1  0.5144600000000  0.5821780000000  0.5729090000000 1.0
C      1  0.6145480000000  0.6713660000000  0.2934740000000 1.0
C      1  0.3854520000000  0.3286350000000  0.2934740000000 1.0
C      1  0.6137660000000  0.3249350000000  0.7039940000000 1.0
C      1  0.3862340000000  0.6750650000000  0.7039940000000 1.0
C      1  0.6751000000000  0.6137510000000  0.2960070000000 1.0
C      1  0.3249000000000  0.3862490000000  0.2960070000000 1.0
C      1  0.3285990000000  0.6145320000000  0.7065320000000 1.0
C      1  0.6714010000000  0.3854680000000  0.7065320000000 1.0
C      1  0.2727160000000  0.6107910000000  0.4730890000000 1.0
C      1  0.7272840000000  0.3892090000000  0.4730880000000 1.0
C      1  0.2840030000000  0.3904460000000  0.5290220000000 1.0
C      1  0.7159970000000  0.6095540000000  0.5290220000000 1.0
C      1  0.6095360000000  0.2840360000000  0.4709790000000 1.0
C      1  0.3904640000000  0.7159640000000  0.4709800000000 1.0
C      1  0.3892310000000  0.2727460000000  0.5269080000000 1.0
C      1  0.6107690000000  0.7272540000000  0.5269090000000 1.0
C      1  0.7315100000000  0.4396860000000  0.3928510000000 1.0
C      1  0.2684900000000  0.5603140000000  0.3928510000000 1.0
C      1  0.7174790000000  0.5625220000000  0.6109080000000 1.0
C      1  0.2825210000000  0.4374780000000  0.6109080000000 1.0
C      1  0.4375000000000  0.7174440000000  0.3890970000000 1.0
C      1  0.5625000000000  0.2825560000000  0.3890970000000 1.0
C      1  0.5602910000000  0.7314760000000  0.6071460000000 1.0
C      1  0.4397090000000  0.2685240000000  0.6071450000000 1.0
C      1  0.2950060000000  0.7044170000000  0.4633990000000 1.0
C      1  0.2955950000000  0.2949920000000  0.5365980000000 1.0
C      1  0.7049940000000  0.2955830000000  0.4633990000000 1.0
C      1  0.7044050000000  0.7050080000000  0.5365990000000 1.0
END
