TITL C-3036486-2224-222 -0.000195977243909411 3375 -369.542594038654 0 0 60 (D5) n - 1
REM
REM in /home/bkarasulu/work/CARBON/AIRSS/Generating-Clusters/REBO/Higher-Symm/Only-C60
REM
REM
REM
REM
REM
REM ./C.cell (a2850807a9bf4ad07a5b6933b78d9264)
REM AIRSS Version 0.9.1 bugfix July 2018 build 013d7b7c2542+ Fri, 06 Jul 2018 19:26:36 +0100
REM compiler GCC version 9.2.1 20190827 (Red Hat 9.2.1-1)
REM options -cpp -mtune=generic -march=x86-64 -g -O0 -fpre-include=/usr/include/finclude/math-vector-fortran.h
REM seed -823910460 -1986388147 -1377990291 -33475198 783764960 366490784 -1780519565 1452682627 -1555812242 2079940761 -246812188 -1045700185 395618998 768980543 301928904 -418289816 -317811450 -441322801 -2119318377 -938525669 734807909 -524302217 391745018 -1464041193 1732060116 -1069395957 862315190 2125723413 528553216 1794189766 -1837472329 416170022 -615354852
REM
CELL 1.54180   15.00000   15.00000   15.00000   90.00000   90.00000   90.00000
LATT -1
SFAC C  
C      1  0.7070560000000  0.5028730000000  0.6084980000000 1.0
C      1  0.5667490000000  0.3038580000000  0.6085320000000 1.0
C      1  0.3339350000000  0.3757980000000  0.6084860000000 1.0
C      1  0.3305560000000  0.6195550000000  0.6084230000000 1.0
C      1  0.5612860000000  0.6979170000000  0.6084320000000 1.0
C      1  0.7070560000000  0.4971270000000  0.3915020000000 1.0
C      1  0.5667490000000  0.6961420000000  0.3914680000000 1.0
C      1  0.3339350000000  0.6242020000000  0.3915140000000 1.0
C      1  0.3305560000000  0.3804450000000  0.3915770000000 1.0
C      1  0.5612860000000  0.3020830000000  0.3915680000000 1.0
C      1  0.6419450000000  0.6781580000000  0.4457360000000 1.0
C      1  0.7132350000000  0.4201730000000  0.4458720000000 1.0
C      1  0.4899830000000  0.2727070000000  0.4460270000000 1.0
C      1  0.2807100000000  0.4393720000000  0.4459890000000 1.0
C      1  0.3745260000000  0.6899920000000  0.4458070000000 1.0
C      1  0.6419450000000  0.3218420000000  0.5542640000000 1.0
C      1  0.7132350000000  0.5798270000000  0.5541280000000 1.0
C      1  0.4899830000000  0.7272930000000  0.5539730000000 1.0
C      1  0.2807100000000  0.5606280000000  0.5540110000000 1.0
C      1  0.3745260000000  0.3100080000000  0.5541930000000 1.0
C      1  0.5828480000000  0.5037640000000  0.7318660000000 1.0
C      1  0.5291720000000  0.4220900000000  0.7319390000000 1.0
C      1  0.4348970000000  0.4479090000000  0.7318950000000 1.0
C      1  0.4303330000000  0.5455490000000  0.7317950000000 1.0
C      1  0.5217730000000  0.5800530000000  0.7317780000000 1.0
C      1  0.5828480000000  0.4962360000000  0.2681340000000 1.0
C      1  0.5291720000000  0.5779100000000  0.2680610000000 1.0
C      1  0.4348970000000  0.5520910000000  0.2681050000000 1.0
C      1  0.4303330000000  0.4544510000000  0.2682050000000 1.0
C      1  0.5217730000000  0.4199470000000  0.2682220000000 1.0
C      1  0.4021670000000  0.6647420000000  0.5512550000000 1.0
C      1  0.6266650000000  0.6441040000000  0.5512160000000 1.0
C      1  0.6757790000000  0.4242220000000  0.5512080000000 1.0
C      1  0.4823470000000  0.3099300000000  0.5512430000000 1.0
C      1  0.3136820000000  0.4579800000000  0.5512750000000 1.0
C      1  0.4021670000000  0.3352580000000  0.4487450000000 1.0
C      1  0.6266650000000  0.3558960000000  0.4487840000000 1.0
C      1  0.6757790000000  0.5757780000000  0.4487920000000 1.0
C      1  0.4823470000000  0.6900700000000  0.4487570000000 1.0
C      1  0.3136820000000  0.5420200000000  0.4487250000000 1.0
C      1  0.4956930000000  0.4184600000000  0.5631570000000 1.0
C      1  0.4209380000000  0.4793500000000  0.5633180000000 1.0
C      1  0.4557380000000  0.5692640000000  0.5633210000000 1.0
C      1  0.5520130000000  0.5639550000000  0.5631610000000 1.0
C      1  0.5767110000000  0.4707440000000  0.5630600000000 1.0
C      1  0.4956930000000  0.5815400000000  0.4368430000000 1.0
C      1  0.4209380000000  0.5206500000000  0.4366820000000 1.0
C      1  0.4557380000000  0.4307360000000  0.4366790000000 1.0
C      1  0.5520130000000  0.4360450000000  0.4368390000000 1.0
C      1  0.5767110000000  0.5292560000000  0.4369400000000 1.0
C      1  0.5591070000000  0.3410590000000  0.6945250000000 1.0
C      1  0.3670100000000  0.3944750000000  0.6944910000000 1.0
C      1  0.3586470000000  0.5936900000000  0.6943230000000 1.0
C      1  0.5453800000000  0.6630770000000  0.6942570000000 1.0
C      1  0.6691190000000  0.5071210000000  0.6943810000000 1.0
C      1  0.5591070000000  0.6589410000000  0.3054750000000 1.0
C      1  0.3670100000000  0.6055250000000  0.3055090000000 1.0
C      1  0.3586470000000  0.4063100000000  0.3056770000000 1.0
C      1  0.5453800000000  0.3369230000000  0.3057430000000 1.0
C      1  0.6691190000000  0.4928790000000  0.3056190000000 1.0
END
