TITL C-3036479-9801-941 9.9771438586338e-06 3375 -355.285521327379 0 0 60 (C2) n - 1
REM
REM in /home/bkarasulu/work/CARBON/AIRSS/Generating-Clusters/REBO/Higher-Symm/Only-C60
REM
REM
REM
REM
REM
REM ./C.cell (a2850807a9bf4ad07a5b6933b78d9264)
REM AIRSS Version 0.9.1 bugfix July 2018 build 013d7b7c2542+ Fri, 06 Jul 2018 19:26:36 +0100
REM compiler GCC version 9.2.1 20190827 (Red Hat 9.2.1-1)
REM options -cpp -mtune=generic -march=x86-64 -g -O0 -fpre-include=/usr/include/finclude/math-vector-fortran.h
REM seed 1366246802 -209659395 1589407286 -535754205 -219433129 1137721396 -1621596572 -1603700795 986374617 702644770 994066973 682799259 1020239846 465046913 1138009885 1783393554 -1498390379 1636316314 -2127858537 -301234370 -27182623 -2102591180 -205933718 -194146763 1746006239 1391818098 170030562 -518980125 1303333270 -828085329 613340724 549851897 1793312846
REM
CELL 1.54180   15.00000   15.00000   15.00000   90.00000   90.00000   90.00000
LATT -1
SFAC C  
C      1  0.5451550000000  0.5770040000000  0.5039900000000 1.0
C      1  0.4548450000000  0.4229960000000  0.5039900000000 1.0
C      1  0.5471580000000  0.4189430000000  0.5091830000000 1.0
C      1  0.4528420000000  0.5810570000000  0.5091830000000 1.0
C      1  0.3079370000000  0.4124850000000  0.4414460000000 1.0
C      1  0.6920630000000  0.5875150000000  0.4414460000000 1.0
C      1  0.3057550000000  0.5911980000000  0.4405530000000 1.0
C      1  0.6942450000000  0.4088020000000  0.4405540000000 1.0
C      1  0.2585480000000  0.4543030000000  0.5260950000000 1.0
C      1  0.7414520000000  0.5456970000000  0.5260950000000 1.0
C      1  0.2553440000000  0.5502790000000  0.5244260000000 1.0
C      1  0.7446560000000  0.4497210000000  0.5244260000000 1.0
C      1  0.6824610000000  0.6886960000000  0.4617920000000 1.0
C      1  0.3175390000000  0.3113040000000  0.4617930000000 1.0
C      1  0.6885580000000  0.3064660000000  0.4570360000000 1.0
C      1  0.3114420000000  0.6935340000000  0.4570350000000 1.0
C      1  0.5913640000000  0.7210540000000  0.4518140000000 1.0
C      1  0.4086360000000  0.2789460000000  0.4518150000000 1.0
C      1  0.5966520000000  0.2747390000000  0.4489760000000 1.0
C      1  0.4033480000000  0.7252610000000  0.4489750000000 1.0
C      1  0.3874330000000  0.6619210000000  0.5958040000000 1.0
C      1  0.6125670000000  0.3380800000000  0.5958040000000 1.0
C      1  0.3967140000000  0.3346680000000  0.6023580000000 1.0
C      1  0.6032860000000  0.6653320000000  0.6023570000000 1.0
C      1  0.3943470000000  0.5508810000000  0.4376270000000 1.0
C      1  0.6056530000000  0.4491180000000  0.4376270000000 1.0
C      1  0.3957870000000  0.4545880000000  0.4340830000000 1.0
C      1  0.6042130000000  0.5454120000000  0.4340830000000 1.0
C      1  0.4544700000000  0.4516420000000  0.2857750000000 1.0
C      1  0.5455300000000  0.5483570000000  0.2857750000000 1.0
C      1  0.4410370000000  0.5550330000000  0.2841120000000 1.0
C      1  0.5589630000000  0.4449660000000  0.2841120000000 1.0
C      1  0.5430880000000  0.7135240000000  0.5348340000000 1.0
C      1  0.4569120000000  0.2864760000000  0.5348350000000 1.0
C      1  0.5501700000000  0.2871840000000  0.5324440000000 1.0
C      1  0.4498300000000  0.7128160000000  0.5324430000000 1.0
C      1  0.4261170000000  0.5603180000000  0.7263130000000 1.0
C      1  0.5738830000000  0.4396830000000  0.7263140000000 1.0
C      1  0.4203470000000  0.4655240000000  0.7091760000000 1.0
C      1  0.5796520000000  0.5344770000000  0.7091760000000 1.0
C      1  0.5457350000000  0.6963210000000  0.3712010000000 1.0
C      1  0.4542650000000  0.3036780000000  0.3712020000000 1.0
C      1  0.5502500000000  0.2992130000000  0.3688320000000 1.0
C      1  0.4497500000000  0.7007870000000  0.3688310000000 1.0
C      1  0.4072300000000  0.6389760000000  0.3091860000000 1.0
C      1  0.5927700000000  0.3610230000000  0.3091870000000 1.0
C      1  0.4148400000000  0.3706680000000  0.3150150000000 1.0
C      1  0.5851600000000  0.6293310000000  0.3150150000000 1.0
C      1  0.4132490000000  0.4464970000000  0.5976470000000 1.0
C      1  0.5867510000000  0.5535040000000  0.5976470000000 1.0
C      1  0.4179480000000  0.5542870000000  0.6101200000000 1.0
C      1  0.5820520000000  0.4457130000000  0.6101200000000 1.0
C      1  0.7105780000000  0.3474760000000  0.5558730000000 1.0
C      1  0.2894220000000  0.6525240000000  0.5558720000000 1.0
C      1  0.7028780000000  0.6447880000000  0.5596670000000 1.0
C      1  0.2971220000000  0.3552120000000  0.5596680000000 1.0
C      1  0.4087910000000  0.6516050000000  0.7003180000000 1.0
C      1  0.5912090000000  0.3483960000000  0.7003190000000 1.0
C      1  0.4159800000000  0.3676960000000  0.7043030000000 1.0
C      1  0.5840190000000  0.6323050000000  0.7043020000000 1.0
END
