TITL C-3036484-3770-1100 -9.80119908572114e-07 3375 -344.428686523922 0 0 60 (C5) n - 1
REM
REM in /home/bkarasulu/work/CARBON/AIRSS/Generating-Clusters/REBO/Higher-Symm/Only-C60
REM
REM
REM
REM
REM
REM ./C.cell (a2850807a9bf4ad07a5b6933b78d9264)
REM AIRSS Version 0.9.1 bugfix July 2018 build 013d7b7c2542+ Fri, 06 Jul 2018 19:26:36 +0100
REM compiler GCC version 9.2.1 20190827 (Red Hat 9.2.1-1)
REM options -cpp -mtune=generic -march=x86-64 -g -O0 -fpre-include=/usr/include/finclude/math-vector-fortran.h
REM seed 875491725 1408736221 165199473 427586416 -645832096 -1971655696 -1624214458 -442383441 -1753032721 -939362428 -236845799 -1869486237 1173459001 637650854 2015576609 -464428228 1373896013 -111313320 -2146790180 -1858579882 -809787844 1672238266 -1684886519 743989448 1996427271 -2054271792 1263026344 -371112763 -856910268 -688875863 745519200 20364164 -759850163
REM
CELL 1.54180   15.00000   15.00000   15.00000   90.00000   90.00000   90.00000
LATT -1
SFAC C  
C      1  0.5830200000000  0.5823450000000  0.5062550000000 1.0
C      1  0.5830200000000  0.5194970000000  0.5802480000000 1.0
C      1  0.5830200000000  0.4297050000000  0.5433400000000 1.0
C      1  0.5830200000000  0.4370580000000  0.4465380000000 1.0
C      1  0.5830200000000  0.5313950000000  0.4236180000000 1.0
C      1  0.6247350000000  0.4563660000000  0.3221980000000 1.0
C      1  0.6247350000000  0.6556170000000  0.4035580000000 1.0
C      1  0.6247350000000  0.6398100000000  0.6181980000000 1.0
C      1  0.6247350000000  0.4307910000000  0.6694920000000 1.0
C      1  0.6247350000000  0.3174160000000  0.4865540000000 1.0
C      1  0.7459330000000  0.5198360000000  0.5806370000000 1.0
C      1  0.7459330000000  0.4294400000000  0.5437840000000 1.0
C      1  0.7459330000000  0.4365550000000  0.4464230000000 1.0
C      1  0.7459330000000  0.5313490000000  0.4231040000000 1.0
C      1  0.7459330000000  0.5828200000000  0.5060530000000 1.0
C      1  0.4993820000000  0.5220930000000  0.6266380000000 1.0
C      1  0.4993820000000  0.3863870000000  0.5601450000000 1.0
C      1  0.4993820000000  0.4076910000000  0.4105340000000 1.0
C      1  0.4993820000000  0.5565630000000  0.3845620000000 1.0
C      1  0.4993820000000  0.6272670000000  0.5181220000000 1.0
C      1  0.3648000000000  0.4365720000000  0.3282830000000 1.0
C      1  0.3648000000000  0.6437120000000  0.3866130000000 1.0
C      1  0.3648000000000  0.6522470000000  0.6016390000000 1.0
C      1  0.3648000000000  0.4503820000000  0.6762040000000 1.0
C      1  0.3648000000000  0.3170870000000  0.5072610000000 1.0
C      1  0.6640850000000  0.5565600000000  0.3612530000000 1.0
C      1  0.6640850000000  0.6494340000000  0.5109170000000 1.0
C      1  0.6640850000000  0.5357950000000  0.6454940000000 1.0
C      1  0.6640850000000  0.3726890000000  0.5790030000000 1.0
C      1  0.6640850000000  0.3855220000000  0.4033330000000 1.0
C      1  0.4434600000000  0.5046460000000  0.2794190000000 1.0
C      1  0.4434600000000  0.7112200000000  0.4362550000000 1.0
C      1  0.4434600000000  0.6258950000000  0.6811840000000 1.0
C      1  0.4434600000000  0.3665870000000  0.6757230000000 1.0
C      1  0.4434600000000  0.2916510000000  0.4274180000000 1.0
C      1  0.2899000000000  0.4292740000000  0.4561030000000 1.0
C      1  0.2899000000000  0.5198930000000  0.4191710000000 1.0
C      1  0.2899000000000  0.5830210000000  0.4939420000000 1.0
C      1  0.2899000000000  0.5314170000000  0.5770850000000 1.0
C      1  0.2899000000000  0.4363960000000  0.5537000000000 1.0
C      1  0.5311590000000  0.4284360000000  0.7129860000000 1.0
C      1  0.5311590000000  0.2753240000000  0.4977550000000 1.0
C      1  0.5311590000000  0.4327060000000  0.2856260000000 1.0
C      1  0.5311590000000  0.6830870000000  0.3697550000000 1.0
C      1  0.5311590000000  0.6804470000000  0.6338780000000 1.0
C      1  0.4914790000000  0.7284850000000  0.5390270000000 1.0
C      1  0.4914790000000  0.5334890000000  0.7293620000000 1.0
C      1  0.4914790000000  0.2922120000000  0.6027260000000 1.0
C      1  0.4914790000000  0.3380920000000  0.3341260000000 1.0
C      1  0.4914790000000  0.6077230000000  0.2947580000000 1.0
C      1  0.3483720000000  0.6802790000000  0.4928950000000 1.0
C      1  0.3483720000000  0.5624670000000  0.6692600000000 1.0
C      1  0.3483720000000  0.3583270000000  0.6117140000000 1.0
C      1  0.3483720000000  0.3499750000000  0.3997830000000 1.0
C      1  0.3483720000000  0.5489520000000  0.3263480000000 1.0
C      1  0.4136750000000  0.5757470000000  0.5417220000000 1.0
C      1  0.4136750000000  0.4837270000000  0.5849320000000 1.0
C      1  0.4136750000000  0.4141960000000  0.5107690000000 1.0
C      1  0.4136750000000  0.4632430000000  0.4217240000000 1.0
C      1  0.4136750000000  0.5630870000000  0.4408530000000 1.0
END
