TITL C-3036480-97-504 -0.0019602413662453 3375 -343.126601489047 0 0 60 (C2) n - 1
REM
REM in /home/bkarasulu/work/CARBON/AIRSS/Generating-Clusters/REBO/Higher-Symm/Only-C60
REM
REM
REM
REM
REM
REM ./C.cell (a2850807a9bf4ad07a5b6933b78d9264)
REM AIRSS Version 0.9.1 bugfix July 2018 build 013d7b7c2542+ Fri, 06 Jul 2018 19:26:36 +0100
REM compiler GCC version 9.2.1 20190827 (Red Hat 9.2.1-1)
REM options -cpp -mtune=generic -march=x86-64 -g -O0 -fpre-include=/usr/include/finclude/math-vector-fortran.h
REM seed -533878899 -1514502271 1570722008 -184482118 1061322729 1348488446 670488613 -51679840 1981863208 220343583 -529585057 617976042 1832090185 -1526040657 695953134 -933341647 -1105005382 -1727976515 -191355821 -585678991 246589449 75618605 747108685 1612078820 1408004352 -1188808629 -776575381 -1920092750 837133317 -76557761 -932024027 1657346468 694333559
REM
CELL 1.54180   15.00000   15.00000   15.00000   90.00000   90.00000   90.00000
LATT -1
SFAC C  
C      1  0.7040020000000  0.3709960000000  0.4936690000000 1.0
C      1  0.2961090000000  0.3710580000000  0.5063140000000 1.0
C      1  0.4578240000000  0.4238250000000  0.5384990000000 1.0
C      1  0.5421810000000  0.4237610000000  0.4614850000000 1.0
C      1  0.3799880000000  0.5821380000000  0.3919820000000 1.0
C      1  0.6199840000000  0.5821500000000  0.6080250000000 1.0
C      1  0.3730110000000  0.3095960000000  0.5611130000000 1.0
C      1  0.6270060000000  0.3096310000000  0.4389310000000 1.0
C      1  0.5915940000000  0.6160880000000  0.6864570000000 1.0
C      1  0.4084280000000  0.6159740000000  0.3135400000000 1.0
C      1  0.5209750000000  0.3269000000000  0.4074340000000 1.0
C      1  0.4790520000000  0.3269870000000  0.5925870000000 1.0
C      1  0.4961310000000  0.5960410000000  0.2576790000000 1.0
C      1  0.5038450000000  0.5960540000000  0.7422460000000 1.0
C      1  0.6068410000000  0.3636360000000  0.3438690000000 1.0
C      1  0.3931150000000  0.3635970000000  0.6561610000000 1.0
C      1  0.4678090000000  0.6909900000000  0.4062760000000 1.0
C      1  0.5321830000000  0.6909730000000  0.5936290000000 1.0
C      1  0.4878330000000  0.4867200000000  0.2277740000000 1.0
C      1  0.5121470000000  0.4867470000000  0.7721920000000 1.0
C      1  0.7125750000000  0.5488350000000  0.6047230000000 1.0
C      1  0.2873490000000  0.5488360000000  0.3952410000000 1.0
C      1  0.3314930000000  0.4588260000000  0.6564940000000 1.0
C      1  0.6684550000000  0.4588670000000  0.3435240000000 1.0
C      1  0.4231700000000  0.3322500000000  0.3846270000000 1.0
C      1  0.5768770000000  0.3322470000000  0.6154150000000 1.0
C      1  0.6845830000000  0.5686020000000  0.3196810000000 1.0
C      1  0.3153560000000  0.5685670000000  0.6803290000000 1.0
C      1  0.3618930000000  0.3025010000000  0.4498900000000 1.0
C      1  0.6381890000000  0.3024990000000  0.5501690000000 1.0
C      1  0.4178900000000  0.4413600000000  0.7310380000000 1.0
C      1  0.5821030000000  0.4413830000000  0.2689370000000 1.0
C      1  0.3718570000000  0.6449570000000  0.6256410000000 1.0
C      1  0.6281180000000  0.6449810000000  0.3743290000000 1.0
C      1  0.5326980000000  0.4828690000000  0.5923410000000 1.0
C      1  0.4673180000000  0.4828990000000  0.4077070000000 1.0
C      1  0.5976900000000  0.6880320000000  0.5304390000000 1.0
C      1  0.4023410000000  0.6880620000000  0.4695160000000 1.0
C      1  0.5768730000000  0.5451780000000  0.3044740000000 1.0
C      1  0.4230580000000  0.5451760000000  0.6955120000000 1.0
C      1  0.2111960000000  0.4799910000000  0.3893630000000 1.0
C      1  0.7888210000000  0.4801680000000  0.6106550000000 1.0
C      1  0.4463680000000  0.5626830000000  0.4792130000000 1.0
C      1  0.5536250000000  0.5626700000000  0.5208270000000 1.0
C      1  0.5885560000000  0.4218740000000  0.6493600000000 1.0
C      1  0.4114800000000  0.4218740000000  0.3506890000000 1.0
C      1  0.3586720000000  0.4527250000000  0.5511100000000 1.0
C      1  0.6413380000000  0.4526570000000  0.4489050000000 1.0
C      1  0.3505720000000  0.6401270000000  0.5283450000000 1.0
C      1  0.6494150000000  0.6400650000000  0.4716220000000 1.0
C      1  0.5588550000000  0.5503390000000  0.4115320000000 1.0
C      1  0.4411710000000  0.5503550000000  0.5885450000000 1.0
C      1  0.5874630000000  0.4439240000000  0.7411730000000 1.0
C      1  0.4125590000000  0.4438620000000  0.2588590000000 1.0
C      1  0.4706630000000  0.6622140000000  0.6552930000000 1.0
C      1  0.5293180000000  0.6622850000000  0.3445730000000 1.0
C      1  0.7537580000000  0.4590600000000  0.5182180000000 1.0
C      1  0.2462540000000  0.4590830000000  0.4818090000000 1.0
C      1  0.6836210000000  0.5465990000000  0.4965130000000 1.0
C      1  0.3163510000000  0.5466540000000  0.5035040000000 1.0
END
