TITL C-3036486-2224-634 0.000223280671072363 3375 -351.52321299287 0 0 60 (C1) n - 1
REM
REM in /home/bkarasulu/work/CARBON/AIRSS/Generating-Clusters/REBO/Higher-Symm/Only-C60
REM
REM
REM
REM
REM
REM ./C.cell (a2850807a9bf4ad07a5b6933b78d9264)
REM AIRSS Version 0.9.1 bugfix July 2018 build 013d7b7c2542+ Fri, 06 Jul 2018 19:26:36 +0100
REM compiler GCC version 9.2.1 20190827 (Red Hat 9.2.1-1)
REM options -cpp -mtune=generic -march=x86-64 -g -O0 -fpre-include=/usr/include/finclude/math-vector-fortran.h
REM seed 1261622966 -679561100 1258165636 1693721491 -1019608304 1116535117 1738165287 1408269046 480849966 -1678646925 -440493846 -1244411591 1478397460 1852320362 -264135290 -589905561 1820472789 1794626246 -1672455482 1354904583 462612313 179562072 -1805193351 1489629534 338446786 1853922818 -820868864 -1791661079 1248075382 -465228376 446575259 -1456237935 -544157853
REM
CELL 1.54180   15.00000   15.00000   15.00000   90.00000   90.00000   90.00000
LATT -1
SFAC C  
C      1  0.4013440000000  0.4652970000000  0.6644260000000 1.0
C      1  0.7058310000000  0.4312620000000  0.5051040000000 1.0
C      1  0.4164400000000  0.4661110000000  0.3232660000000 1.0
C      1  0.6092020000000  0.4407130000000  0.6630150000000 1.0
C      1  0.3115580000000  0.4465160000000  0.5042160000000 1.0
C      1  0.5976810000000  0.4439860000000  0.3259640000000 1.0
C      1  0.4650150000000  0.3248300000000  0.7096230000000 1.0
C      1  0.6951770000000  0.3078080000000  0.4291660000000 1.0
C      1  0.3391100000000  0.3298140000000  0.3691740000000 1.0
C      1  0.5480460000000  0.3240600000000  0.7134600000000 1.0
C      1  0.2943220000000  0.3313520000000  0.4392720000000 1.0
C      1  0.6577210000000  0.3163140000000  0.3554590000000 1.0
C      1  0.7518410000000  0.4739260000000  0.5889760000000 1.0
C      1  0.4704510000000  0.4967510000000  0.2396750000000 1.0
C      1  0.3046000000000  0.5047590000000  0.6570480000000 1.0
C      1  0.2634610000000  0.4961610000000  0.5834560000000 1.0
C      1  0.5545280000000  0.4860320000000  0.2406700000000 1.0
C      1  0.7084780000000  0.4763400000000  0.6618150000000 1.0
C      1  0.4066580000000  0.2842140000000  0.4923320000000 1.0
C      1  0.5344800000000  0.2784060000000  0.5893610000000 1.0
C      1  0.5537040000000  0.2829510000000  0.4309010000000 1.0
C      1  0.5945230000000  0.2801110000000  0.5121030000000 1.0
C      1  0.4444330000000  0.2901200000000  0.5826820000000 1.0
C      1  0.4578900000000  0.2937450000000  0.4172890000000 1.0
C      1  0.4038420000000  0.4895310000000  0.4953350000000 1.0
C      1  0.5624030000000  0.4926690000000  0.5875910000000 1.0
C      1  0.5639850000000  0.4978610000000  0.4062240000000 1.0
C      1  0.6151910000000  0.4764690000000  0.4967570000000 1.0
C      1  0.4543260000000  0.5137900000000  0.5874920000000 1.0
C      1  0.4571630000000  0.5174300000000  0.4049910000000 1.0
C      1  0.5517090000000  0.6042800000000  0.5952000000000 1.0
C      1  0.5541080000000  0.6087200000000  0.4034720000000 1.0
C      1  0.3989170000000  0.5942280000000  0.4968770000000 1.0
C      1  0.4440670000000  0.6269490000000  0.5908780000000 1.0
C      1  0.4460030000000  0.6306320000000  0.4051290000000 1.0
C      1  0.6044350000000  0.5831500000000  0.4997200000000 1.0
C      1  0.4297400000000  0.8502950000000  0.4164810000000 1.0
C      1  0.4274940000000  0.8465850000000  0.5889280000000 1.0
C      1  0.5707950000000  0.8006790000000  0.5036810000000 1.0
C      1  0.5293130000000  0.8303950000000  0.4158910000000 1.0
C      1  0.5271060000000  0.8268550000000  0.5914920000000 1.0
C      1  0.3851090000000  0.8156460000000  0.5014250000000 1.0
C      1  0.3843800000000  0.7022810000000  0.4988550000000 1.0
C      1  0.5429360000000  0.7150070000000  0.6011590000000 1.0
C      1  0.5451780000000  0.7189960000000  0.4022570000000 1.0
C      1  0.5915440000000  0.6902510000000  0.5017320000000 1.0
C      1  0.4313110000000  0.7350850000000  0.5965360000000 1.0
C      1  0.4335390000000  0.7392030000000  0.4040460000000 1.0
C      1  0.3313080000000  0.3487830000000  0.5445210000000 1.0
C      1  0.6216460000000  0.3368610000000  0.6295910000000 1.0
C      1  0.5501620000000  0.3473040000000  0.3376370000000 1.0
C      1  0.6855840000000  0.3321590000000  0.5366680000000 1.0
C      1  0.3882300000000  0.3628970000000  0.6415910000000 1.0
C      1  0.4379560000000  0.3636780000000  0.3352780000000 1.0
C      1  0.7445130000000  0.4349640000000  0.4088140000000 1.0
C      1  0.3129670000000  0.4726990000000  0.3371500000000 1.0
C      1  0.4657290000000  0.4686530000000  0.7463440000000 1.0
C      1  0.2716790000000  0.4590350000000  0.4087470000000 1.0
C      1  0.7011070000000  0.4409800000000  0.3374340000000 1.0
C      1  0.5480320000000  0.4534210000000  0.7456200000000 1.0
END
