TITL C-3036484-3770-1172 4.06662680828986e-06 3375 -338.710725250694 0 0 60 (C1) n - 1
REM
REM in /home/bkarasulu/work/CARBON/AIRSS/Generating-Clusters/REBO/Higher-Symm/Only-C60
REM
REM
REM
REM
REM
REM ./C.cell (a2850807a9bf4ad07a5b6933b78d9264)
REM AIRSS Version 0.9.1 bugfix July 2018 build 013d7b7c2542+ Fri, 06 Jul 2018 19:26:36 +0100
REM compiler GCC version 9.2.1 20190827 (Red Hat 9.2.1-1)
REM options -cpp -mtune=generic -march=x86-64 -g -O0 -fpre-include=/usr/include/finclude/math-vector-fortran.h
REM seed -1684377474 1545101950 131378828 -1608584663 1089813380 -595407684 562682783 434661195 1171065195 274529023 1973623369 1706277147 -1423730999 -703255040 1690821024 -458642003 1126928518 484555708 -452370217 178358308 1164207047 -1119318773 -2090174172 2067429924 703946842 646957918 454651802 1399974045 773764264 -1152452701 1320755147 -624833183 1422344923
REM
CELL 1.54180   15.00000   15.00000   15.00000   90.00000   90.00000   90.00000
LATT -1
SFAC C  
C      1  0.5510810000000  0.6597730000000  0.6064850000000 1.0
C      1  0.4424120000000  0.6633800000000  0.3934830000000 1.0
C      1  0.4381950000000  0.6677490000000  0.5988480000000 1.0
C      1  0.5555220000000  0.6633640000000  0.4015480000000 1.0
C      1  0.3630770000000  0.5050630000000  0.6854670000000 1.0
C      1  0.6277030000000  0.5016750000000  0.3180020000000 1.0
C      1  0.6462680000000  0.4978370000000  0.6871910000000 1.0
C      1  0.3407840000000  0.5011150000000  0.3113980000000 1.0
C      1  0.5917200000000  0.5826180000000  0.4544560000000 1.0
C      1  0.3974510000000  0.5887190000000  0.5467350000000 1.0
C      1  0.3945450000000  0.5879470000000  0.4430240000000 1.0
C      1  0.5945960000000  0.5821100000000  0.5567120000000 1.0
C      1  0.3591180000000  0.8477730000000  0.5273220000000 1.0
C      1  0.6465030000000  0.8381000000000  0.4723370000000 1.0
C      1  0.6074230000000  0.8300900000000  0.5559020000000 1.0
C      1  0.3976530000000  0.8370310000000  0.4438090000000 1.0
C      1  0.4254830000000  0.7607470000000  0.5489010000000 1.0
C      1  0.5744200000000  0.7557090000000  0.4509420000000 1.0
C      1  0.5336540000000  0.7504670000000  0.5571760000000 1.0
C      1  0.4658890000000  0.7526090000000  0.4427270000000 1.0
C      1  0.5865440000000  0.6702630000000  0.7011490000000 1.0
C      1  0.4076940000000  0.6762580000000  0.2988670000000 1.0
C      1  0.3986100000000  0.6724580000000  0.6935720000000 1.0
C      1  0.5954340000000  0.6647840000000  0.3068190000000 1.0
C      1  0.4180320000000  0.2140720000000  0.5472160000000 1.0
C      1  0.5835530000000  0.2177180000000  0.4518070000000 1.0
C      1  0.5913150000000  0.2168020000000  0.5426020000000 1.0
C      1  0.4108930000000  0.2126420000000  0.4565010000000 1.0
C      1  0.5418800000000  0.4961910000000  0.4196030000000 1.0
C      1  0.4453980000000  0.5024040000000  0.5811710000000 1.0
C      1  0.4409790000000  0.5004930000000  0.3987500000000 1.0
C      1  0.5463810000000  0.4936000000000  0.5992070000000 1.0
C      1  0.4589460000000  0.2582120000000  0.6211760000000 1.0
C      1  0.5412720000000  0.2591820000000  0.3765470000000 1.0
C      1  0.5547760000000  0.2549360000000  0.6224690000000 1.0
C      1  0.4454970000000  0.2544390000000  0.3779480000000 1.0
C      1  0.6756220000000  0.3634610000000  0.5960290000000 1.0
C      1  0.3472700000000  0.3822640000000  0.4154380000000 1.0
C      1  0.3606870000000  0.3852310000000  0.5803900000000 1.0
C      1  0.6605570000000  0.3649490000000  0.4074930000000 1.0
C      1  0.2954530000000  0.4536030000000  0.4531370000000 1.0
C      1  0.7037150000000  0.4503420000000  0.5478900000000 1.0
C      1  0.6993850000000  0.4494470000000  0.4505100000000 1.0
C      1  0.3015030000000  0.4536880000000  0.5496010000000 1.0
C      1  0.4677100000000  0.3994490000000  0.5443360000000 1.0
C      1  0.5687160000000  0.3996020000000  0.4578340000000 1.0
C      1  0.5803180000000  0.4009820000000  0.5581450000000 1.0
C      1  0.4566240000000  0.3960340000000  0.4388980000000 1.0
C      1  0.5853700000000  0.3368130000000  0.3423620000000 1.0
C      1  0.4179010000000  0.3372570000000  0.6509570000000 1.0
C      1  0.3965200000000  0.3274520000000  0.3422930000000 1.0
C      1  0.6046970000000  0.3260790000000  0.6642590000000 1.0
C      1  0.3189850000000  0.5328550000000  0.6041020000000 1.0
C      1  0.6691450000000  0.5264960000000  0.4000550000000 1.0
C      1  0.6750290000000  0.5254190000000  0.6020090000000 1.0
C      1  0.3122270000000  0.5312710000000  0.3970800000000 1.0
C      1  0.4267440000000  0.4271930000000  0.3127520000000 1.0
C      1  0.5637560000000  0.4239010000000  0.6884280000000 1.0
C      1  0.5386510000000  0.4317880000000  0.3237930000000 1.0
C      1  0.4527110000000  0.4360930000000  0.6743410000000 1.0
END
