TITL C-3036484-3770-773 3.21829227401971e-06 3375 -341.229406350627 0 0 60 (C5) n - 1
REM
REM in /home/bkarasulu/work/CARBON/AIRSS/Generating-Clusters/REBO/Higher-Symm/Only-C60
REM
REM
REM
REM
REM
REM ./C.cell (a2850807a9bf4ad07a5b6933b78d9264)
REM AIRSS Version 0.9.1 bugfix July 2018 build 013d7b7c2542+ Fri, 06 Jul 2018 19:26:36 +0100
REM compiler GCC version 9.2.1 20190827 (Red Hat 9.2.1-1)
REM options -cpp -mtune=generic -march=x86-64 -g -O0 -fpre-include=/usr/include/finclude/math-vector-fortran.h
REM seed -222342443 1640714637 -972801610 1073644530 -778123761 1895875421 1716195261 -52419659 2103949061 798977543 486722229 -779277924 673639431 -1616461483 -1443215459 1242324719 -1907526203 1709331254 888407621 2016574086 -1745801758 44006378 1510462122 -774216986 -204483439 1495883968 -1338610656 1595006172 952107704 -862659057 761175300 868138835 -1108977474
REM
CELL 1.54180   15.00000   15.00000   15.00000   90.00000   90.00000   90.00000
LATT -1
SFAC C  
C      1  0.5559680000000  0.4635870000000  0.4018300000000 1.0
C      1  0.6106600000000  0.4635870000000  0.5228930000000 1.0
C      1  0.5124240000000  0.4635870000000  0.6123180000000 1.0
C      1  0.3970180000000  0.4635870000000  0.5465240000000 1.0
C      1  0.4239300000000  0.4635870000000  0.4164350000000 1.0
C      1  0.3175050000000  0.5046840000000  0.3989680000000 1.0
C      1  0.5396940000000  0.5046840000000  0.2952170000000 1.0
C      1  0.7070270000000  0.5046840000000  0.4744690000000 1.0
C      1  0.5882560000000  0.5046840000000  0.6890050000000 1.0
C      1  0.3475180000000  0.5046840000000  0.6423420000000 1.0
C      1  0.4458740000000  0.3044000000000  0.6736480000000 1.0
C      1  0.3181250000000  0.3044000000000  0.5021840000000 1.0
C      1  0.4417200000000  0.3044000000000  0.3277010000000 1.0
C      1  0.6458560000000  0.3044000000000  0.3913300000000 1.0
C      1  0.6484240000000  0.3044000000000  0.6051370000000 1.0
C      1  0.3522870000000  0.3220370000000  0.3955160000000 1.0
C      1  0.5537240000000  0.3220370000000  0.3272300000000 1.0
C      1  0.6809160000000  0.3220360000000  0.4977060000000 1.0
C      1  0.5580880000000  0.3220370000000  0.6713530000000 1.0
C      1  0.3549840000000  0.3220370000000  0.6081960000000 1.0
C      1  0.2683650000000  0.4793860000000  0.5723320000000 1.0
C      1  0.3596290000000  0.4793860000000  0.3020540000000 1.0
C      1  0.6448810000000  0.4793850000000  0.3053300000000 1.0
C      1  0.7299120000000  0.4793850000000  0.5776330000000 1.0
C      1  0.4972130000000  0.4793850000000  0.7426500000000 1.0
C      1  0.3376950000000  0.6262520000000  0.4994120000000 1.0
C      1  0.4504050000000  0.6262520000000  0.3454570000000 1.0
C      1  0.6316530000000  0.6262520000000  0.4050750000000 1.0
C      1  0.6309620000000  0.6262520000000  0.5958760000000 1.0
C      1  0.4492860000000  0.6262520000000  0.6541790000000 1.0
C      1  0.3598490000000  0.4028190000000  0.4734600000000 1.0
C      1  0.4819320000000  0.4028190000000  0.3585080000000 1.0
C      1  0.6289840000000  0.4028180000000  0.4390930000000 1.0
C      1  0.5977850000000  0.4028180000000  0.6038500000000 1.0
C      1  0.4314500000000  0.4028190000000  0.6250900000000 1.0
C      1  0.3735130000000  0.6780440000000  0.5872530000000 1.0
C      1  0.3779310000000  0.6780440000000  0.4066660000000 1.0
C      1  0.5510450000000  0.6780440000000  0.3550640000000 1.0
C      1  0.6536160000000  0.6780440000000  0.5037580000000 1.0
C      1  0.5438960000000  0.6780440000000  0.6472590000000 1.0
C      1  0.3640350000000  0.3825490000000  0.2998350000000 1.0
C      1  0.6483530000000  0.3825490000000  0.3088350000000 1.0
C      1  0.7276520000000  0.3825490000000  0.5820180000000 1.0
C      1  0.4923440000000  0.3825490000000  0.7418550000000 1.0
C      1  0.2676160000000  0.3825490000000  0.5674560000000 1.0
C      1  0.6683120000000  0.5330280000000  0.6388880000000 1.0
C      1  0.4199210000000  0.5330280000000  0.7029930000000 1.0
C      1  0.2821960000000  0.5330280000000  0.4865690000000 1.0
C      1  0.4454690000000  0.5330280000000  0.2887060000000 1.0
C      1  0.6841020000000  0.5330280000000  0.3828450000000 1.0
C      1  0.4732540000000  0.7399030000000  0.4102640000000 1.0
C      1  0.5770790000000  0.7399030000000  0.4468330000000 1.0
C      1  0.5743840000000  0.7399030000000  0.5568770000000 1.0
C      1  0.4688930000000  0.7399030000000  0.5883190000000 1.0
C      1  0.4063910000000  0.7399030000000  0.4977070000000 1.0
C      1  0.4203120000000  0.5633120000000  0.4589340000000 1.0
C      1  0.5144310000000  0.5633120000000  0.4115220000000 1.0
C      1  0.5886070000000  0.5633120000000  0.4863840000000 1.0
C      1  0.5403310000000  0.5633120000000  0.5800620000000 1.0
C      1  0.4363190000000  0.5633120000000  0.5630980000000 1.0
END
