TITL C-3036479-9801-1183 0.0384062216250639 3375 -317.897930438369 0 0 60 (Th) n - 1
REM
REM in /home/bkarasulu/work/CARBON/AIRSS/Generating-Clusters/REBO/Higher-Symm/Only-C60
REM
REM
REM
REM
REM
REM ./C.cell (a2850807a9bf4ad07a5b6933b78d9264)
REM AIRSS Version 0.9.1 bugfix July 2018 build 013d7b7c2542+ Fri, 06 Jul 2018 19:26:36 +0100
REM compiler GCC version 9.2.1 20190827 (Red Hat 9.2.1-1)
REM options -cpp -mtune=generic -march=x86-64 -g -O0 -fpre-include=/usr/include/finclude/math-vector-fortran.h
REM seed 606664681 -1375436937 -1292347501 1731868219 1956502759 -1039982227 -1810068030 -690797048 -1756895540 1014608056 461146777 750059526 1787382642 -1192578928 1321679518 -568750180 -535520031 625264579 522399151 -733878580 1608245484 1104412622 -1315867796 697236371 1135118713 839266670 -1309497108 -1820365386 1467365776 -494869578 -1823404811 393174365 -105007538
REM
CELL 1.54180   15.00000   15.00000   15.00000   90.00000   90.00000   90.00000
LATT -1
SFAC C  
C      1  0.6721850000000  0.5803730000000  0.6596720000000 1.0
C      1  0.5803730000000  0.6596720000000  0.6721850000000 1.0
C      1  0.6596730000000  0.6721850000000  0.5803730000000 1.0
C      1  0.3278210000000  0.4196350000000  0.6596760000000 1.0
C      1  0.6721840000000  0.4196300000000  0.3403270000000 1.0
C      1  0.3278210000000  0.5803680000000  0.3403260000000 1.0
C      1  0.4196350000000  0.3403250000000  0.6721780000000 1.0
C      1  0.5803710000000  0.3403270000000  0.3278200000000 1.0
C      1  0.4196330000000  0.6596740000000  0.3278180000000 1.0
C      1  0.3403250000000  0.3278210000000  0.5803650000000 1.0
C      1  0.6596720000000  0.3278170000000  0.4196280000000 1.0
C      1  0.3403250000000  0.6721800000000  0.4196330000000 1.0
C      1  0.6721870000000  0.5803780000000  0.3403300000000 1.0
C      1  0.5803770000000  0.6596710000000  0.3278100000000 1.0
C      1  0.6596730000000  0.6721850000000  0.4196230000000 1.0
C      1  0.3278140000000  0.4196240000000  0.3403270000000 1.0
C      1  0.6721850000000  0.4196210000000  0.6596730000000 1.0
C      1  0.3278100000000  0.5803760000000  0.6596710000000 1.0
C      1  0.4196210000000  0.3403280000000  0.3278160000000 1.0
C      1  0.5803770000000  0.3403320000000  0.6721890000000 1.0
C      1  0.4196230000000  0.6596740000000  0.6721840000000 1.0
C      1  0.3403300000000  0.3278110000000  0.4196230000000 1.0
C      1  0.6596710000000  0.3278130000000  0.5803760000000 1.0
C      1  0.3403300000000  0.6721850000000  0.5803790000000 1.0
C      1  0.4470720000000  0.6641430000000  0.4463460000000 1.0
C      1  0.6641430000000  0.4463490000000  0.4470720000000 1.0
C      1  0.4463420000000  0.4470720000000  0.6641430000000 1.0
C      1  0.5529260000000  0.3358570000000  0.4463490000000 1.0
C      1  0.4470720000000  0.3358570000000  0.5536580000000 1.0
C      1  0.5529260000000  0.6641430000000  0.5536480000000 1.0
C      1  0.3358570000000  0.5536540000000  0.4470730000000 1.0
C      1  0.6641430000000  0.5536490000000  0.5529260000000 1.0
C      1  0.3358570000000  0.4463430000000  0.5529280000000 1.0
C      1  0.5536480000000  0.5529250000000  0.6641430000000 1.0
C      1  0.4463450000000  0.5529280000000  0.3358570000000 1.0
C      1  0.5536500000000  0.4470730000000  0.3358570000000 1.0
C      1  0.4470750000000  0.6641440000000  0.5536410000000 1.0
C      1  0.6641440000000  0.4463630000000  0.5529240000000 1.0
C      1  0.4463620000000  0.4470760000000  0.3358560000000 1.0
C      1  0.5529260000000  0.3358560000000  0.5536370000000 1.0
C      1  0.4470750000000  0.3358560000000  0.4463590000000 1.0
C      1  0.5529240000000  0.6641440000000  0.4463650000000 1.0
C      1  0.3358560000000  0.5536400000000  0.5529250000000 1.0
C      1  0.6641440000000  0.5536400000000  0.4470750000000 1.0
C      1  0.3358560000000  0.4463630000000  0.4470750000000 1.0
C      1  0.5536380000000  0.5529250000000  0.3358560000000 1.0
C      1  0.4463640000000  0.5529240000000  0.6641440000000 1.0
C      1  0.5536420000000  0.4470740000000  0.6641440000000 1.0
C      1  0.7032390000000  0.2930890000000  0.5000060000000 1.0
C      1  0.5000060000000  0.7032380000000  0.2930900000000 1.0
C      1  0.2967610000000  0.7069100000000  0.5000060000000 1.0
C      1  0.4999930000000  0.2967620000000  0.2930910000000 1.0
C      1  0.5000060000000  0.2967610000000  0.7069100000000 1.0
C      1  0.4999930000000  0.7032390000000  0.7069100000000 1.0
C      1  0.2930910000000  0.5000060000000  0.7032380000000 1.0
C      1  0.7032380000000  0.7069090000000  0.4999920000000 1.0
C      1  0.2967620000000  0.2930910000000  0.4999940000000 1.0
C      1  0.7069080000000  0.4999910000000  0.7032380000000 1.0
C      1  0.2930900000000  0.4999940000000  0.2967610000000 1.0
C      1  0.7069100000000  0.5000060000000  0.2967610000000 1.0
END
