TITL C-3036484-3770-915 -7.24529389782917e-06 3375 -344.836912983972 0 0 60 (C1) n - 1
REM
REM in /home/bkarasulu/work/CARBON/AIRSS/Generating-Clusters/REBO/Higher-Symm/Only-C60
REM
REM
REM
REM
REM
REM ./C.cell (a2850807a9bf4ad07a5b6933b78d9264)
REM AIRSS Version 0.9.1 bugfix July 2018 build 013d7b7c2542+ Fri, 06 Jul 2018 19:26:36 +0100
REM compiler GCC version 9.2.1 20190827 (Red Hat 9.2.1-1)
REM options -cpp -mtune=generic -march=x86-64 -g -O0 -fpre-include=/usr/include/finclude/math-vector-fortran.h
REM seed 648531117 1387716572 -1438498888 -1807854799 -1192452570 -358323770 -1086125189 -1164999967 2138518237 -403297111 -859173888 216965423 1833572274 -931892880 -714671266 79109570 1081961159 1554749405 1504821512 185475839 610471621 812547917 -1708521772 35743985 -1705136728 699029815 1718994618 -795598250 1154911733 -1587949680 -274045674 813439442 1035170823
REM
CELL 1.54180   15.00000   15.00000   15.00000   90.00000   90.00000   90.00000
LATT -1
SFAC C  
C      1  0.5213650000000  0.5102270000000  0.4414760000000 1.0
C      1  0.4035420000000  0.1813040000000  0.5076040000000 1.0
C      1  0.3703380000000  0.6273030000000  0.6373530000000 1.0
C      1  0.6967750000000  0.5201590000000  0.6232630000000 1.0
C      1  0.4407110000000  0.7235310000000  0.3964050000000 1.0
C      1  0.2963320000000  0.6465270000000  0.3942090000000 1.0
C      1  0.5122820000000  0.7407900000000  0.5476100000000 1.0
C      1  0.5592340000000  0.2336330000000  0.4981820000000 1.0
C      1  0.6108210000000  0.6814260000000  0.3660140000000 1.0
C      1  0.6485960000000  0.5757130000000  0.3649470000000 1.0
C      1  0.4742260000000  0.5979200000000  0.4226410000000 1.0
C      1  0.5518820000000  0.4275260000000  0.3416700000000 1.0
C      1  0.6066130000000  0.3565030000000  0.6334780000000 1.0
C      1  0.2817900000000  0.6144420000000  0.5224560000000 1.0
C      1  0.4993110000000  0.5619540000000  0.2969120000000 1.0
C      1  0.6902590000000  0.6275310000000  0.4583070000000 1.0
C      1  0.3959390000000  0.6296130000000  0.3508380000000 1.0
C      1  0.6755810000000  0.3460480000000  0.5676480000000 1.0
C      1  0.5979070000000  0.6557700000000  0.4948950000000 1.0
C      1  0.3517960000000  0.6998560000000  0.5543440000000 1.0
C      1  0.5498050000000  0.5714980000000  0.5281950000000 1.0
C      1  0.4742240000000  0.2637650000000  0.6311040000000 1.0
C      1  0.5776810000000  0.5170620000000  0.3210750000000 1.0
C      1  0.3124690000000  0.5400160000000  0.6024380000000 1.0
C      1  0.7047230000000  0.6424770000000  0.5714370000000 1.0
C      1  0.4658820000000  0.6413020000000  0.5189800000000 1.0
C      1  0.4173150000000  0.5225030000000  0.6418330000000 1.0
C      1  0.3901150000000  0.4915400000000  0.4525600000000 1.0
C      1  0.6703920000000  0.4277920000000  0.4628230000000 1.0
C      1  0.4852550000000  0.2047590000000  0.5539630000000 1.0
C      1  0.5710450000000  0.4438720000000  0.4968130000000 1.0
C      1  0.6437670000000  0.3002410000000  0.4898530000000 1.0
C      1  0.3514630000000  0.2956290000000  0.3891560000000 1.0
C      1  0.6090870000000  0.3623890000000  0.3995400000000 1.0
C      1  0.4116790000000  0.4096780000000  0.5063280000000 1.0
C      1  0.4113010000000  0.3354470000000  0.6167970000000 1.0
C      1  0.4395270000000  0.7113240000000  0.6276120000000 1.0
C      1  0.5316990000000  0.7222580000000  0.4362970000000 1.0
C      1  0.4905180000000  0.5848480000000  0.6743120000000 1.0
C      1  0.7315730000000  0.4387790000000  0.5536820000000 1.0
C      1  0.6174830000000  0.7162150000000  0.5839350000000 1.0
C      1  0.5888410000000  0.5255000000000  0.6062270000000 1.0
C      1  0.5270220000000  0.2987270000000  0.4284890000000 1.0
C      1  0.2937910000000  0.4792260000000  0.4006910000000 1.0
C      1  0.4402530000000  0.3303280000000  0.4407750000000 1.0
C      1  0.3418620000000  0.2508890000000  0.4821880000000 1.0
C      1  0.7151630000000  0.5195430000000  0.4375350000000 1.0
C      1  0.3539430000000  0.7091770000000  0.4486620000000 1.0
C      1  0.5426290000000  0.6722790000000  0.6573400000000 1.0
C      1  0.4508710000000  0.4337260000000  0.6090200000000 1.0
C      1  0.3843330000000  0.5711280000000  0.5172770000000 1.0
C      1  0.3453140000000  0.3243650000000  0.5432470000000 1.0
C      1  0.4056370000000  0.5197680000000  0.3426860000000 1.0
C      1  0.6382400000000  0.6102890000000  0.6588650000000 1.0
C      1  0.5500440000000  0.4326240000000  0.6007320000000 1.0
C      1  0.4569640000000  0.4224740000000  0.3461830000000 1.0
C      1  0.2507190000000  0.5636850000000  0.4257950000000 1.0
C      1  0.7602100000000  0.5487150000000  0.5375480000000 1.0
C      1  0.5559190000000  0.2882270000000  0.6738480000000 1.0
C      1  0.3559430000000  0.3981590000000  0.3639050000000 1.0
END
