TITL C-3036482-790-55 1.00274560915829e-05 3375 -346.980087530604 0 0 60 (C1) n - 1
REM
REM in /home/bkarasulu/work/CARBON/AIRSS/Generating-Clusters/REBO/Higher-Symm/Only-C60
REM
REM
REM
REM
REM
REM ./C.cell (a2850807a9bf4ad07a5b6933b78d9264)
REM AIRSS Version 0.9.1 bugfix July 2018 build 013d7b7c2542+ Fri, 06 Jul 2018 19:26:36 +0100
REM compiler GCC version 9.2.1 20190827 (Red Hat 9.2.1-1)
REM options -cpp -mtune=generic -march=x86-64 -g -O0 -fpre-include=/usr/include/finclude/math-vector-fortran.h
REM seed 622425004 2073765563 1162205799 1948412783 -1684836590 -2122536963 -520622723 -626813887 -889119437 156550661 -252779553 425617825 -854672440 -669715889 -1992246737 354198150 617784301 -1871515681 -225928093 -1646848297 -753408855 1425028949 884494049 1958016720 2078617076 -1062186971 2055957807 2139277957 1336551348 1074113139 -678468727 -2143665370 1049319718
REM
CELL 1.54180   15.00000   15.00000   15.00000   90.00000   90.00000   90.00000
LATT -1
SFAC C  
C      1  0.5494960000000  0.3887930000000  0.5057860000000 1.0
C      1  0.5290730000000  0.5449870000000  0.5692520000000 1.0
C      1  0.5329900000000  0.5524300000000  0.4230950000000 1.0
C      1  0.4527350000000  0.5965810000000  0.7584170000000 1.0
C      1  0.4561940000000  0.6734190000000  0.2813940000000 1.0
C      1  0.4340020000000  0.2245080000000  0.4679300000000 1.0
C      1  0.7225680000000  0.6766500000000  0.4809770000000 1.0
C      1  0.7222700000000  0.3930540000000  0.3629010000000 1.0
C      1  0.7325900000000  0.4401710000000  0.6590580000000 1.0
C      1  0.3021070000000  0.3635540000000  0.3323070000000 1.0
C      1  0.3105350000000  0.4428560000000  0.6967920000000 1.0
C      1  0.3043870000000  0.7137020000000  0.4452040000000 1.0
C      1  0.2777540000000  0.6137930000000  0.4155160000000 1.0
C      1  0.3159540000000  0.3759530000000  0.4416750000000 1.0
C      1  0.3040500000000  0.5185370000000  0.6207390000000 1.0
C      1  0.4246440000000  0.5199360000000  0.4205840000000 1.0
C      1  0.4484180000000  0.3825360000000  0.5531320000000 1.0
C      1  0.4411460000000  0.5731140000000  0.5179060000000 1.0
C      1  0.6693390000000  0.4443260000000  0.3078100000000 1.0
C      1  0.6842980000000  0.3644170000000  0.6466520000000 1.0
C      1  0.6692070000000  0.7004280000000  0.5519870000000 1.0
C      1  0.4553890000000  0.4331360000000  0.3594770000000 1.0
C      1  0.4560300000000  0.3873890000000  0.6653790000000 1.0
C      1  0.4500010000000  0.6859420000000  0.5073550000000 1.0
C      1  0.5403970000000  0.6432040000000  0.4633980000000 1.0
C      1  0.5444160000000  0.3940950000000  0.4059510000000 1.0
C      1  0.5306420000000  0.4584160000000  0.6211860000000 1.0
C      1  0.6744660000000  0.5481530000000  0.3324010000000 1.0
C      1  0.6624770000000  0.3310490000000  0.5453660000000 1.0
C      1  0.6685000000000  0.6265240000000  0.6289370000000 1.0
C      1  0.6846650000000  0.3988950000000  0.4587760000000 1.0
C      1  0.6967860000000  0.5217370000000  0.6059050000000 1.0
C      1  0.6914750000000  0.5879170000000  0.4351480000000 1.0
C      1  0.3433170000000  0.5824940000000  0.5666160000000 1.0
C      1  0.3250850000000  0.5365940000000  0.3920440000000 1.0
C      1  0.3566770000000  0.3818700000000  0.5258680000000 1.0
C      1  0.2979420000000  0.4139170000000  0.5942040000000 1.0
C      1  0.2838170000000  0.6392050000000  0.5196450000000 1.0
C      1  0.2778830000000  0.4568610000000  0.3790140000000 1.0
C      1  0.6317000000000  0.5744920000000  0.5305410000000 1.0
C      1  0.6300870000000  0.4929050000000  0.4260740000000 1.0
C      1  0.6392940000000  0.4441440000000  0.5497560000000 1.0
C      1  0.5694870000000  0.2861600000000  0.5446980000000 1.0
C      1  0.5615610000000  0.6269390000000  0.6305270000000 1.0
C      1  0.5688020000000  0.5514490000000  0.3233730000000 1.0
C      1  0.3979570000000  0.4329430000000  0.7317840000000 1.0
C      1  0.3966020000000  0.7326800000000  0.4359550000000 1.0
C      1  0.4004140000000  0.3468520000000  0.3429190000000 1.0
C      1  0.4222720000000  0.2686960000000  0.3899910000000 1.0
C      1  0.4320750000000  0.5097450000000  0.7747640000000 1.0
C      1  0.4310610000000  0.7291820000000  0.3482480000000 1.0
C      1  0.4763650000000  0.2312590000000  0.5457610000000 1.0
C      1  0.4838780000000  0.6567580000000  0.7012170000000 1.0
C      1  0.4912250000000  0.5948990000000  0.2591780000000 1.0
C      1  0.4993640000000  0.4820270000000  0.2671450000000 1.0
C      1  0.5063690000000  0.2892780000000  0.6386420000000 1.0
C      1  0.4961610000000  0.7165400000000  0.6054920000000 1.0
C      1  0.5780510000000  0.7124270000000  0.5296800000000 1.0
C      1  0.5783870000000  0.4190290000000  0.3119080000000 1.0
C      1  0.5851680000000  0.3704520000000  0.6465600000000 1.0
END
