TITL C-3036482-790-1028 0.0447498201275759 3375 -347.655694267967 0 0 60 (C2) n - 1
REM
REM in /home/bkarasulu/work/CARBON/AIRSS/Generating-Clusters/REBO/Higher-Symm/Only-C60
REM
REM
REM
REM
REM
REM ./C.cell (a2850807a9bf4ad07a5b6933b78d9264)
REM AIRSS Version 0.9.1 bugfix July 2018 build 013d7b7c2542+ Fri, 06 Jul 2018 19:26:36 +0100
REM compiler GCC version 9.2.1 20190827 (Red Hat 9.2.1-1)
REM options -cpp -mtune=generic -march=x86-64 -g -O0 -fpre-include=/usr/include/finclude/math-vector-fortran.h
REM seed -1866928018 1086958808 -966147315 -1079371717 1008851669 287369770 1415043750 1896453654 705957185 -238485241 1518693604 768539649 -1046535543 1692531029 206751423 -1824840851 533722269 939915944 969818685 -1595741439 -1395199247 308803460 -1211418981 478600564 -1364672841 39601979 764668408 -1620332555 932107217 1047256522 -1601705257 95776118 814980764
REM
CELL 1.54180   15.00000   15.00000   15.00000   90.00000   90.00000   90.00000
LATT -1
SFAC C  
C      1  0.5419190000000  0.6631720000000  0.4669940000000 1.0
C      1  0.4579390000000  0.6631320000000  0.5330700000000 1.0
C      1  0.3446910000000  0.6049530000000  0.3546160000000 1.0
C      1  0.6553000000000  0.6049620000000  0.6453810000000 1.0
C      1  0.3615510000000  0.3237610000000  0.5592040000000 1.0
C      1  0.6384570000000  0.3237700000000  0.4408070000000 1.0
C      1  0.3322740000000  0.5530720000000  0.5622070000000 1.0
C      1  0.6677560000000  0.5531520000000  0.4377580000000 1.0
C      1  0.4694490000000  0.2680030000000  0.4230180000000 1.0
C      1  0.5305670000000  0.2679720000000  0.5769820000000 1.0
C      1  0.4375100000000  0.7498900000000  0.3716910000000 1.0
C      1  0.5624960000000  0.7498800000000  0.6283010000000 1.0
C      1  0.5165460000000  0.6875430000000  0.3621880000000 1.0
C      1  0.4834560000000  0.6875700000000  0.6379100000000 1.0
C      1  0.6165960000000  0.7394040000000  0.5349580000000 1.0
C      1  0.3833970000000  0.7393950000000  0.4650440000000 1.0
C      1  0.6576480000000  0.6966260000000  0.6280070000000 1.0
C      1  0.3423320000000  0.6966150000000  0.3719970000000 1.0
C      1  0.3359460000000  0.5076190000000  0.3264340000000 1.0
C      1  0.6640370000000  0.5076090000000  0.6735690000000 1.0
C      1  0.3174030000000  0.4535400000000  0.4125120000000 1.0
C      1  0.6826050000000  0.4535460000000  0.5874840000000 1.0
C      1  0.4046570000000  0.3467190000000  0.6422570000000 1.0
C      1  0.5952900000000  0.3465950000000  0.3577800000000 1.0
C      1  0.5744640000000  0.4994320000000  0.2569430000000 1.0
C      1  0.4255710000000  0.4994870000000  0.7430760000000 1.0
C      1  0.6152280000000  0.6364690000000  0.3805750000000 1.0
C      1  0.3848860000000  0.6363310000000  0.6195350000000 1.0
C      1  0.5576770000000  0.3879170000000  0.6786160000000 1.0
C      1  0.4423250000000  0.3879440000000  0.3213710000000 1.0
C      1  0.5713070000000  0.5587790000000  0.4786780000000 1.0
C      1  0.4286200000000  0.5587720000000  0.5213580000000 1.0
C      1  0.4860500000000  0.5309830000000  0.2622010000000 1.0
C      1  0.5140080000000  0.5310010000000  0.7378070000000 1.0
C      1  0.3544120000000  0.4283050000000  0.6927270000000 1.0
C      1  0.6454870000000  0.4280520000000  0.3070520000000 1.0
C      1  0.7291600000000  0.3575070000000  0.4380270000000 1.0
C      1  0.2708570000000  0.3575310000000  0.5620090000000 1.0
C      1  0.5899840000000  0.3215650000000  0.5223680000000 1.0
C      1  0.4100340000000  0.3215540000000  0.4776340000000 1.0
C      1  0.5895780000000  0.4090000000000  0.5778500000000 1.0
C      1  0.4104280000000  0.4089980000000  0.4221340000000 1.0
C      1  0.5873440000000  0.4681710000000  0.7235360000000 1.0
C      1  0.4126750000000  0.4682030000000  0.2764520000000 1.0
C      1  0.5733180000000  0.5552520000000  0.5887420000000 1.0
C      1  0.4266800000000  0.5552410000000  0.4112480000000 1.0
C      1  0.7279040000000  0.5132750000000  0.5026370000000 1.0
C      1  0.2720260000000  0.5132790000000  0.4973040000000 1.0
C      1  0.5255760000000  0.5996890000000  0.6735070000000 1.0
C      1  0.4744170000000  0.5997120000000  0.3264610000000 1.0
C      1  0.7542370000000  0.4113430000000  0.5114650000000 1.0
C      1  0.2457610000000  0.4113180000000  0.4885490000000 1.0
C      1  0.6457060000000  0.5389370000000  0.3311460000000 1.0
C      1  0.3543590000000  0.5387900000000  0.6687770000000 1.0
C      1  0.5019330000000  0.4774390000000  0.5555190000000 1.0
C      1  0.4980960000000  0.4774310000000  0.4444660000000 1.0
C      1  0.7397250000000  0.3929610000000  0.3482630000000 1.0
C      1  0.2604010000000  0.3929920000000  0.6517570000000 1.0
C      1  0.5061370000000  0.3189160000000  0.3487300000000 1.0
C      1  0.4938080000000  0.3189240000000  0.6513090000000 1.0
END
