TITL C-3036484-3770-114 3.73694385497522e-06 3375 -331.116743571476 0 0 60 (S4) n - 1
REM
REM in /home/bkarasulu/work/CARBON/AIRSS/Generating-Clusters/REBO/Higher-Symm/Only-C60
REM
REM
REM
REM
REM
REM ./C.cell (a2850807a9bf4ad07a5b6933b78d9264)
REM AIRSS Version 0.9.1 bugfix July 2018 build 013d7b7c2542+ Fri, 06 Jul 2018 19:26:36 +0100
REM compiler GCC version 9.2.1 20190827 (Red Hat 9.2.1-1)
REM options -cpp -mtune=generic -march=x86-64 -g -O0 -fpre-include=/usr/include/finclude/math-vector-fortran.h
REM seed 1081450967 1771099966 1025788542 -1879260750 1607559414 -1049909962 386901061 1063283684 -253882514 -499593846 112788439 -1897091258 1970647915 -1588666627 -2003620966 765844926 -1174042055 -297746516 1195144218 -1493593988 884756990 -1923761267 -1592645223 -863857487 -1760592197 -1274767442 948143846 -642931104 314769409 -824366839 346978407 -153409720 -461114999
REM
CELL 1.54180   15.00000   15.00000   15.00000   90.00000   90.00000   90.00000
LATT -1
SFAC C  
C      1  0.7328800000000  0.4777170000000  0.4066770000000 1.0
C      1  0.2671200000000  0.4066770000000  0.5222830000000 1.0
C      1  0.7328800000000  0.5222830000000  0.5933230000000 1.0
C      1  0.2671200000000  0.5933230000000  0.4777170000000 1.0
C      1  0.4375940000000  0.6933600000000  0.3687830000000 1.0
C      1  0.5624060000000  0.3687830000000  0.3066400000000 1.0
C      1  0.4375940000000  0.3066400000000  0.6312170000000 1.0
C      1  0.5624060000000  0.6312170000000  0.6933600000000 1.0
C      1  0.3376210000000  0.5937610000000  0.7494350000000 1.0
C      1  0.6623790000000  0.7494350000000  0.4062390000000 1.0
C      1  0.3376210000000  0.4062390000000  0.2505650000000 1.0
C      1  0.6623790000000  0.2505650000000  0.5937610000000 1.0
C      1  0.5012880000000  0.3054230000000  0.4743780000000 1.0
C      1  0.4987120000000  0.4743780000000  0.6945770000000 1.0
C      1  0.5012880000000  0.6945770000000  0.5256220000000 1.0
C      1  0.4987120000000  0.5256220000000  0.3054230000000 1.0
C      1  0.4140160000000  0.4695260000000  0.3058730000000 1.0
C      1  0.5859840000000  0.3058730000000  0.5304740000000 1.0
C      1  0.4140160000000  0.5304740000000  0.6941270000000 1.0
C      1  0.5859840000000  0.6941270000000  0.4695260000000 1.0
C      1  0.5852060000000  0.5239080000000  0.7015530000000 1.0
C      1  0.4147940000000  0.7015530000000  0.4760920000000 1.0
C      1  0.5852060000000  0.4760920000000  0.2984470000000 1.0
C      1  0.4147940000000  0.2984470000000  0.5239080000000 1.0
C      1  0.6598370000000  0.5387600000000  0.3438220000000 1.0
C      1  0.3401630000000  0.3438220000000  0.4612400000000 1.0
C      1  0.6598370000000  0.4612400000000  0.6561780000000 1.0
C      1  0.3401630000000  0.6561780000000  0.5387600000000 1.0
C      1  0.5514670000000  0.3098510000000  0.6363320000000 1.0
C      1  0.4485330000000  0.6363320000000  0.6901490000000 1.0
C      1  0.5514670000000  0.6901490000000  0.3636680000000 1.0
C      1  0.4485330000000  0.3636680000000  0.3098510000000 1.0
C      1  0.2347940000000  0.5116570000000  0.5530940000000 1.0
C      1  0.7652060000000  0.5530940000000  0.4883430000000 1.0
C      1  0.2347940000000  0.4883430000000  0.4469060000000 1.0
C      1  0.7652060000000  0.4469060000000  0.5116570000000 1.0
C      1  0.6563760000000  0.6491220000000  0.3658550000000 1.0
C      1  0.3436240000000  0.3658550000000  0.3508780000000 1.0
C      1  0.6563760000000  0.3508780000000  0.6341450000000 1.0
C      1  0.3436240000000  0.6341450000000  0.6491220000000 1.0
C      1  0.6787790000000  0.4005770000000  0.5413630000000 1.0
C      1  0.3212210000000  0.5413630000000  0.5994230000000 1.0
C      1  0.6787790000000  0.5994230000000  0.4586370000000 1.0
C      1  0.3212210000000  0.4586370000000  0.4005770000000 1.0
C      1  0.4929380000000  0.6056920000000  0.3325000000000 1.0
C      1  0.5070620000000  0.3325000000000  0.3943080000000 1.0
C      1  0.4929380000000  0.3943080000000  0.6675000000000 1.0
C      1  0.5070620000000  0.6675000000000  0.6056920000000 1.0
C      1  0.6511740000000  0.4092520000000  0.3654050000000 1.0
C      1  0.3488260000000  0.3654050000000  0.5907480000000 1.0
C      1  0.6511740000000  0.5907480000000  0.6345950000000 1.0
C      1  0.3488260000000  0.6345950000000  0.4092520000000 1.0
C      1  0.6069960000000  0.6042020000000  0.5358920000000 1.0
C      1  0.3930040000000  0.5358920000000  0.3957980000000 1.0
C      1  0.6069960000000  0.3957980000000  0.4641080000000 1.0
C      1  0.3930040000000  0.4641080000000  0.6042020000000 1.0
C      1  0.3904370000000  0.5562890000000  0.5081920000000 1.0
C      1  0.6095630000000  0.5081920000000  0.4437110000000 1.0
C      1  0.3904370000000  0.4437110000000  0.4918080000000 1.0
C      1  0.6095630000000  0.4918080000000  0.5562890000000 1.0
END
