TITL C-3036484-3770-1000 7.08662642657815e-06 3375 -345.260778624931 0 0 60 (Ci) n - 1
REM
REM in /home/bkarasulu/work/CARBON/AIRSS/Generating-Clusters/REBO/Higher-Symm/Only-C60
REM
REM
REM
REM
REM
REM ./C.cell (a2850807a9bf4ad07a5b6933b78d9264)
REM AIRSS Version 0.9.1 bugfix July 2018 build 013d7b7c2542+ Fri, 06 Jul 2018 19:26:36 +0100
REM compiler GCC version 9.2.1 20190827 (Red Hat 9.2.1-1)
REM options -cpp -mtune=generic -march=x86-64 -g -O0 -fpre-include=/usr/include/finclude/math-vector-fortran.h
REM seed 1721496075 1751079002 -1852432992 -619323836 -1500670705 1253977321 -490971674 -1990876718 -1737535259 1554315418 -1516295177 1228375236 -617823130 1510420073 1764992103 1112003951 1499725934 -992264768 -765467787 -1002288093 -1154018915 -1601517801 -1406754612 -1483476086 1146094930 -575108825 -1899641962 -93277440 1652736257 822389308 2021788844 -1380854256 89858255
REM
CELL 1.54180   15.00000   15.00000   15.00000   90.00000   90.00000   90.00000
LATT -1
SFAC C  
C      1  0.6580770000000  0.5548750000000  0.6267380000000 1.0
C      1  0.7026390000000  0.4409690000000  0.4505160000000 1.0
C      1  0.5625440000000  0.5343620000000  0.3241620000000 1.0
C      1  0.3419030000000  0.4451850000000  0.3732570000000 1.0
C      1  0.2973530000000  0.5589900000000  0.5495410000000 1.0
C      1  0.4375130000000  0.4656230000000  0.6758590000000 1.0
C      1  0.3014620000000  0.5448960000000  0.3603160000000 1.0
C      1  0.2576130000000  0.4694840000000  0.6094540000000 1.0
C      1  0.5139640000000  0.5471630000000  0.7015410000000 1.0
C      1  0.6985860000000  0.4551970000000  0.6396830000000 1.0
C      1  0.7424610000000  0.5304090000000  0.3905600000000 1.0
C      1  0.4860670000000  0.4528620000000  0.2984460000000 1.0
C      1  0.4457010000000  0.7461570000000  0.3363730000000 1.0
C      1  0.3376280000000  0.2755790000000  0.4727500000000 1.0
C      1  0.3603940000000  0.7513190000000  0.6461920000000 1.0
C      1  0.5544540000000  0.2538720000000  0.6636970000000 1.0
C      1  0.6623340000000  0.7243900000000  0.5270320000000 1.0
C      1  0.6395580000000  0.2486520000000  0.3538990000000 1.0
C      1  0.3273980000000  0.6529590000000  0.5312920000000 1.0
C      1  0.4489650000000  0.3652640000000  0.6400420000000 1.0
C      1  0.5908850000000  0.6217000000000  0.6301370000000 1.0
C      1  0.6725550000000  0.3470220000000  0.4688000000000 1.0
C      1  0.5511210000000  0.6347060000000  0.3600340000000 1.0
C      1  0.4091080000000  0.3783570000000  0.3698000000000 1.0
C      1  0.4692540000000  0.3480610000000  0.5372190000000 1.0
C      1  0.5032690000000  0.6661130000000  0.5713030000000 1.0
C      1  0.5776660000000  0.3321170000000  0.5107860000000 1.0
C      1  0.5306230000000  0.6518520000000  0.4628470000000 1.0
C      1  0.4966630000000  0.3338910000000  0.4287140000000 1.0
C      1  0.4222270000000  0.6678940000000  0.4892560000000 1.0
C      1  0.7169470000000  0.5027300000000  0.5439110000000 1.0
C      1  0.6510080000000  0.4786160000000  0.3560330000000 1.0
C      1  0.4487630000000  0.5516290000000  0.3342360000000 1.0
C      1  0.2830260000000  0.4973490000000  0.4560690000000 1.0
C      1  0.3490000000000  0.5213410000000  0.6440190000000 1.0
C      1  0.5512950000000  0.4484100000000  0.6657410000000 1.0
C      1  0.4746230000000  0.2927310000000  0.6902340000000 1.0
C      1  0.6289760000000  0.7139140000000  0.6128030000000 1.0
C      1  0.7010330000000  0.2776610000000  0.4160020000000 1.0
C      1  0.5255310000000  0.7072760000000  0.3098580000000 1.0
C      1  0.3710230000000  0.2861190000000  0.3870040000000 1.0
C      1  0.2989100000000  0.7223000000000  0.5841060000000 1.0
C      1  0.6348980000000  0.6608890000000  0.4670420000000 1.0
C      1  0.5643880000000  0.2987220000000  0.3487250000000 1.0
C      1  0.3905390000000  0.6884080000000  0.3882880000000 1.0
C      1  0.3649980000000  0.3390620000000  0.5327780000000 1.0
C      1  0.4355760000000  0.7012610000000  0.6513260000000 1.0
C      1  0.6095430000000  0.3116310000000  0.6117160000000 1.0
C      1  0.4566450000000  0.4911710000000  0.4225250000000 1.0
C      1  0.4075240000000  0.5014510000000  0.5018190000000 1.0
C      1  0.4564770000000  0.5421300000000  0.5687990000000 1.0
C      1  0.5433510000000  0.5088630000000  0.5774550000000 1.0
C      1  0.5924550000000  0.4985480000000  0.4981570000000 1.0
C      1  0.5434910000000  0.4578580000000  0.4312060000000 1.0
C      1  0.6713530000000  0.5689000000000  0.4677470000000 1.0
C      1  0.5716930000000  0.4028800000000  0.3428180000000 1.0
C      1  0.3688590000000  0.6079300000000  0.3430930000000 1.0
C      1  0.3285910000000  0.4310690000000  0.5321410000000 1.0
C      1  0.4282880000000  0.5971010000000  0.6572180000000 1.0
C      1  0.6312140000000  0.3921280000000  0.6568810000000 1.0
END
