TITL C-3036479-9801-408 -1.71998105238373e-06 3375 -347.632658939515 0 0 60 (C6h) n - 1
REM
REM in /home/bkarasulu/work/CARBON/AIRSS/Generating-Clusters/REBO/Higher-Symm/Only-C60
REM
REM
REM
REM
REM
REM ./C.cell (a2850807a9bf4ad07a5b6933b78d9264)
REM AIRSS Version 0.9.1 bugfix July 2018 build 013d7b7c2542+ Fri, 06 Jul 2018 19:26:36 +0100
REM compiler GCC version 9.2.1 20190827 (Red Hat 9.2.1-1)
REM options -cpp -mtune=generic -march=x86-64 -g -O0 -fpre-include=/usr/include/finclude/math-vector-fortran.h
REM seed -522267944 1279538233 42844269 805353663 -1080428555 1231820487 188150503 1255075157 -861569726 31558488 1932742390 1263631105 -262373342 -1321290205 686490441 -1008358208 1702220377 -847462985 -935556443 592869062 -19856795 -1173364965 817529224 657964476 -514021368 1002424080 -690482143 -442480195 2095703669 -1542183959 37028386 -122395409 1464972641
REM
CELL 1.54180   15.00000   15.00000   15.00000   90.00000   90.00000   90.00000
LATT -1
SFAC C  
C      1  0.6419370000000  0.3654020000000  0.6268770000000 1.0
C      1  0.4610900000000  0.3654020000000  0.6863590000000 1.0
C      1  0.3191530000000  0.3654020000000  0.5594820000000 1.0
C      1  0.3580630000000  0.3654020000000  0.3731230000000 1.0
C      1  0.5389100000000  0.3654020000000  0.3136410000000 1.0
C      1  0.6808470000000  0.3654020000000  0.4405180000000 1.0
C      1  0.6419370000000  0.6345980000000  0.6268770000000 1.0
C      1  0.4610900000000  0.6345980000000  0.6863590000000 1.0
C      1  0.3191530000000  0.6345980000000  0.5594820000000 1.0
C      1  0.3580630000000  0.6345980000000  0.3731230000000 1.0
C      1  0.5389100000000  0.6345980000000  0.3136410000000 1.0
C      1  0.6808470000000  0.6345980000000  0.4405180000000 1.0
C      1  0.4237300000000  0.3214940000000  0.4341670000000 1.0
C      1  0.5188780000000  0.3214940000000  0.4010320000000 1.0
C      1  0.5951480000000  0.3214940000000  0.4668650000000 1.0
C      1  0.5762700000000  0.3214940000000  0.5658330000000 1.0
C      1  0.4811220000000  0.3214940000000  0.5989680000000 1.0
C      1  0.4048520000000  0.3214940000000  0.5331350000000 1.0
C      1  0.4237300000000  0.6785060000000  0.4341670000000 1.0
C      1  0.5188780000000  0.6785060000000  0.4010320000000 1.0
C      1  0.5951480000000  0.6785060000000  0.4668650000000 1.0
C      1  0.5762700000000  0.6785060000000  0.5658330000000 1.0
C      1  0.4811220000000  0.6785060000000  0.5989680000000 1.0
C      1  0.4048520000000  0.6785060000000  0.5331350000000 1.0
C      1  0.3947980000000  0.5548260000000  0.4854780000000 1.0
C      1  0.4599760000000  0.5548260000000  0.4016320000000 1.0
C      1  0.5651770000000  0.5548260000000  0.4161530000000 1.0
C      1  0.6052020000000  0.5548260000000  0.5145220000000 1.0
C      1  0.5400240000000  0.5548260000000  0.5983680000000 1.0
C      1  0.4348230000000  0.5548260000000  0.5838470000000 1.0
C      1  0.3947980000000  0.4451740000000  0.4854780000000 1.0
C      1  0.4599760000000  0.4451740000000  0.4016320000000 1.0
C      1  0.5651770000000  0.4451740000000  0.4161530000000 1.0
C      1  0.6052020000000  0.4451740000000  0.5145220000000 1.0
C      1  0.5400240000000  0.4451740000000  0.5983680000000 1.0
C      1  0.4348230000000  0.4451740000000  0.5838470000000 1.0
C      1  0.2928270000000  0.4472880000000  0.3848130000000 1.0
C      1  0.4961690000000  0.4472880000000  0.2629890000000 1.0
C      1  0.7033410000000  0.4472880000000  0.3781770000000 1.0
C      1  0.7071730000000  0.4472880000000  0.6151870000000 1.0
C      1  0.5038310000000  0.4472880000000  0.7370110000000 1.0
C      1  0.2966590000000  0.4472880000000  0.6218230000000 1.0
C      1  0.2928270000000  0.5527120000000  0.3848130000000 1.0
C      1  0.4961690000000  0.5527120000000  0.2629890000000 1.0
C      1  0.7033410000000  0.5527120000000  0.3781770000000 1.0
C      1  0.7071730000000  0.5527120000000  0.6151870000000 1.0
C      1  0.5038310000000  0.5527120000000  0.7370110000000 1.0
C      1  0.2966590000000  0.5527120000000  0.6218230000000 1.0
C      1  0.3826510000000  0.5566480000000  0.6853390000000 1.0
C      1  0.2808180000000  0.5566480000000  0.4910420000000 1.0
C      1  0.3981670000000  0.5566480000000  0.3057040000000 1.0
C      1  0.6173490000000  0.5566480000000  0.3146610000000 1.0
C      1  0.7191820000000  0.5566480000000  0.5089580000000 1.0
C      1  0.6018330000000  0.5566480000000  0.6942960000000 1.0
C      1  0.3826510000000  0.4433520000000  0.6853390000000 1.0
C      1  0.2808180000000  0.4433520000000  0.4910420000000 1.0
C      1  0.3981670000000  0.4433520000000  0.3057040000000 1.0
C      1  0.6173490000000  0.4433520000000  0.3146610000000 1.0
C      1  0.7191820000000  0.4433520000000  0.5089580000000 1.0
C      1  0.6018330000000  0.4433520000000  0.6942960000000 1.0
END
