TITL C-3036479-9801-866 -1.2515584614828e-06 3375 -339.725348662617 0 0 60 (Ci) n - 1
REM
REM in /home/bkarasulu/work/CARBON/AIRSS/Generating-Clusters/REBO/Higher-Symm/Only-C60
REM
REM
REM
REM
REM
REM ./C.cell (a2850807a9bf4ad07a5b6933b78d9264)
REM AIRSS Version 0.9.1 bugfix July 2018 build 013d7b7c2542+ Fri, 06 Jul 2018 19:26:36 +0100
REM compiler GCC version 9.2.1 20190827 (Red Hat 9.2.1-1)
REM options -cpp -mtune=generic -march=x86-64 -g -O0 -fpre-include=/usr/include/finclude/math-vector-fortran.h
REM seed -836794855 -724483594 1967125896 -396649295 1628982094 -1239653094 -323361017 -1568156127 418195274 -1266277321 -658656532 504497699 1916792168 -1845157234 1448030659 408807814 781743041 207971086 1646847795 -364680936 1804127654 771061124 -1141247649 -489062802 -1456344239 2147125813 883012216 -549091295 -738691030 -1070487824 2129799898 -1011539619 -686460085
REM
CELL 1.54180   15.00000   15.00000   15.00000   90.00000   90.00000   90.00000
LATT -1
SFAC C  
C      1  0.5914840000000  0.4766840000000  0.4316990000000 1.0
C      1  0.4085170000000  0.5233160000000  0.5683010000000 1.0
C      1  0.4357720000000  0.5277410000000  0.2624100000000 1.0
C      1  0.5642270000000  0.4722600000000  0.7375910000000 1.0
C      1  0.2816340000000  0.5783700000000  0.4855150000000 1.0
C      1  0.7183660000000  0.4216310000000  0.5144850000000 1.0
C      1  0.3637420000000  0.3065050000000  0.5222620000000 1.0
C      1  0.6362580000000  0.6934950000000  0.4777380000000 1.0
C      1  0.3347330000000  0.3697220000000  0.4328930000000 1.0
C      1  0.6652680000000  0.6302780000000  0.5671070000000 1.0
C      1  0.4656410000000  0.3245640000000  0.3290660000000 1.0
C      1  0.5343590000000  0.6754360000000  0.6709340000000 1.0
C      1  0.6361070000000  0.5175710000000  0.6851550000000 1.0
C      1  0.3638930000000  0.4824290000000  0.3148460000000 1.0
C      1  0.5078410000000  0.5038430000000  0.6542430000000 1.0
C      1  0.4921590000000  0.4961570000000  0.3457570000000 1.0
C      1  0.6286270000000  0.3564840000000  0.5882810000000 1.0
C      1  0.3713730000000  0.6435160000000  0.4117190000000 1.0
C      1  0.5347820000000  0.6584130000000  0.2854120000000 1.0
C      1  0.4652170000000  0.3415870000000  0.7145880000000 1.0
C      1  0.6170660000000  0.6099190000000  0.6630570000000 1.0
C      1  0.3829340000000  0.3900810000000  0.3369430000000 1.0
C      1  0.6605010000000  0.4580070000000  0.5972380000000 1.0
C      1  0.3394990000000  0.5419930000000  0.4027630000000 1.0
C      1  0.4060490000000  0.7033300000000  0.5602350000000 1.0
C      1  0.5939510000000  0.2966700000000  0.4397650000000 1.0
C      1  0.3566650000000  0.4711370000000  0.6556330000000 1.0
C      1  0.6433350000000  0.5288630000000  0.3443670000000 1.0
C      1  0.5555240000000  0.4405740000000  0.2979840000000 1.0
C      1  0.4444760000000  0.5594260000000  0.7020160000000 1.0
C      1  0.6304200000000  0.3971390000000  0.3601830000000 1.0
C      1  0.3695800000000  0.6028610000000  0.6398170000000 1.0
C      1  0.4118000000000  0.2907060000000  0.4208450000000 1.0
C      1  0.5882000000000  0.7092930000000  0.5791550000000 1.0
C      1  0.4978630000000  0.5631540000000  0.5207720000000 1.0
C      1  0.5021370000000  0.4368460000000  0.4792280000000 1.0
C      1  0.6032340000000  0.5357000000000  0.5536400000000 1.0
C      1  0.3967670000000  0.4643000000000  0.4463600000000 1.0
C      1  0.5589710000000  0.4723170000000  0.2111830000000 1.0
C      1  0.4410290000000  0.5276830000000  0.7888170000000 1.0
C      1  0.6118850000000  0.5849740000000  0.4544120000000 1.0
C      1  0.3881150000000  0.4150250000000  0.5455890000000 1.0
C      1  0.2962710000000  0.5982960000000  0.5639220000000 1.0
C      1  0.7037280000000  0.4017050000000  0.4360780000000 1.0
C      1  0.4257280000000  0.3312140000000  0.6087820000000 1.0
C      1  0.5742720000000  0.6687850000000  0.3912180000000 1.0
C      1  0.3880340000000  0.4225620000000  0.7267470000000 1.0
C      1  0.6119650000000  0.5774380000000  0.2732530000000 1.0
C      1  0.4404890000000  0.6859090000000  0.6618830000000 1.0
C      1  0.5595110000000  0.3140910000000  0.3381160000000 1.0
C      1  0.5343780000000  0.3445710000000  0.6265080000000 1.0
C      1  0.4656220000000  0.6554280000000  0.3734930000000 1.0
C      1  0.4829440000000  0.4225220000000  0.7921250000000 1.0
C      1  0.5170560000000  0.5774780000000  0.2078750000000 1.0
C      1  0.5028920000000  0.3350500000000  0.4563850000000 1.0
C      1  0.4971080000000  0.6649500000000  0.5436150000000 1.0
C      1  0.5130550000000  0.4422100000000  0.5825520000000 1.0
C      1  0.4869460000000  0.5577900000000  0.4174490000000 1.0
C      1  0.3495000000000  0.6931150000000  0.4857430000000 1.0
C      1  0.6505000000000  0.3068850000000  0.5142570000000 1.0
END
