TITL C-3036480-97-500 -9.1080761490246e-06 3375 -366.266718351418 0 0 60 (C1) n - 1
REM
REM in /home/bkarasulu/work/CARBON/AIRSS/Generating-Clusters/REBO/Higher-Symm/Only-C60
REM
REM
REM
REM
REM
REM ./C.cell (a2850807a9bf4ad07a5b6933b78d9264)
REM AIRSS Version 0.9.1 bugfix July 2018 build 013d7b7c2542+ Fri, 06 Jul 2018 19:26:36 +0100
REM compiler GCC version 9.2.1 20190827 (Red Hat 9.2.1-1)
REM options -cpp -mtune=generic -march=x86-64 -g -O0 -fpre-include=/usr/include/finclude/math-vector-fortran.h
REM seed 142843621 1595442994 489697841 421740074 -1647964735 -89194028 1990874033 -1055182465 1979894738 1904567413 -1714414380 1744690279 225009107 -2131723766 -453407004 515694233 1729027872 1086783120 2108421358 -18552479 -1149240880 2103476224 -932994556 -516009608 -410136890 -1519078754 2287355 -1448399563 -1979076695 1558471771 706346730 -1007622999 -1117864110
REM
CELL 1.54180   15.00000   15.00000   15.00000   90.00000   90.00000   90.00000
LATT -1
SFAC C  
C      1  0.4140480000000  0.2958870000000  0.6336220000000 1.0
C      1  0.4099630000000  0.5642570000000  0.7517090000000 1.0
C      1  0.4131790000000  0.7184240000000  0.5296510000000 1.0
C      1  0.4114160000000  0.5931810000000  0.2603120000000 1.0
C      1  0.4129220000000  0.3329970000000  0.3368630000000 1.0
C      1  0.4116070000000  0.7089040000000  0.6358470000000 1.0
C      1  0.4104740000000  0.4576200000000  0.7368810000000 1.0
C      1  0.4144660000000  0.2783060000000  0.5264880000000 1.0
C      1  0.4119900000000  0.4066690000000  0.2561690000000 1.0
C      1  0.4136410000000  0.6626800000000  0.3431630000000 1.0
C      1  0.5779600000000  0.4577800000000  0.7324620000000 1.0
C      1  0.5758800000000  0.7060200000000  0.6409450000000 1.0
C      1  0.5801770000000  0.6583150000000  0.3477810000000 1.0
C      1  0.5750990000000  0.4089250000000  0.2494970000000 1.0
C      1  0.5812440000000  0.2820110000000  0.5247930000000 1.0
C      1  0.5746080000000  0.5678570000000  0.7525310000000 1.0
C      1  0.5765210000000  0.2961570000000  0.6372020000000 1.0
C      1  0.5796720000000  0.3361990000000  0.3365650000000 1.0
C      1  0.5751910000000  0.5914130000000  0.2564170000000 1.0
C      1  0.5800580000000  0.7104420000000  0.5298990000000 1.0
C      1  0.6557460000000  0.6321770000000  0.5021870000000 1.0
C      1  0.6480210000000  0.5450620000000  0.3309380000000 1.0
C      1  0.6577980000000  0.3826270000000  0.4043570000000 1.0
C      1  0.6517380000000  0.3705690000000  0.5951710000000 1.0
C      1  0.6470700000000  0.5505230000000  0.6661400000000 1.0
C      1  0.6588800000000  0.3569640000000  0.4926650000000 1.0
C      1  0.6485790000000  0.4496850000000  0.3266100000000 1.0
C      1  0.6557820000000  0.6070470000000  0.4136110000000 1.0
C      1  0.6488910000000  0.6256440000000  0.6060870000000 1.0
C      1  0.6508060000000  0.4496180000000  0.6457270000000 1.0
C      1  0.4896360000000  0.2581120000000  0.4680450000000 1.0
C      1  0.4862840000000  0.3971070000000  0.7458390000000 1.0
C      1  0.4843760000000  0.7012800000000  0.6982180000000 1.0
C      1  0.4900670000000  0.7081350000000  0.3810320000000 1.0
C      1  0.4829440000000  0.4527390000000  0.2071270000000 1.0
C      1  0.4901280000000  0.7344360000000  0.4738750000000 1.0
C      1  0.4833220000000  0.6266810000000  0.7596730000000 1.0
C      1  0.4861960000000  0.3129330000000  0.6967270000000 1.0
C      1  0.4889690000000  0.2848910000000  0.3738630000000 1.0
C      1  0.4833810000000  0.5502520000000  0.2110860000000 1.0
C      1  0.3525440000000  0.3722150000000  0.5969340000000 1.0
C      1  0.3537840000000  0.5523210000000  0.6631500000000 1.0
C      1  0.3485760000000  0.6410900000000  0.5001910000000 1.0
C      1  0.3522980000000  0.5455280000000  0.3334220000000 1.0
C      1  0.3474330000000  0.3788390000000  0.4055920000000 1.0
C      1  0.3531050000000  0.6266650000000  0.6042530000000 1.0
C      1  0.3509990000000  0.4494550000000  0.6498030000000 1.0
C      1  0.3477830000000  0.3532050000000  0.4946870000000 1.0
C      1  0.3524780000000  0.4508990000000  0.3310590000000 1.0
C      1  0.3483190000000  0.6150270000000  0.4110700000000 1.0
C      1  0.5144320000000  0.5477820000000  0.6577790000000 1.0
C      1  0.5244570000000  0.6101720000000  0.5060250000000 1.0
C      1  0.5153160000000  0.5427800000000  0.3395090000000 1.0
C      1  0.5269630000000  0.4054320000000  0.4142650000000 1.0
C      1  0.5194190000000  0.3813320000000  0.5881370000000 1.0
C      1  0.5184970000000  0.4573680000000  0.6321730000000 1.0
C      1  0.5281290000000  0.3819860000000  0.4959580000000 1.0
C      1  0.5159190000000  0.4530210000000  0.3353320000000 1.0
C      1  0.5244630000000  0.5868450000000  0.4225580000000 1.0
C      1  0.5163540000000  0.6175130000000  0.6003280000000 1.0
END
