TITL C-3036479-9801-540 7.44528347619166e-07 3375 -369.797546095027 0 0 60 (C1) n - 1
REM
REM in /home/bkarasulu/work/CARBON/AIRSS/Generating-Clusters/REBO/Higher-Symm/Only-C60
REM
REM
REM
REM
REM
REM ./C.cell (a2850807a9bf4ad07a5b6933b78d9264)
REM AIRSS Version 0.9.1 bugfix July 2018 build 013d7b7c2542+ Fri, 06 Jul 2018 19:26:36 +0100
REM compiler GCC version 9.2.1 20190827 (Red Hat 9.2.1-1)
REM options -cpp -mtune=generic -march=x86-64 -g -O0 -fpre-include=/usr/include/finclude/math-vector-fortran.h
REM seed 384023150 809647481 1126042715 -229802236 1409700874 -2080055589 -830577715 -1907233736 391618057 42308784 -1966092855 -662830043 -1699913328 1057083403 -49025511 75852579 1467871080 940007245 79440839 988599328 1300242406 -773895147 386388176 -1571603509 -330552430 1455378472 439574181 1603859187 2014149438 1636517543 -1992817612 695466607 -2040346091
REM
CELL 1.54180   15.00000   15.00000   15.00000   90.00000   90.00000   90.00000
LATT -1
SFAC C  
C      1  0.5810620000000  0.4485570000000  0.7081050000000 1.0
C      1  0.3236360000000  0.4368660000000  0.6523420000000 1.0
C      1  0.3026630000000  0.4484470000000  0.3845880000000 1.0
C      1  0.5578490000000  0.4579900000000  0.2803620000000 1.0
C      1  0.7311840000000  0.4519460000000  0.4876240000000 1.0
C      1  0.5913020000000  0.5484890000000  0.7081420000000 1.0
C      1  0.3201680000000  0.5394480000000  0.6474690000000 1.0
C      1  0.3096310000000  0.5491230000000  0.3798120000000 1.0
C      1  0.5495990000000  0.5597960000000  0.2687290000000 1.0
C      1  0.7304520000000  0.5526880000000  0.4719800000000 1.0
C      1  0.4750000000000  0.4252880000000  0.6971860000000 1.0
C      1  0.3270940000000  0.4564790000000  0.5442580000000 1.0
C      1  0.4009410000000  0.4611460000000  0.3396940000000 1.0
C      1  0.6426310000000  0.4399360000000  0.3475890000000 1.0
C      1  0.7006020000000  0.4351340000000  0.5919470000000 1.0
C      1  0.4826700000000  0.5374440000000  0.6956670000000 1.0
C      1  0.2874370000000  0.5629040000000  0.5447590000000 1.0
C      1  0.3995060000000  0.5731460000000  0.3229190000000 1.0
C      1  0.6185570000000  0.5501170000000  0.3539630000000 1.0
C      1  0.6797960000000  0.5441690000000  0.5682040000000 1.0
C      1  0.4331150000000  0.4630380000000  0.5219740000000 1.0
C      1  0.4730160000000  0.4479450000000  0.4261790000000 1.0
C      1  0.5790120000000  0.4541130000000  0.4376040000000 1.0
C      1  0.6020470000000  0.4396630000000  0.5423630000000 1.0
C      1  0.5096070000000  0.4535700000000  0.5959320000000 1.0
C      1  0.3957390000000  0.5698510000000  0.5254620000000 1.0
C      1  0.4343150000000  0.5562460000000  0.4263440000000 1.0
C      1  0.5412220000000  0.5617530000000  0.4305640000000 1.0
C      1  0.5730950000000  0.5498760000000  0.5300240000000 1.0
C      1  0.4856120000000  0.5662040000000  0.5868790000000 1.0
C      1  0.6387630000000  0.5996210000000  0.6462400000000 1.0
C      1  0.3924520000000  0.5923780000000  0.6777770000000 1.0
C      1  0.2921790000000  0.6078840000000  0.4507060000000 1.0
C      1  0.4770760000000  0.6184940000000  0.2802720000000 1.0
C      1  0.6874080000000  0.6044080000000  0.4069740000000 1.0
C      1  0.6374930000000  0.3900190000000  0.6615240000000 1.0
C      1  0.3889390000000  0.3787350000000  0.6861410000000 1.0
C      1  0.2990320000000  0.3994260000000  0.4644480000000 1.0
C      1  0.4816560000000  0.4060090000000  0.3001760000000 1.0
C      1  0.6961140000000  0.3924170000000  0.4238400000000 1.0
C      1  0.6085550000000  0.6849350000000  0.6219010000000 1.0
C      1  0.4091290000000  0.6751960000000  0.6340780000000 1.0
C      1  0.3344270000000  0.6919530000000  0.4496590000000 1.0
C      1  0.4932250000000  0.7037420000000  0.3186690000000 1.0
C      1  0.6577840000000  0.6914690000000  0.4286540000000 1.0
C      1  0.6036090000000  0.3056850000000  0.6371650000000 1.0
C      1  0.3985410000000  0.2925600000000  0.6484790000000 1.0
C      1  0.3329920000000  0.3114860000000  0.4654950000000 1.0
C      1  0.4908740000000  0.3205480000000  0.3387570000000 1.0
C      1  0.6578550000000  0.3104850000000  0.4502860000000 1.0
C      1  0.4169390000000  0.2723170000000  0.4828750000000 1.0
C      1  0.4939930000000  0.2786270000000  0.4228780000000 1.0
C      1  0.5750130000000  0.2751050000000  0.4774290000000 1.0
C      1  0.5478680000000  0.2687810000000  0.5710690000000 1.0
C      1  0.4502640000000  0.2644170000000  0.5744810000000 1.0
C      1  0.4197790000000  0.7249460000000  0.4708420000000 1.0
C      1  0.4956930000000  0.7315470000000  0.4091970000000 1.0
C      1  0.5774760000000  0.7277140000000  0.4625680000000 1.0
C      1  0.5518920000000  0.7211110000000  0.5566100000000 1.0
C      1  0.4544190000000  0.7166130000000  0.5621490000000 1.0
END
