TITL C-3036482-790-1050 0.0132234443015228 3375 -344.584930548607 0 0 60 (C1) n - 1
REM
REM in /home/bkarasulu/work/CARBON/AIRSS/Generating-Clusters/REBO/Higher-Symm/Only-C60
REM
REM
REM
REM
REM
REM ./C.cell (a2850807a9bf4ad07a5b6933b78d9264)
REM AIRSS Version 0.9.1 bugfix July 2018 build 013d7b7c2542+ Fri, 06 Jul 2018 19:26:36 +0100
REM compiler GCC version 9.2.1 20190827 (Red Hat 9.2.1-1)
REM options -cpp -mtune=generic -march=x86-64 -g -O0 -fpre-include=/usr/include/finclude/math-vector-fortran.h
REM seed 1112571048 -1323831161 185711735 -1600825763 277585121 1187167844 -382787544 832754168 -1394585594 -215368153 216362480 -433891880 -1354994144 -402451191 254905295 1055318211 130225799 1912429322 -547970508 1105054578 1875864661 -475370623 -1059955547 -364518427 2074645407 -1347743022 -948277740 -613990612 1453540411 2012769154 613566402 1544518460 1868028623
REM
CELL 1.54180   15.00000   15.00000   15.00000   90.00000   90.00000   90.00000
LATT -1
SFAC C  
C      1  0.5903210000000  0.6922220000000  0.5600200000000 1.0
C      1  0.6611670000000  0.5703900000000  0.3519330000000 1.0
C      1  0.5272680000000  0.4141870000000  0.7097410000000 1.0
C      1  0.4050640000000  0.5057380000000  0.5623330000000 1.0
C      1  0.6839990000000  0.6382030000000  0.5316630000000 1.0
C      1  0.6645500000000  0.4051830000000  0.5946930000000 1.0
C      1  0.5487240000000  0.6588940000000  0.6605180000000 1.0
C      1  0.7245830000000  0.4119340000000  0.4294690000000 1.0
C      1  0.3165590000000  0.4742350000000  0.5225690000000 1.0
C      1  0.6939210000000  0.5886150000000  0.6948020000000 1.0
C      1  0.5856150000000  0.3601420000000  0.6460150000000 1.0
C      1  0.3834520000000  0.3510170000000  0.6076670000000 1.0
C      1  0.4749210000000  0.2477950000000  0.4950030000000 1.0
C      1  0.4574260000000  0.4778210000000  0.7734540000000 1.0
C      1  0.7102200000000  0.5744100000000  0.6024520000000 1.0
C      1  0.4706950000000  0.4405210000000  0.5238860000000 1.0
C      1  0.4393750000000  0.5531010000000  0.2279930000000 1.0
C      1  0.3891690000000  0.3994530000000  0.2865940000000 1.0
C      1  0.5549380000000  0.5175170000000  0.7480860000000 1.0
C      1  0.5241910000000  0.6659700000000  0.3141580000000 1.0
C      1  0.4456180000000  0.6543580000000  0.2617260000000 1.0
C      1  0.6369970000000  0.2607990000000  0.3804950000000 1.0
C      1  0.5267630000000  0.7235980000000  0.3846120000000 1.0
C      1  0.5060790000000  0.3670140000000  0.3801340000000 1.0
C      1  0.5839250000000  0.3168210000000  0.5384490000000 1.0
C      1  0.5121720000000  0.4992690000000  0.2636250000000 1.0
C      1  0.2602180000000  0.5834320000000  0.5726170000000 1.0
C      1  0.6418050000000  0.4960780000000  0.5638300000000 1.0
C      1  0.3055060000000  0.5935680000000  0.3978460000000 1.0
C      1  0.3177420000000  0.6356700000000  0.4947920000000 1.0
C      1  0.4866190000000  0.4115800000000  0.2932110000000 1.0
C      1  0.4100680000000  0.5770600000000  0.6524410000000 1.0
C      1  0.5184460000000  0.5977780000000  0.5016220000000 1.0
C      1  0.4073600000000  0.7304260000000  0.6228570000000 1.0
C      1  0.6326330000000  0.2037950000000  0.3089130000000 1.0
C      1  0.6024590000000  0.5910540000000  0.7206510000000 1.0
C      1  0.7109410000000  0.3073330000000  0.4126250000000 1.0
C      1  0.5559320000000  0.2900060000000  0.4320310000000 1.0
C      1  0.6910700000000  0.3460980000000  0.5138090000000 1.0
C      1  0.4190220000000  0.6010900000000  0.5217400000000 1.0
C      1  0.3498370000000  0.4058100000000  0.3694790000000 1.0
C      1  0.3164460000000  0.5454500000000  0.6529550000000 1.0
C      1  0.5071500000000  0.7048880000000  0.4836940000000 1.0
C      1  0.6966430000000  0.6017870000000  0.4469960000000 1.0
C      1  0.4153920000000  0.5209630000000  0.3827770000000 1.0
C      1  0.4030270000000  0.3087340000000  0.5101030000000 1.0
C      1  0.5785070000000  0.5798760000000  0.5880280000000 1.0
C      1  0.4229380000000  0.3869530000000  0.4433980000000 1.0
C      1  0.3995490000000  0.7108990000000  0.5200430000000 1.0
C      1  0.4490700000000  0.6605830000000  0.6666870000000 1.0
C      1  0.5670280000000  0.5716040000000  0.3262890000000 1.0
C      1  0.5043790000000  0.5202170000000  0.3947960000000 1.0
C      1  0.4944300000000  0.3636590000000  0.5889120000000 1.0
C      1  0.3170400000000  0.4335510000000  0.6492060000000 1.0
C      1  0.3150270000000  0.4888650000000  0.4251950000000 1.0
C      1  0.3667880000000  0.5897520000000  0.3069640000000 1.0
C      1  0.5555230000000  0.4935240000000  0.4899150000000 1.0
C      1  0.7161700000000  0.4996330000000  0.4109270000000 1.0
C      1  0.2330560000000  0.4735120000000  0.5827430000000 1.0
C      1  0.4144640000000  0.4055650000000  0.6998200000000 1.0
END
