TITL C-3036482-790-166 -7.60451231892509e-07 3375 -343.41824329481 0 0 60 (C1) n - 1
REM
REM in /home/bkarasulu/work/CARBON/AIRSS/Generating-Clusters/REBO/Higher-Symm/Only-C60
REM
REM
REM
REM
REM
REM ./C.cell (a2850807a9bf4ad07a5b6933b78d9264)
REM AIRSS Version 0.9.1 bugfix July 2018 build 013d7b7c2542+ Fri, 06 Jul 2018 19:26:36 +0100
REM compiler GCC version 9.2.1 20190827 (Red Hat 9.2.1-1)
REM options -cpp -mtune=generic -march=x86-64 -g -O0 -fpre-include=/usr/include/finclude/math-vector-fortran.h
REM seed -203568794 -1026165433 1090345600 1501342494 816557906 580723274 -1178988440 17628247 -851530798 -1795071439 -379816083 1758047453 622727404 1007242326 -1258762130 1167067344 1489717120 -556992448 749938968 980095645 -1110736308 290959224 407499711 -2056044654 58065240 -901079993 845464631 1635396482 467359411 1593883343 401336341 1971402397 -1288289745
REM
CELL 1.54180   15.00000   15.00000   15.00000   90.00000   90.00000   90.00000
LATT -1
SFAC C  
C      1  0.3892860000000  0.5820080000000  0.4448220000000 1.0
C      1  0.6048930000000  0.5772950000000  0.4259970000000 1.0
C      1  0.5104730000000  0.5860530000000  0.6191290000000 1.0
C      1  0.3882950000000  0.4176430000000  0.4467440000000 1.0
C      1  0.6006690000000  0.4142200000000  0.4319240000000 1.0
C      1  0.5097970000000  0.4224760000000  0.6257290000000 1.0
C      1  0.5479000000000  0.4473470000000  0.2668510000000 1.0
C      1  0.6835790000000  0.4530210000000  0.6444200000000 1.0
C      1  0.2729680000000  0.4439000000000  0.5759450000000 1.0
C      1  0.5309560000000  0.5483040000000  0.2689070000000 1.0
C      1  0.6787770000000  0.5542680000000  0.6587790000000 1.0
C      1  0.2845210000000  0.5450670000000  0.5859510000000 1.0
C      1  0.6965590000000  0.6238960000000  0.5106900000000 1.0
C      1  0.3888740000000  0.6378900000000  0.6713920000000 1.0
C      1  0.4046790000000  0.6374690000000  0.3222500000000 1.0
C      1  0.7029500000000  0.3613580000000  0.5105330000000 1.0
C      1  0.3919840000000  0.3746910000000  0.6654460000000 1.0
C      1  0.4121050000000  0.3735200000000  0.3223450000000 1.0
C      1  0.7250040000000  0.5492190000000  0.5630020000000 1.0
C      1  0.3366590000000  0.5592310000000  0.6754960000000 1.0
C      1  0.4272560000000  0.5602260000000  0.2726190000000 1.0
C      1  0.7337060000000  0.4394020000000  0.5537940000000 1.0
C      1  0.3322050000000  0.4491910000000  0.6642470000000 1.0
C      1  0.4416650000000  0.4503280000000  0.2737950000000 1.0
C      1  0.4699240000000  0.2974760000000  0.6459070000000 1.0
C      1  0.3910920000000  0.2940930000000  0.3978340000000 1.0
C      1  0.6427160000000  0.2898780000000  0.4523900000000 1.0
C      1  0.4699510000000  0.7092850000000  0.6481980000000 1.0
C      1  0.3853620000000  0.7083370000000  0.4048480000000 1.0
C      1  0.6407170000000  0.7022610000000  0.4533470000000 1.0
C      1  0.6987980000000  0.5356160000000  0.4113990000000 1.0
C      1  0.4791860000000  0.5494230000000  0.7128120000000 1.0
C      1  0.3260460000000  0.5423760000000  0.3720020000000 1.0
C      1  0.6971310000000  0.4511950000000  0.4125530000000 1.0
C      1  0.4763290000000  0.4650240000000  0.7145440000000 1.0
C      1  0.3237850000000  0.4580490000000  0.3741210000000 1.0
C      1  0.5830630000000  0.6994720000000  0.3790230000000 1.0
C      1  0.5633510000000  0.7058670000000  0.6380090000000 1.0
C      1  0.3489600000000  0.6997690000000  0.4910350000000 1.0
C      1  0.5885340000000  0.2948890000000  0.3757930000000 1.0
C      1  0.5632530000000  0.3013560000000  0.6348920000000 1.0
C      1  0.3529350000000  0.2955340000000  0.4838550000000 1.0
C      1  0.6082310000000  0.6141320000000  0.6699710000000 1.0
C      1  0.3043730000000  0.6053100000000  0.5166100000000 1.0
C      1  0.5810690000000  0.6085030000000  0.3209570000000 1.0
C      1  0.6128590000000  0.3933600000000  0.6615140000000 1.0
C      1  0.2993460000000  0.3847200000000  0.5088680000000 1.0
C      1  0.5936660000000  0.3873280000000  0.3216730000000 1.0
C      1  0.5985150000000  0.3386420000000  0.5415440000000 1.0
C      1  0.4124110000000  0.3385800000000  0.5611230000000 1.0
C      1  0.4922630000000  0.3371290000000  0.3912380000000 1.0
C      1  0.5977110000000  0.6625760000000  0.5467420000000 1.0
C      1  0.4141480000000  0.6611690000000  0.5658990000000 1.0
C      1  0.4849360000000  0.6610240000000  0.3956890000000 1.0
C      1  0.5694500000000  0.4483860000000  0.5326790000000 1.0
C      1  0.4370250000000  0.4487040000000  0.5443420000000 1.0
C      1  0.4930090000000  0.4465990000000  0.4235990000000 1.0
C      1  0.5711660000000  0.5527140000000  0.5301720000000 1.0
C      1  0.4385140000000  0.5525700000000  0.5423580000000 1.0
C      1  0.4944170000000  0.5506260000000  0.4216510000000 1.0
END
