TITL C-3036482-790-408 4.29304432297729e-06 3375 -349.610249571668 0 0 60 (D2) n - 1
REM
REM in /home/bkarasulu/work/CARBON/AIRSS/Generating-Clusters/REBO/Higher-Symm/Only-C60
REM
REM
REM
REM
REM
REM ./C.cell (a2850807a9bf4ad07a5b6933b78d9264)
REM AIRSS Version 0.9.1 bugfix July 2018 build 013d7b7c2542+ Fri, 06 Jul 2018 19:26:36 +0100
REM compiler GCC version 9.2.1 20190827 (Red Hat 9.2.1-1)
REM options -cpp -mtune=generic -march=x86-64 -g -O0 -fpre-include=/usr/include/finclude/math-vector-fortran.h
REM seed 187973286 1448277010 951418813 -1959266186 -1331881664 -375563763 924073413 -2113591496 -1042859929 -691027716 -1806597317 -1653981721 -1462723430 863664705 1798277597 1740946056 542094909 745123274 167929987 2037616141 1093584147 -1067332353 -809574330 2010814611 1188312757 531281112 -472873605 194136340 1106845320 1589557495 1343363305 1353763125 -90645573
REM
CELL 1.54180   15.00000   15.00000   15.00000   90.00000   90.00000   90.00000
LATT -1
SFAC C  
C      1  0.6215040000000  0.5126920000000  0.6604890000000 1.0
C      1  0.4615820000000  0.4116600000000  0.6460310000000 1.0
C      1  0.3784960000000  0.4873080000000  0.6604890000000 1.0
C      1  0.5384180000000  0.5883400000000  0.6460310000000 1.0
C      1  0.5883210000000  0.5384630000000  0.3470890000000 1.0
C      1  0.5126320000000  0.6215120000000  0.3326320000000 1.0
C      1  0.4116790000000  0.4615370000000  0.3470890000000 1.0
C      1  0.4873680000000  0.3784880000000  0.3326320000000 1.0
C      1  0.4206270000000  0.6971970000000  0.3916690000000 1.0
C      1  0.7015040000000  0.5886760000000  0.3956060000000 1.0
C      1  0.5793730000000  0.3028030000000  0.3916690000000 1.0
C      1  0.2984960000000  0.4113240000000  0.3956060000000 1.0
C      1  0.4114240000000  0.2984520000000  0.5975170000000 1.0
C      1  0.6972380000000  0.4207240000000  0.6014550000000 1.0
C      1  0.5885760000000  0.7015480000000  0.5975170000000 1.0
C      1  0.3027620000000  0.5792760000000  0.6014550000000 1.0
C      1  0.5891830000000  0.5005840000000  0.5597040000000 1.0
C      1  0.5003520000000  0.4334280000000  0.5434650000000 1.0
C      1  0.4108170000000  0.4994160000000  0.5597040000000 1.0
C      1  0.4996480000000  0.5665720000000  0.5434650000000 1.0
C      1  0.5665720000000  0.4996810000000  0.4496560000000 1.0
C      1  0.5005390000000  0.5891830000000  0.4334160000000 1.0
C      1  0.4334280000000  0.5003190000000  0.4496560000000 1.0
C      1  0.4994610000000  0.4108170000000  0.4334160000000 1.0
C      1  0.3943600000000  0.6649320000000  0.4814020000000 1.0
C      1  0.6699770000000  0.6066110000000  0.4878990000000 1.0
C      1  0.6056400000000  0.3350680000000  0.4814020000000 1.0
C      1  0.3300230000000  0.3933890000000  0.4878990000000 1.0
C      1  0.3934730000000  0.3299700000000  0.5052240000000 1.0
C      1  0.6649850000000  0.3944420000000  0.5117210000000 1.0
C      1  0.6065270000000  0.6700300000000  0.5052240000000 1.0
C      1  0.3350150000000  0.6055580000000  0.5117210000000 1.0
C      1  0.5775660000000  0.7116470000000  0.3264000000000 1.0
C      1  0.6436330000000  0.4482440000000  0.3247190000000 1.0
C      1  0.4224340000000  0.2883530000000  0.3264000000000 1.0
C      1  0.3563670000000  0.5517560000000  0.3247190000000 1.0
C      1  0.5518280000000  0.3563920000000  0.6684040000000 1.0
C      1  0.7116080000000  0.5776700000000  0.6667230000000 1.0
C      1  0.4481720000000  0.6436080000000  0.6684040000000 1.0
C      1  0.2883920000000  0.4223300000000  0.6667230000000 1.0
C      1  0.6357820000000  0.6442830000000  0.6653870000000 1.0
C      1  0.6293680000000  0.4061480000000  0.6750690000000 1.0
C      1  0.3642180000000  0.3557170000000  0.6653870000000 1.0
C      1  0.3706320000000  0.5938520000000  0.6750690000000 1.0
C      1  0.5939160000000  0.3706790000000  0.3180540000000 1.0
C      1  0.6442160000000  0.6358550000000  0.3277360000000 1.0
C      1  0.4060840000000  0.6293210000000  0.3180540000000 1.0
C      1  0.3557840000000  0.3641450000000  0.3277360000000 1.0
C      1  0.2568290000000  0.4891860000000  0.6002310000000 1.0
C      1  0.4897000000000  0.7137750000000  0.6119150000000 1.0
C      1  0.7431710000000  0.5108140000000  0.6002310000000 1.0
C      1  0.5103000000000  0.2862250000000  0.6119150000000 1.0
C      1  0.2862210000000  0.5101950000000  0.3812090000000 1.0
C      1  0.4893060000000  0.2568250000000  0.3928930000000 1.0
C      1  0.7137790000000  0.4898050000000  0.3812090000000 1.0
C      1  0.5106940000000  0.7431750000000  0.3928930000000 1.0
C      1  0.2939980000000  0.5012820000000  0.4937910000000 1.0
C      1  0.4986160000000  0.7060010000000  0.4993330000000 1.0
C      1  0.7060020000000  0.4987180000000  0.4937910000000 1.0
C      1  0.5013840000000  0.2939990000000  0.4993330000000 1.0
END
