TITL C-3036480-97-224 0.0542422305767032 3375 -326.995049209312 0 0 60 (C2v) n - 1
REM
REM in /home/bkarasulu/work/CARBON/AIRSS/Generating-Clusters/REBO/Higher-Symm/Only-C60
REM
REM
REM
REM
REM
REM ./C.cell (a2850807a9bf4ad07a5b6933b78d9264)
REM AIRSS Version 0.9.1 bugfix July 2018 build 013d7b7c2542+ Fri, 06 Jul 2018 19:26:36 +0100
REM compiler GCC version 9.2.1 20190827 (Red Hat 9.2.1-1)
REM options -cpp -mtune=generic -march=x86-64 -g -O0 -fpre-include=/usr/include/finclude/math-vector-fortran.h
REM seed 304521392 -960434363 714616993 -554185344 707502029 1900580450 -1223603522 1957847161 1126566968 -211638465 -1702167885 -1561697687 -728401974 -686668824 -1233098325 -1345169848 -1799151687 -1770526490 -931311944 -1585871754 1863169439 1966054824 258601883 675476344 1092327396 309822478 -750320227 1896293741 -1054080118 -513159962 1056576923 786820561 -265243094
REM
CELL 1.54180   15.00000   15.00000   15.00000   90.00000   90.00000   90.00000
LATT -1
SFAC C  
C      1  0.4584850000000  0.4807460000000  0.7192850000000 1.0
C      1  0.5415150000000  0.4807450000000  0.2807150000000 1.0
C      1  0.5415150000000  0.4807450000000  0.7192850000000 1.0
C      1  0.4584850000000  0.4807450000000  0.2807150000000 1.0
C      1  0.4071550000000  0.4727450000000  0.6310220000000 1.0
C      1  0.5928450000000  0.4727450000000  0.3689780000000 1.0
C      1  0.5928450000000  0.4727450000000  0.6310220000000 1.0
C      1  0.4071550000000  0.4727450000000  0.3689780000000 1.0
C      1  0.3103880000000  0.4194450000000  0.4427180000000 1.0
C      1  0.6896130000000  0.4194460000000  0.5572810000000 1.0
C      1  0.6896130000000  0.4194460000000  0.4427190000000 1.0
C      1  0.3103880000000  0.4194450000000  0.5572820000000 1.0
C      1  0.4459560000000  0.7523880000000  0.4466230000000 1.0
C      1  0.5540440000000  0.7523880000000  0.5533770000000 1.0
C      1  0.5540440000000  0.7523880000000  0.4466230000000 1.0
C      1  0.4459560000000  0.7523880000000  0.5533770000000 1.0
C      1  0.5474950000000  0.3532750000000  0.6808250000000 1.0
C      1  0.4525050000000  0.3532750000000  0.3191760000000 1.0
C      1  0.4525050000000  0.3532750000000  0.6808240000000 1.0
C      1  0.5474950000000  0.3532750000000  0.3191750000000 1.0
C      1  0.6932860000000  0.6111830000000  0.5886190000000 1.0
C      1  0.3067140000000  0.6111830000000  0.4113810000000 1.0
C      1  0.3067140000000  0.6111830000000  0.5886190000000 1.0
C      1  0.6932860000000  0.6111830000000  0.4113810000000 1.0
C      1  0.2509880000000  0.4899140000000  0.2755200000000 1.0
C      1  0.7490120000000  0.4899140000000  0.7244800000000 1.0
C      1  0.7490120000000  0.4899140000000  0.2755200000000 1.0
C      1  0.2509880000000  0.4899140000000  0.7244800000000 1.0
C      1  0.4478280000000  0.4004070000000  0.4436840000000 1.0
C      1  0.5521730000000  0.4004070000000  0.5563160000000 1.0
C      1  0.5521730000000  0.4004070000000  0.4436840000000 1.0
C      1  0.4478280000000  0.4004070000000  0.5563160000000 1.0
C      1  0.3580330000000  0.3497410000000  0.6378720000000 1.0
C      1  0.6419660000000  0.3497390000000  0.3621280000000 1.0
C      1  0.6419660000000  0.3497390000000  0.6378720000000 1.0
C      1  0.3580330000000  0.3497410000000  0.3621280000000 1.0
C      1  0.4486540000000  0.5329830000000  0.5574490000000 1.0
C      1  0.5513460000000  0.5329830000000  0.4425510000000 1.0
C      1  0.5513460000000  0.5329830000000  0.5574490000000 1.0
C      1  0.4486540000000  0.5329830000000  0.4425510000000 1.0
C      1  0.6184320000000  0.3074030000000  0.4527190000000 1.0
C      1  0.3815670000000  0.3074030000000  0.5472810000000 1.0
C      1  0.3815670000000  0.3074030000000  0.4527190000000 1.0
C      1  0.6184320000000  0.3074030000000  0.5472810000000 1.0
C      1  0.6380300000000  0.7097460000000  0.3992390000000 1.0
C      1  0.3619700000000  0.7097460000000  0.6007610000000 1.0
C      1  0.3619700000000  0.7097460000000  0.3992390000000 1.0
C      1  0.6380300000000  0.7097460000000  0.6007610000000 1.0
C      1  0.3048480000000  0.4660500000000  0.6616220000000 1.0
C      1  0.6951520000000  0.4660510000000  0.3383780000000 1.0
C      1  0.6951520000000  0.4660510000000  0.6616220000000 1.0
C      1  0.3048480000000  0.4660500000000  0.3383780000000 1.0
C      1  0.7253850000000  0.5288120000000  0.5493670000000 1.0
C      1  0.2746150000000  0.5288120000000  0.4506320000000 1.0
C      1  0.2746150000000  0.5288120000000  0.5493680000000 1.0
C      1  0.7253850000000  0.5288120000000  0.4506330000000 1.0
C      1  0.4069780000000  0.6251630000000  0.4494050000000 1.0
C      1  0.5930220000000  0.6251630000000  0.5505950000000 1.0
C      1  0.5930220000000  0.6251630000000  0.4494050000000 1.0
C      1  0.4069780000000  0.6251630000000  0.5505950000000 1.0
END
