TITL C-3036481-494-900 0.0312700098299093 3375 -334.876020621852 0 0 60 (C3) n - 1
REM
REM in /home/bkarasulu/work/CARBON/AIRSS/Generating-Clusters/REBO/Higher-Symm/Only-C60
REM
REM
REM
REM
REM
REM ./C.cell (a2850807a9bf4ad07a5b6933b78d9264)
REM AIRSS Version 0.9.1 bugfix July 2018 build 013d7b7c2542+ Fri, 06 Jul 2018 19:26:36 +0100
REM compiler GCC version 9.2.1 20190827 (Red Hat 9.2.1-1)
REM options -cpp -mtune=generic -march=x86-64 -g -O0 -fpre-include=/usr/include/finclude/math-vector-fortran.h
REM seed 911746945 942327112 -72842105 1571466640 2070005905 -152919310 434922226 -657565746 1461947756 -719116000 102882371 385574426 -396370821 -24318428 -785820950 1839584058 -471633623 287675030 -1650247196 -1760644535 -38214582 1240418479 -879326052 -2015667936 -2056847563 1014102161 -2061692131 -560801482 1267747073 -786184011 1457860982 -1200196255 1424017862
REM
CELL 1.54180   15.00000   15.00000   15.00000   90.00000   90.00000   90.00000
LATT -1
SFAC C  
C      1  0.4062260000000  0.6555800000000  0.6048790000000 1.0
C      1  0.4555690000000  0.6551980000000  0.3662430000000 1.0
C      1  0.6383130000000  0.6553180000000  0.5285080000000 1.0
C      1  0.4267930000000  0.4025280000000  0.4229710000000 1.0
C      1  0.6032480000000  0.4024580000000  0.4751530000000 1.0
C      1  0.4699370000000  0.4025230000000  0.6017840000000 1.0
C      1  0.5820530000000  0.3111800000000  0.3808420000000 1.0
C      1  0.5619150000000  0.3110680000000  0.6302730000000 1.0
C      1  0.3557120000000  0.3111580000000  0.4883640000000 1.0
C      1  0.4142520000000  0.5214430000000  0.5840030000000 1.0
C      1  0.4704250000000  0.5215920000000  0.3837890000000 1.0
C      1  0.6155420000000  0.5215330000000  0.5325220000000 1.0
C      1  0.2968300000000  0.5368170000000  0.3554950000000 1.0
C      1  0.7266380000000  0.5368210000000  0.3964350000000 1.0
C      1  0.4760290000000  0.5368620000000  0.7477230000000 1.0
C      1  0.4064840000000  0.4327410000000  0.5234620000000 1.0
C      1  0.5264400000000  0.4326720000000  0.4073310000000 1.0
C      1  0.5669730000000  0.4326820000000  0.5691800000000 1.0
C      1  0.6233800000000  0.5185870000000  0.6784170000000 1.0
C      1  0.2838970000000  0.5183630000000  0.5181040000000 1.0
C      1  0.5928360000000  0.5186000000000  0.3041320000000 1.0
C      1  0.3133530000000  0.6809250000000  0.4441890000000 1.0
C      1  0.6414900000000  0.6812410000000  0.3667000000000 1.0
C      1  0.5446170000000  0.6811510000000  0.6893090000000 1.0
C      1  0.3794150000000  0.5645540000000  0.4261030000000 1.0
C      1  0.6243260000000  0.5648530000000  0.4327070000000 1.0
C      1  0.4962670000000  0.5652270000000  0.6410580000000 1.0
C      1  0.3435460000000  0.5015510000000  0.6713360000000 1.0
C      1  0.4305340000000  0.5011250000000  0.2787560000000 1.0
C      1  0.7264420000000  0.5010160000000  0.5503740000000 1.0
C      1  0.3047000000000  0.4123500000000  0.4828720000000 1.0
C      1  0.6122990000000  0.4123460000000  0.3394300000000 1.0
C      1  0.5829250000000  0.4122940000000  0.6776160000000 1.0
C      1  0.6943290000000  0.4442280000000  0.4586520000000 1.0
C      1  0.4386490000000  0.4437560000000  0.6890950000000 1.0
C      1  0.3670440000000  0.4443810000000  0.3523250000000 1.0
C      1  0.3954630000000  0.5950890000000  0.6929440000000 1.0
C      1  0.3849000000000  0.5944280000000  0.3128300000000 1.0
C      1  0.7197060000000  0.5944610000000  0.4940360000000 1.0
C      1  0.7182070000000  0.5077810000000  0.6476070000000 1.0
C      1  0.2632710000000  0.5082950000000  0.6155760000000 1.0
C      1  0.5188830000000  0.5079920000000  0.2372140000000 1.0
C      1  0.6489690000000  0.6087070000000  0.3091880000000 1.0
C      1  0.5908670000000  0.6086510000000  0.7243380000000 1.0
C      1  0.2602750000000  0.6082210000000  0.4667440000000 1.0
C      1  0.2600950000000  0.4378710000000  0.3872450000000 1.0
C      1  0.7174490000000  0.4380150000000  0.3485200000000 1.0
C      1  0.5224750000000  0.4381500000000  0.7638630000000 1.0
C      1  0.6172810000000  0.7063240000000  0.4527850000000 1.0
C      1  0.4825100000000  0.7063660000000  0.6249120000000 1.0
C      1  0.4001820000000  0.7059540000000  0.4224780000000 1.0
C      1  0.4214940000000  0.2991100000000  0.4122210000000 1.0
C      1  0.6151650000000  0.2990580000000  0.4757840000000 1.0
C      1  0.4631740000000  0.2988700000000  0.6115550000000 1.0
C      1  0.5418950000000  0.5952480000000  0.3859010000000 1.0
C      1  0.5780490000000  0.5953360000000  0.5933330000000 1.0
C      1  0.3802060000000  0.5951160000000  0.5207800000000 1.0
C      1  0.3854510000000  0.2680770000000  0.5687540000000 1.0
C      1  0.4977100000000  0.2681030000000  0.3662740000000 1.0
C      1  0.6168970000000  0.2680550000000  0.5649850000000 1.0
END
