TITL C-3036485-3770-657 -6.12146305625182e-06 3375 -345.590310960087 0 0 60 (S12) n - 1
REM
REM in /home/bkarasulu/work/CARBON/AIRSS/Generating-Clusters/REBO/Higher-Symm/Only-C60
REM
REM
REM
REM
REM
REM ./C.cell (a2850807a9bf4ad07a5b6933b78d9264)
REM AIRSS Version 0.9.1 bugfix July 2018 build 013d7b7c2542+ Fri, 06 Jul 2018 19:26:36 +0100
REM compiler GCC version 9.2.1 20190827 (Red Hat 9.2.1-1)
REM options -cpp -mtune=generic -march=x86-64 -g -O0 -fpre-include=/usr/include/finclude/math-vector-fortran.h
REM seed -1094732311 56917990 -821079200 -2088943970 1681019891 855815114 882059521 -994436689 2004111181 1475264306 198663759 559684796 1397419183 -108115495 -953788215 1715483437 2078238828 1873205299 349817807 -1902075108 1940255373 1932978076 -635938514 -1456419133 1783530344 -25951864 1022460161 -353581538 -1637936054 -2109927517 -810613850 1300490469 -1376955183
REM
CELL 1.54180   15.00000   15.00000   15.00000   90.00000   90.00000   90.00000
LATT -1
SFAC C  
C      1  0.4443920000000  0.3247850000000  0.7089030000000 1.0
C      1  0.3642350000000  0.3760630000000  0.2910970000000 1.0
C      1  0.3204550000000  0.4605500000000  0.7089030000000 1.0
C      1  0.3247850000000  0.5556080000000  0.2910970000000 1.0
C      1  0.3760630000000  0.6357650000000  0.7089030000000 1.0
C      1  0.4605500000000  0.6795450000000  0.2910970000000 1.0
C      1  0.5556080000000  0.6752150000000  0.7089030000000 1.0
C      1  0.6357650000000  0.6239370000000  0.2910970000000 1.0
C      1  0.6795450000000  0.5394500000000  0.7089030000000 1.0
C      1  0.6752150000000  0.4443920000000  0.2910970000000 1.0
C      1  0.6239370000000  0.3642350000000  0.7089030000000 1.0
C      1  0.5394500000000  0.3204550000000  0.2910970000000 1.0
C      1  0.7021240000000  0.5625620000000  0.6048190000000 1.0
C      1  0.7063260000000  0.4531170000000  0.3951810000000 1.0
C      1  0.6552430000000  0.3562370000000  0.6048190000000 1.0
C      1  0.5625620000000  0.2978760000000  0.3951810000000 1.0
C      1  0.4531170000000  0.2936740000000  0.6048190000000 1.0
C      1  0.3562370000000  0.3447570000000  0.3951810000000 1.0
C      1  0.2978760000000  0.4374380000000  0.6048190000000 1.0
C      1  0.2936740000000  0.5468830000000  0.3951810000000 1.0
C      1  0.3447570000000  0.6437630000000  0.6048190000000 1.0
C      1  0.4374380000000  0.7021240000000  0.3951810000000 1.0
C      1  0.5468830000000  0.7063260000000  0.6048190000000 1.0
C      1  0.6437630000000  0.6552430000000  0.3951810000000 1.0
C      1  0.5923510000000  0.5204280000000  0.7371530000000 1.0
C      1  0.5901920000000  0.4715160000000  0.2628470000000 1.0
C      1  0.5638670000000  0.4302360000000  0.7371530000000 1.0
C      1  0.5204280000000  0.4076490000000  0.2628470000000 1.0
C      1  0.4715160000000  0.4098080000000  0.7371530000000 1.0
C      1  0.4302360000000  0.4361330000000  0.2628470000000 1.0
C      1  0.4076490000000  0.4795720000000  0.7371530000000 1.0
C      1  0.4098080000000  0.5284840000000  0.2628470000000 1.0
C      1  0.4361330000000  0.5697640000000  0.7371530000000 1.0
C      1  0.4795720000000  0.5923510000000  0.2628470000000 1.0
C      1  0.5284840000000  0.5901920000000  0.7371530000000 1.0
C      1  0.5697640000000  0.5638670000000  0.2628470000000 1.0
C      1  0.7816290000000  0.5541220000000  0.6775980000000 1.0
C      1  0.7709580000000  0.4060540000000  0.3224010000000 1.0
C      1  0.6876880000000  0.2831640000000  0.6775990000000 1.0
C      1  0.5541220000000  0.2183710000000  0.3224020000000 1.0
C      1  0.4060540000000  0.2290420000000  0.6775990000000 1.0
C      1  0.2831640000000  0.3123120000000  0.3224010000000 1.0
C      1  0.2183710000000  0.4458780000000  0.6775980000000 1.0
C      1  0.2290420000000  0.5939460000000  0.3224010000000 1.0
C      1  0.3123120000000  0.7168360000000  0.6775990000000 1.0
C      1  0.4458780000000  0.7816290000000  0.3224020000000 1.0
C      1  0.5939460000000  0.7709580000000  0.6775990000000 1.0
C      1  0.7168360000000  0.6876880000000  0.3224010000000 1.0
C      1  0.5505540000000  0.3395540000000  0.4784940000000 1.0
C      1  0.4635580000000  0.3357720000000  0.5215070000000 1.0
C      1  0.3863260000000  0.3759960000000  0.4784930000000 1.0
C      1  0.3395540000000  0.4494460000000  0.5215060000000 1.0
C      1  0.3357720000000  0.5364420000000  0.4784930000000 1.0
C      1  0.3759960000000  0.6136740000000  0.5215070000000 1.0
C      1  0.4494460000000  0.6604460000000  0.4784940000000 1.0
C      1  0.5364420000000  0.6642280000000  0.5215070000000 1.0
C      1  0.6136740000000  0.6240040000000  0.4784930000000 1.0
C      1  0.6604460000000  0.5505540000000  0.5215060000000 1.0
C      1  0.6642280000000  0.4635580000000  0.4784930000000 1.0
C      1  0.6240040000000  0.3863260000000  0.5215070000000 1.0
END
