TITL C-3036480-97-411 1.38900499570885e-05 3375 -348.577643841255 0 0 60 (C3) n - 1
REM
REM in /home/bkarasulu/work/CARBON/AIRSS/Generating-Clusters/REBO/Higher-Symm/Only-C60
REM
REM
REM
REM
REM
REM ./C.cell (a2850807a9bf4ad07a5b6933b78d9264)
REM AIRSS Version 0.9.1 bugfix July 2018 build 013d7b7c2542+ Fri, 06 Jul 2018 19:26:36 +0100
REM compiler GCC version 9.2.1 20190827 (Red Hat 9.2.1-1)
REM options -cpp -mtune=generic -march=x86-64 -g -O0 -fpre-include=/usr/include/finclude/math-vector-fortran.h
REM seed -169829231 856023094 -571947219 -1627927082 139381200 -485071285 490265076 1712233172 13351243 -163666730 -1781483661 -455608116 1575965607 1530803458 -690696698 -1799209502 -2052991632 628909648 -936146208 -309020808 -433367473 -624836778 -1084080727 -1506362580 -1124565167 1314386429 -718499555 -565971186 691835307 2032564073 553096185 584726819 -1478107227
REM
CELL 1.54180   15.00000   15.00000   15.00000   90.00000   90.00000   90.00000
LATT -1
SFAC C  
C      1  0.3807410000000  0.5385340000000  0.6822140000000 1.0
C      1  0.3807290000000  0.3229400000000  0.4422570000000 1.0
C      1  0.3807490000000  0.6385470000000  0.3755260000000 1.0
C      1  0.7270130000000  0.5969320000000  0.5285510000000 1.0
C      1  0.7270030000000  0.4267890000000  0.5696840000000 1.0
C      1  0.7270070000000  0.4762380000000  0.4017690000000 1.0
C      1  0.6857230000000  0.6874710000000  0.5506520000000 1.0
C      1  0.6857030000000  0.3623830000000  0.6370400000000 1.0
C      1  0.6857100000000  0.4501130000000  0.3123120000000 1.0
C      1  0.3639220000000  0.3886150000000  0.5968150000000 1.0
C      1  0.3639280000000  0.4718590000000  0.3551220000000 1.0
C      1  0.3639370000000  0.6395500000000  0.5480610000000 1.0
C      1  0.4661140000000  0.2813120000000  0.3801900000000 1.0
C      1  0.4661400000000  0.7131050000000  0.3705140000000 1.0
C      1  0.4661250000000  0.5055890000000  0.7492950000000 1.0
C      1  0.5937230000000  0.4019820000000  0.6912310000000 1.0
C      1  0.5937240000000  0.3833900000000  0.3195040000000 1.0
C      1  0.5937430000000  0.7146110000000  0.4892670000000 1.0
C      1  0.5121870000000  0.6382930000000  0.6583710000000 1.0
C      1  0.5121670000000  0.2936990000000  0.5405810000000 1.0
C      1  0.5121840000000  0.5680050000000  0.3010490000000 1.0
C      1  0.5032860000000  0.7551010000000  0.4690310000000 1.0
C      1  0.5032630000000  0.3992690000000  0.7364090000000 1.0
C      1  0.5032620000000  0.3456290000000  0.2945600000000 1.0
C      1  0.2919300000000  0.3654370000000  0.4363280000000 1.0
C      1  0.2919460000000  0.6224420000000  0.4152890000000 1.0
C      1  0.2919370000000  0.5121620000000  0.6483790000000 1.0
C      1  0.4984670000000  0.4357390000000  0.5043350000000 1.0
C      1  0.4984730000000  0.5283760000000  0.4421810000000 1.0
C      1  0.4984730000000  0.5358850000000  0.5534840000000 1.0
C      1  0.6970010000000  0.5724560000000  0.4340240000000 1.0
C      1  0.6969970000000  0.5208920000000  0.5957480000000 1.0
C      1  0.6969910000000  0.4066160000000  0.4702310000000 1.0
C      1  0.5435620000000  0.2760480000000  0.4470440000000 1.0
C      1  0.5435860000000  0.6578330000000  0.3325320000000 1.0
C      1  0.5435780000000  0.5661110000000  0.7204240000000 1.0
C      1  0.6224780000000  0.5049680000000  0.6800760000000 1.0
C      1  0.6224700000000  0.3415550000000  0.4142720000000 1.0
C      1  0.6224890000000  0.6534550000000  0.4056540000000 1.0
C      1  0.3651160000000  0.4385160000000  0.2496060000000 1.0
C      1  0.3651330000000  0.7476010000000  0.5719430000000 1.0
C      1  0.3651060000000  0.3139070000000  0.6784490000000 1.0
C      1  0.4273170000000  0.3577590000000  0.5260660000000 1.0
C      1  0.4273290000000  0.5485520000000  0.3637780000000 1.0
C      1  0.4273310000000  0.5937010000000  0.6101540000000 1.0
C      1  0.4158330000000  0.3806090000000  0.3578650000000 1.0
C      1  0.4158510000000  0.6827950000000  0.4676660000000 1.0
C      1  0.4158350000000  0.4366110000000  0.6744660000000 1.0
C      1  0.5878790000000  0.6679840000000  0.5923560000000 1.0
C      1  0.5878580000000  0.3360180000000  0.5993060000000 1.0
C      1  0.5878700000000  0.4959820000000  0.3083400000000 1.0
C      1  0.2977530000000  0.4682370000000  0.5574230000000 1.0
C      1  0.2977530000000  0.4661690000000  0.4437700000000 1.0
C      1  0.2977590000000  0.5656290000000  0.4988050000000 1.0
C      1  0.4287570000000  0.3877120000000  0.2255330000000 1.0
C      1  0.4287800000000  0.7938460000000  0.5399850000000 1.0
C      1  0.4287500000000  0.3184550000000  0.7344810000000 1.0
C      1  0.5911800000000  0.5460410000000  0.4051520000000 1.0
C      1  0.5911800000000  0.5591120000000  0.5873020000000 1.0
C      1  0.5911710000000  0.3948300000000  0.5075470000000 1.0
END
