TITL C-3036480-97-1084 4.86583983310983e-06 3375 -333.401368342806 0 0 60 (D4) n - 1
REM
REM in /home/bkarasulu/work/CARBON/AIRSS/Generating-Clusters/REBO/Higher-Symm/Only-C60
REM
REM
REM
REM
REM
REM ./C.cell (a2850807a9bf4ad07a5b6933b78d9264)
REM AIRSS Version 0.9.1 bugfix July 2018 build 013d7b7c2542+ Fri, 06 Jul 2018 19:26:36 +0100
REM compiler GCC version 9.2.1 20190827 (Red Hat 9.2.1-1)
REM options -cpp -mtune=generic -march=x86-64 -g -O0 -fpre-include=/usr/include/finclude/math-vector-fortran.h
REM seed -1453056559 -1533152702 1821356770 -131153197 1433272602 -1433303997 -1233004828 864446706 -911513483 570985835 62519717 -407045529 -1800057584 305085351 2039457642 175407803 578290347 1119938366 168641535 1756707195 1980839813 1053052996 699209477 1780508932 -32902151 2135856953 729492319 1561318931 -1216228914 -1746930221 121344634 959370167 932003114
REM
CELL 1.54180   15.00000   15.00000   15.00000   90.00000   90.00000   90.00000
LATT -1
SFAC C  
C      1  0.3060100000000  0.3792240000000  0.3550100000000 1.0
C      1  0.6449910000000  0.3792250000000  0.3060090000000 1.0
C      1  0.6939900000000  0.3792240000000  0.6449900000000 1.0
C      1  0.3550090000000  0.3792250000000  0.6939910000000 1.0
C      1  0.6939900000000  0.6294550000000  0.3550100000000 1.0
C      1  0.3550080000000  0.6294540000000  0.3060090000000 1.0
C      1  0.3060110000000  0.6294550000000  0.6449900000000 1.0
C      1  0.6449920000000  0.6294540000000  0.6939910000000 1.0
C      1  0.5522680000000  0.6740510000000  0.5581510000000 1.0
C      1  0.4418520000000  0.6740510000000  0.5522650000000 1.0
C      1  0.4477320000000  0.6740510000000  0.4418490000000 1.0
C      1  0.5581480000000  0.6740510000000  0.4477350000000 1.0
C      1  0.4477320000000  0.3346280000000  0.5581510000000 1.0
C      1  0.5581480000000  0.3346280000000  0.5522660000000 1.0
C      1  0.5522680000000  0.3346280000000  0.4418490000000 1.0
C      1  0.4418520000000  0.3346280000000  0.4477340000000 1.0
C      1  0.7627080000000  0.4775880000000  0.4569040000000 1.0
C      1  0.5430960000000  0.4775870000000  0.7627080000000 1.0
C      1  0.2372920000000  0.4775880000000  0.5430960000000 1.0
C      1  0.4569040000000  0.4775870000000  0.2372920000000 1.0
C      1  0.2372920000000  0.5310910000000  0.4569040000000 1.0
C      1  0.4569040000000  0.5310920000000  0.7627080000000 1.0
C      1  0.7627080000000  0.5310910000000  0.5430960000000 1.0
C      1  0.5430960000000  0.5310920000000  0.2372920000000 1.0
C      1  0.3907310000000  0.4963620000000  0.3274970000000 1.0
C      1  0.6725030000000  0.4963640000000  0.3907320000000 1.0
C      1  0.6092690000000  0.4963620000000  0.6725030000000 1.0
C      1  0.3274970000000  0.4963640000000  0.6092690000000 1.0
C      1  0.6092690000000  0.5123170000000  0.3274970000000 1.0
C      1  0.3274970000000  0.5123150000000  0.3907310000000 1.0
C      1  0.3907310000000  0.5123170000000  0.6725030000000 1.0
C      1  0.6725030000000  0.5123150000000  0.6092690000000 1.0
C      1  0.6551300000000  0.6631770000000  0.6008650000000 1.0
C      1  0.3991370000000  0.6631780000000  0.6551280000000 1.0
C      1  0.3448700000000  0.6631770000000  0.3991350000000 1.0
C      1  0.6008630000000  0.6631780000000  0.3448720000000 1.0
C      1  0.3448710000000  0.3455020000000  0.6008640000000 1.0
C      1  0.6008630000000  0.3455010000000  0.6551280000000 1.0
C      1  0.6551290000000  0.3455020000000  0.3991360000000 1.0
C      1  0.3991370000000  0.3455010000000  0.3448720000000 1.0
C      1  0.4557050000000  0.3996770000000  0.6484700000000 1.0
C      1  0.3515310000000  0.3996760000000  0.4557060000000 1.0
C      1  0.5442950000000  0.3996770000000  0.3515300000000 1.0
C      1  0.6484690000000  0.3996760000000  0.5442940000000 1.0
C      1  0.5442950000000  0.6090020000000  0.6484700000000 1.0
C      1  0.6484690000000  0.6090030000000  0.4557060000000 1.0
C      1  0.4557050000000  0.6090020000000  0.3515300000000 1.0
C      1  0.3515310000000  0.6090030000000  0.5442940000000 1.0
C      1  0.2906770000000  0.6184410000000  0.4617010000000 1.0
C      1  0.5382980000000  0.6184420000000  0.2906770000000 1.0
C      1  0.7093230000000  0.6184410000000  0.5382990000000 1.0
C      1  0.4617020000000  0.6184420000000  0.7093230000000 1.0
C      1  0.7093230000000  0.3902380000000  0.4617010000000 1.0
C      1  0.4617020000000  0.3902370000000  0.2906770000000 1.0
C      1  0.2906770000000  0.3902380000000  0.5382990000000 1.0
C      1  0.5382980000000  0.3902370000000  0.7093230000000 1.0
C      1  0.5000000000000  0.5043400000000  0.6400910000000 1.0
C      1  0.3599090000000  0.5043390000000  0.5000000000000 1.0
C      1  0.5000000000000  0.5043400000000  0.3599090000000 1.0
C      1  0.6400910000000  0.5043390000000  0.5000000000000 1.0
END
