TITL C-3036480-97-741 -1.21495252479701e-05 3375 -363.345781398143 0 0 60 (D6d) n - 1
REM
REM in /home/bkarasulu/work/CARBON/AIRSS/Generating-Clusters/REBO/Higher-Symm/Only-C60
REM
REM
REM
REM
REM
REM ./C.cell (a2850807a9bf4ad07a5b6933b78d9264)
REM AIRSS Version 0.9.1 bugfix July 2018 build 013d7b7c2542+ Fri, 06 Jul 2018 19:26:36 +0100
REM compiler GCC version 9.2.1 20190827 (Red Hat 9.2.1-1)
REM options -cpp -mtune=generic -march=x86-64 -g -O0 -fpre-include=/usr/include/finclude/math-vector-fortran.h
REM seed 2044093304 -606660889 1359206230 739326919 -1875351045 1098627403 -1706042150 -1954275472 -1438292757 582700208 -873417856 -762567660 1158288339 1047214113 1992309096 636987481 -302025196 -1675507794 -469003418 -1455285301 1143324119 881953414 2028146405 -520927974 -1323822934 1875422356 2111189809 -1742929693 -246776186 2037338533 654208513 312916458 64571147
REM
CELL 1.54180   15.00000   15.00000   15.00000   90.00000   90.00000   90.00000
LATT -1
SFAC C  
C      1  0.3306790000000  0.6142660000000  0.5952710000000 1.0
C      1  0.4104970000000  0.6836180000000  0.4047280000000 1.0
C      1  0.5142970000000  0.7037700000000  0.5952710000000 1.0
C      1  0.6142660000000  0.6693210000000  0.4047290000000 1.0
C      1  0.6836180000000  0.5895030000000  0.5952720000000 1.0
C      1  0.7037700000000  0.4857030000000  0.4047290000000 1.0
C      1  0.6693210000000  0.3857340000000  0.5952710000000 1.0
C      1  0.5895030000000  0.3163820000000  0.4047280000000 1.0
C      1  0.4857030000000  0.2962300000000  0.5952710000000 1.0
C      1  0.3857340000000  0.3306790000000  0.4047290000000 1.0
C      1  0.3163820000000  0.4104970000000  0.5952720000000 1.0
C      1  0.2962300000000  0.5142970000000  0.4047290000000 1.0
C      1  0.5944300000000  0.4933740000000  0.6866740000000 1.0
C      1  0.5784660000000  0.4470470000000  0.3133260000000 1.0
C      1  0.5414770000000  0.4149090000000  0.6866740000000 1.0
C      1  0.4933740000000  0.4055700000000  0.3133260000000 1.0
C      1  0.4470470000000  0.4215340000000  0.6866740000000 1.0
C      1  0.4149090000000  0.4585230000000  0.3133260000000 1.0
C      1  0.4055700000000  0.5066260000000  0.6866740000000 1.0
C      1  0.4215340000000  0.5529530000000  0.3133260000000 1.0
C      1  0.4585230000000  0.5850910000000  0.6866740000000 1.0
C      1  0.5066260000000  0.5944300000000  0.3133260000000 1.0
C      1  0.5529530000000  0.5784660000000  0.6866740000000 1.0
C      1  0.5850910000000  0.5414770000000  0.3133260000000 1.0
C      1  0.6674750000000  0.5816340000000  0.3697490000000 1.0
C      1  0.6858540000000  0.4869600000000  0.6302510000000 1.0
C      1  0.6544340000000  0.3957800000000  0.3697490000000 1.0
C      1  0.5816340000000  0.3325250000000  0.6302510000000 1.0
C      1  0.4869600000000  0.3141460000000  0.3697490000000 1.0
C      1  0.3957800000000  0.3455660000000  0.6302510000000 1.0
C      1  0.3325250000000  0.4183660000000  0.3697490000000 1.0
C      1  0.3141460000000  0.5130400000000  0.6302510000000 1.0
C      1  0.3455660000000  0.6042200000000  0.3697490000000 1.0
C      1  0.4183660000000  0.6674750000000  0.6302510000000 1.0
C      1  0.5130400000000  0.6858540000000  0.3697490000000 1.0
C      1  0.6042200000000  0.6544340000000  0.6302510000000 1.0
C      1  0.4218330000000  0.5527510000000  0.5626950000000 1.0
C      1  0.4586810000000  0.5847680000000  0.4373050000000 1.0
C      1  0.5066000000000  0.5940710000000  0.5626950000000 1.0
C      1  0.5527510000000  0.5781670000000  0.4373050000000 1.0
C      1  0.5847680000000  0.5413190000000  0.5626950000000 1.0
C      1  0.5940710000000  0.4934000000000  0.4373050000000 1.0
C      1  0.5781670000000  0.4472490000000  0.5626950000000 1.0
C      1  0.5413190000000  0.4152320000000  0.4373050000000 1.0
C      1  0.4934000000000  0.4059290000000  0.5626950000000 1.0
C      1  0.4472490000000  0.4218330000000  0.4373050000000 1.0
C      1  0.4152320000000  0.4586810000000  0.5626950000000 1.0
C      1  0.4059290000000  0.5066000000000  0.4373050000000 1.0
C      1  0.6166460000000  0.6728480000000  0.5180740000000 1.0
C      1  0.6874430000000  0.5913670000000  0.4819260000000 1.0
C      1  0.7080140000000  0.4854050000000  0.5180740000000 1.0
C      1  0.6728480000000  0.3833540000000  0.4819260000000 1.0
C      1  0.5913670000000  0.3125570000000  0.5180740000000 1.0
C      1  0.4854050000000  0.2919860000000  0.4819260000000 1.0
C      1  0.3833540000000  0.3271520000000  0.5180740000000 1.0
C      1  0.3125570000000  0.4086330000000  0.4819260000000 1.0
C      1  0.2919860000000  0.5145950000000  0.5180740000000 1.0
C      1  0.3271520000000  0.6166460000000  0.4819260000000 1.0
C      1  0.4086330000000  0.6874430000000  0.5180740000000 1.0
C      1  0.5145950000000  0.7080140000000  0.4819260000000 1.0
END
