TITL C-3036486-2224-282 0.00476396409830417 3375 -343.184341600601 0 0 60 (C1) n - 1
REM
REM in /home/bkarasulu/work/CARBON/AIRSS/Generating-Clusters/REBO/Higher-Symm/Only-C60
REM
REM
REM
REM
REM
REM ./C.cell (a2850807a9bf4ad07a5b6933b78d9264)
REM AIRSS Version 0.9.1 bugfix July 2018 build 013d7b7c2542+ Fri, 06 Jul 2018 19:26:36 +0100
REM compiler GCC version 9.2.1 20190827 (Red Hat 9.2.1-1)
REM options -cpp -mtune=generic -march=x86-64 -g -O0 -fpre-include=/usr/include/finclude/math-vector-fortran.h
REM seed -570756443 -748614862 -2114987552 609679300 224907001 -397420118 1975252340 1152618729 -880601912 -764540709 1109552711 -95520070 -2123063095 -1857401535 -1202420089 -286988688 -25702929 696975470 1995150644 -97428964 -1426111667 -392259324 -834248314 -625749757 1894642423 -426259676 -536184544 670369756 -2045475270 -499361624 1672114323 485501122 1659216952
REM
CELL 1.54180   15.00000   15.00000   15.00000   90.00000   90.00000   90.00000
LATT -1
SFAC C  
C      1  0.6255560000000  0.6199390000000  0.4887560000000 1.0
C      1  0.6999290000000  0.6726770000000  0.4202430000000 1.0
C      1  0.5110500000000  0.2961550000000  0.3517060000000 1.0
C      1  0.3807510000000  0.2527870000000  0.4456420000000 1.0
C      1  0.3038030000000  0.4512110000000  0.4319370000000 1.0
C      1  0.7437440000000  0.5801490000000  0.4452220000000 1.0
C      1  0.5045660000000  0.3643230000000  0.4391590000000 1.0
C      1  0.3575200000000  0.3711310000000  0.3902860000000 1.0
C      1  0.4013770000000  0.3372930000000  0.5993220000000 1.0
C      1  0.6706680000000  0.5675870000000  0.7293340000000 1.0
C      1  0.4758330000000  0.4582820000000  0.7396400000000 1.0
C      1  0.5407430000000  0.5922280000000  0.2472580000000 1.0
C      1  0.5099290000000  0.5019290000000  0.2358320000000 1.0
C      1  0.2924300000000  0.5238380000000  0.3705270000000 1.0
C      1  0.6484680000000  0.3820730000000  0.3089680000000 1.0
C      1  0.4192620000000  0.3792710000000  0.7639520000000 1.0
C      1  0.5567130000000  0.4453760000000  0.3809490000000 1.0
C      1  0.6878270000000  0.5199090000000  0.3902340000000 1.0
C      1  0.5963330000000  0.6935070000000  0.6427960000000 1.0
C      1  0.6387730000000  0.6494190000000  0.7094580000000 1.0
C      1  0.3823110000000  0.4907250000000  0.6961240000000 1.0
C      1  0.2429790000000  0.5669960000000  0.6597690000000 1.0
C      1  0.6790070000000  0.4813110000000  0.5786640000000 1.0
C      1  0.3340570000000  0.5759860000000  0.6895760000000 1.0
C      1  0.5772330000000  0.6804010000000  0.5554940000000 1.0
C      1  0.4214760000000  0.6236020000000  0.3733050000000 1.0
C      1  0.4981740000000  0.3726110000000  0.6047070000000 1.0
C      1  0.6113050000000  0.3187380000000  0.3738440000000 1.0
C      1  0.6929070000000  0.3942870000000  0.7224470000000 1.0
C      1  0.5210050000000  0.6168350000000  0.3532360000000 1.0
C      1  0.2302180000000  0.5314830000000  0.5755890000000 1.0
C      1  0.5678340000000  0.4356280000000  0.2754710000000 1.0
C      1  0.4230480000000  0.3149180000000  0.5012310000000 1.0
C      1  0.3675620000000  0.5616640000000  0.3250050000000 1.0
C      1  0.5804790000000  0.5509980000000  0.4106630000000 1.0
C      1  0.3816290000000  0.6459520000000  0.6368400000000 1.0
C      1  0.6678850000000  0.7065270000000  0.3387440000000 1.0
C      1  0.5565490000000  0.5011800000000  0.7130750000000 1.0
C      1  0.3135240000000  0.4826590000000  0.5325010000000 1.0
C      1  0.4238110000000  0.4515940000000  0.3746470000000 1.0
C      1  0.7085490000000  0.5636290000000  0.5431710000000 1.0
C      1  0.3951260000000  0.5504560000000  0.5142830000000 1.0
C      1  0.3597770000000  0.6944110000000  0.5630440000000 1.0
C      1  0.5936500000000  0.6746380000000  0.2920790000000 1.0
C      1  0.3603740000000  0.3518510000000  0.6995420000000 1.0
C      1  0.4101700000000  0.2840350000000  0.3525780000000 1.0
C      1  0.3359030000000  0.7469670000000  0.4767700000000 1.0
C      1  0.4586510000000  0.4953310000000  0.4542630000000 1.0
C      1  0.6577250000000  0.4702040000000  0.6820020000000 1.0
C      1  0.6261740000000  0.4366450000000  0.5110460000000 1.0
C      1  0.5344140000000  0.5780290000000  0.6672000000000 1.0
C      1  0.4466130000000  0.5687960000000  0.6094570000000 1.0
C      1  0.3835900000000  0.6441690000000  0.4640310000000 1.0
C      1  0.5495780000000  0.3316850000000  0.5368980000000 1.0
C      1  0.4231010000000  0.4917080000000  0.2774070000000 1.0
C      1  0.4959770000000  0.4703360000000  0.5989950000000 1.0
C      1  0.6320630000000  0.3409040000000  0.4679240000000 1.0
C      1  0.3410260000000  0.4264340000000  0.6157700000000 1.0
C      1  0.5357560000000  0.4733370000000  0.5089110000000 1.0
C      1  0.7135130000000  0.4432570000000  0.3424760000000 1.0
END
