TITL C-3036482-790-727 0.00103788048280513 3375 -343.145207051928 0 0 60 (C1) n - 1
REM
REM in /home/bkarasulu/work/CARBON/AIRSS/Generating-Clusters/REBO/Higher-Symm/Only-C60
REM
REM
REM
REM
REM
REM ./C.cell (a2850807a9bf4ad07a5b6933b78d9264)
REM AIRSS Version 0.9.1 bugfix July 2018 build 013d7b7c2542+ Fri, 06 Jul 2018 19:26:36 +0100
REM compiler GCC version 9.2.1 20190827 (Red Hat 9.2.1-1)
REM options -cpp -mtune=generic -march=x86-64 -g -O0 -fpre-include=/usr/include/finclude/math-vector-fortran.h
REM seed 1416360745 -2060321113 -112658560 1017415217 1127389781 1577033188 1978184300 -124841283 -469222126 -1621067370 -855053356 -353843166 -734349858 1508238964 459270726 66168072 -1056644447 -1656023261 1566180767 -643839975 -458829121 -1995598896 1369279759 -169275329 580528879 -1138470688 -864889815 -949734407 -2183661 -1410032471 1659660495 -1666301967 -227358374
REM
CELL 1.54180   15.00000   15.00000   15.00000   90.00000   90.00000   90.00000
LATT -1
SFAC C  
C      1  0.2728370000000  0.5090990000000  0.5311970000000 1.0
C      1  0.5946100000000  0.3133100000000  0.5215800000000 1.0
C      1  0.6247260000000  0.6942440000000  0.5263360000000 1.0
C      1  0.4572190000000  0.5956560000000  0.5117710000000 1.0
C      1  0.4236610000000  0.4056920000000  0.5158380000000 1.0
C      1  0.6095060000000  0.4907710000000  0.5106780000000 1.0
C      1  0.3387550000000  0.3424040000000  0.5357450000000 1.0
C      1  0.7076880000000  0.4511000000000  0.5361130000000 1.0
C      1  0.4484640000000  0.7025390000000  0.5341820000000 1.0
C      1  0.5506030000000  0.4803960000000  0.5888350000000 1.0
C      1  0.4955810000000  0.5645320000000  0.6027740000000 1.0
C      1  0.4562680000000  0.4371310000000  0.6035130000000 1.0
C      1  0.5183280000000  0.7061290000000  0.3485600000000 1.0
C      1  0.3153070000000  0.4121460000000  0.3489690000000 1.0
C      1  0.6740640000000  0.3795490000000  0.3490580000000 1.0
C      1  0.5712960000000  0.2542870000000  0.4260120000000 1.0
C      1  0.6769010000000  0.6870320000000  0.4244260000000 1.0
C      1  0.2548740000000  0.5579800000000  0.4291860000000 1.0
C      1  0.4198340000000  0.7571840000000  0.4562820000000 1.0
C      1  0.3100070000000  0.2956220000000  0.4523070000000 1.0
C      1  0.7669700000000  0.4441950000000  0.4570290000000 1.0
C      1  0.4250650000000  0.6765760000000  0.3272510000000 1.0
C      1  0.3857360000000  0.3447660000000  0.3278020000000 1.0
C      1  0.6958050000000  0.4747100000000  0.3253890000000 1.0
C      1  0.5110200000000  0.5631970000000  0.4277580000000 1.0
C      1  0.4454070000000  0.4707530000000  0.4331520000000 1.0
C      1  0.5568870000000  0.4608570000000  0.4237120000000 1.0
C      1  0.4946520000000  0.2590930000000  0.5342830000000 1.0
C      1  0.7179620000000  0.6281980000000  0.5359290000000 1.0
C      1  0.2879050000000  0.6222440000000  0.5406090000000 1.0
C      1  0.6432580000000  0.5698660000000  0.6835380000000 1.0
C      1  0.4058450000000  0.5769680000000  0.6669350000000 1.0
C      1  0.4722560000000  0.3548800000000  0.6810300000000 1.0
C      1  0.3684190000000  0.5595490000000  0.4944540000000 1.0
C      1  0.4984940000000  0.3524830000000  0.4713530000000 1.0
C      1  0.6255970000000  0.5859530000000  0.4897450000000 1.0
C      1  0.7472710000000  0.6091760000000  0.4281580000000 1.0
C      1  0.2855510000000  0.6574920000000  0.4331810000000 1.0
C      1  0.4676980000000  0.2301800000000  0.4288860000000 1.0
C      1  0.5845660000000  0.3629970000000  0.3957150000000 1.0
C      1  0.5768050000000  0.6400790000000  0.3997570000000 1.0
C      1  0.3445080000000  0.4936510000000  0.4029020000000 1.0
C      1  0.6612420000000  0.4608270000000  0.6594710000000 1.0
C      1  0.4616680000000  0.6771970000000  0.6632490000000 1.0
C      1  0.3602480000000  0.3684310000000  0.6636880000000 1.0
C      1  0.7512050000000  0.5208620000000  0.3948020000000 1.0
C      1  0.3590290000000  0.7042540000000  0.3971240000000 1.0
C      1  0.3889460000000  0.2707030000000  0.3947640000000 1.0
C      1  0.2533000000000  0.3538470000000  0.3985070000000 1.0
C      1  0.7514050000000  0.3623020000000  0.4074740000000 1.0
C      1  0.4961540000000  0.7853000000000  0.4029990000000 1.0
C      1  0.3007680000000  0.4339660000000  0.5908840000000 1.0
C      1  0.6379800000000  0.3772110000000  0.5834750000000 1.0
C      1  0.5448650000000  0.7049580000000  0.5882120000000 1.0
C      1  0.5663210000000  0.4002630000000  0.6680670000000 1.0
C      1  0.5628390000000  0.6246900000000  0.6656280000000 1.0
C      1  0.3748210000000  0.4817680000000  0.6625900000000 1.0
C      1  0.3681980000000  0.6582910000000  0.5996850000000 1.0
C      1  0.4212980000000  0.2963700000000  0.5984130000000 1.0
C      1  0.7115030000000  0.5440940000000  0.5990380000000 1.0
END
