TITL C-3036485-3770-806 1.85866106318851e-05 3375 -349.943855732581 0 0 60 (D5d) n - 1
REM
REM in /home/bkarasulu/work/CARBON/AIRSS/Generating-Clusters/REBO/Higher-Symm/Only-C60
REM
REM
REM
REM
REM
REM ./C.cell (a2850807a9bf4ad07a5b6933b78d9264)
REM AIRSS Version 0.9.1 bugfix July 2018 build 013d7b7c2542+ Fri, 06 Jul 2018 19:26:36 +0100
REM compiler GCC version 9.2.1 20190827 (Red Hat 9.2.1-1)
REM options -cpp -mtune=generic -march=x86-64 -g -O0 -fpre-include=/usr/include/finclude/math-vector-fortran.h
REM seed 1393894207 -1820421747 -1298221129 -997420056 738479194 -39686922 -1723256789 1679411503 -895991266 -1411903370 -734709099 -1963106300 -674656134 -522614288 -542376254 -197301480 -1461040603 -892711095 1983115922 1164053348 -735232209 -1451945260 1877945197 2094626241 -2127089205 -1836618868 -1941802968 565184228 -715473010 -682783838 976348923 -1209799078 183215790
REM
CELL 1.54180   15.00000   15.00000   15.00000   90.00000   90.00000   90.00000
LATT -1
SFAC C  
C      1  0.4605310000000  0.2581690000000  0.5626330000000 1.0
C      1  0.5394750000000  0.3411700000000  0.6928150000000 1.0
C      1  0.4605310000000  0.4848370000000  0.7493490000000 1.0
C      1  0.5394730000000  0.6342970000000  0.7106390000000 1.0
C      1  0.4605280000000  0.7324590000000  0.5914740000000 1.0
C      1  0.5394690000000  0.7418310000000  0.4373670000000 1.0
C      1  0.4605250000000  0.6588300000000  0.3071850000000 1.0
C      1  0.5394690000000  0.5151630000000  0.2506510000000 1.0
C      1  0.4605270000000  0.3657030000000  0.2893610000000 1.0
C      1  0.5394720000000  0.2675410000000  0.4085260000000 1.0
C      1  0.4605250000000  0.5373550000000  0.2530000000000 1.0
C      1  0.5394700000000  0.3850380000000  0.2782150000000 1.0
C      1  0.4605290000000  0.2766310000000  0.3881460000000 1.0
C      1  0.5394740000000  0.2535450000000  0.5408000000000 1.0
C      1  0.4605320000000  0.3245960000000  0.6778720000000 1.0
C      1  0.5394750000000  0.4626450000000  0.7470000000000 1.0
C      1  0.4605300000000  0.6149620000000  0.7217850000000 1.0
C      1  0.5394710000000  0.7233690000000  0.6118540000000 1.0
C      1  0.4605260000000  0.7464550000000  0.4592000000000 1.0
C      1  0.5394680000000  0.6754040000000  0.3221280000000 1.0
C      1  0.6104650000000  0.6465470000000  0.6321340000000 1.0
C      1  0.3895340000000  0.6962250000000  0.5207630000000 1.0
C      1  0.6104620000000  0.6709540000000  0.4014570000000 1.0
C      1  0.3895330000000  0.5803820000000  0.3197950000000 1.0
C      1  0.6104630000000  0.4591090000000  0.3069610000000 1.0
C      1  0.3895350000000  0.3534530000000  0.3678660000000 1.0
C      1  0.6104660000000  0.3037750000000  0.4792370000000 1.0
C      1  0.3895380000000  0.3290460000000  0.5985430000000 1.0
C      1  0.6104670000000  0.4196180000000  0.6802050000000 1.0
C      1  0.3895370000000  0.5408910000000  0.6930390000000 1.0
C      1  0.7065880000000  0.6252840000000  0.4277810000000 1.0
C      1  0.2934080000000  0.5589070000000  0.3679390000000 1.0
C      1  0.7065880000000  0.4700340000000  0.3585310000000 1.0
C      1  0.2934100000000  0.3926020000000  0.4031670000000 1.0
C      1  0.7065910000000  0.3561980000000  0.4847820000000 1.0
C      1  0.2934120000000  0.3747160000000  0.5722190000000 1.0
C      1  0.7065920000000  0.4410930000000  0.6320610000000 1.0
C      1  0.2934120000000  0.5299660000000  0.6414690000000 1.0
C      1  0.7065900000000  0.6073980000000  0.5968330000000 1.0
C      1  0.2934090000000  0.6438020000000  0.5152180000000 1.0
C      1  0.2242140000000  0.4609490000000  0.5875450000000 1.0
C      1  0.7757890000000  0.5198660000000  0.5937720000000 1.0
C      1  0.2242130000000  0.5711880000000  0.5641920000000 1.0
C      1  0.7757870000000  0.5953250000000  0.5100830000000 1.0
C      1  0.2242110000000  0.5830450000000  0.4521330000000 1.0
C      1  0.7757860000000  0.5390510000000  0.4124550000000 1.0
C      1  0.2242110000000  0.4801340000000  0.4062280000000 1.0
C      1  0.7757870000000  0.4288120000000  0.4358080000000 1.0
C      1  0.2242130000000  0.4046750000000  0.4899170000000 1.0
C      1  0.7757890000000  0.4169550000000  0.5478670000000 1.0
C      1  0.3887090000000  0.5179290000000  0.5846420000000 1.0
C      1  0.6112930000000  0.5642570000000  0.5579360000000 1.0
C      1  0.3887070000000  0.5860380000000  0.5091050000000 1.0
C      1  0.6112910000000  0.5749590000000  0.4567910000000 1.0
C      1  0.3887070000000  0.5352450000000  0.4209860000000 1.0
C      1  0.6112910000000  0.4820710000000  0.4153580000000 1.0
C      1  0.3887070000000  0.4357430000000  0.4420640000000 1.0
C      1  0.6112930000000  0.4139620000000  0.4908950000000 1.0
C      1  0.3887090000000  0.4250410000000  0.5432090000000 1.0
C      1  0.6112930000000  0.4647550000000  0.5790140000000 1.0
END
