TITL C-3036481-494-424 -0.000486648385790866 3375 -344.313803636385 0 0 60 (C1) n - 1
REM
REM in /home/bkarasulu/work/CARBON/AIRSS/Generating-Clusters/REBO/Higher-Symm/Only-C60
REM
REM
REM
REM
REM
REM ./C.cell (a2850807a9bf4ad07a5b6933b78d9264)
REM AIRSS Version 0.9.1 bugfix July 2018 build 013d7b7c2542+ Fri, 06 Jul 2018 19:26:36 +0100
REM compiler GCC version 9.2.1 20190827 (Red Hat 9.2.1-1)
REM options -cpp -mtune=generic -march=x86-64 -g -O0 -fpre-include=/usr/include/finclude/math-vector-fortran.h
REM seed 1822752281 -981273911 310020267 1169588623 5274339 1162718476 -1756381066 229459515 -161568446 1648199219 -1264591945 1037963179 -1764845186 834352858 1700568165 327711499 2071171857 1031888547 1598777012 819667717 -371361413 1038762388 -938673338 2070906346 -1827599993 2134185426 -649538371 -160165541 -192034213 -1927838151 1518325050 -1669826559 -178731639
REM
CELL 1.54180   15.00000   15.00000   15.00000   90.00000   90.00000   90.00000
LATT -1
SFAC C  
C      1  0.5354780000000  0.3173280000000  0.5850650000000 1.0
C      1  0.4660090000000  0.6791300000000  0.5840530000000 1.0
C      1  0.3497280000000  0.7204200000000  0.4782090000000 1.0
C      1  0.6516140000000  0.2784650000000  0.4773390000000 1.0
C      1  0.3703830000000  0.5260640000000  0.5357290000000 1.0
C      1  0.6262780000000  0.4753460000000  0.5314760000000 1.0
C      1  0.5431240000000  0.2721780000000  0.4891990000000 1.0
C      1  0.4584450000000  0.7263830000000  0.4894840000000 1.0
C      1  0.6884520000000  0.3322620000000  0.5499710000000 1.0
C      1  0.3131230000000  0.6662520000000  0.5505600000000 1.0
C      1  0.6188240000000  0.5115210000000  0.2907520000000 1.0
C      1  0.3855320000000  0.4884820000000  0.2944920000000 1.0
C      1  0.4939250000000  0.5488720000000  0.5789000000000 1.0
C      1  0.5025380000000  0.4456270000000  0.5700210000000 1.0
C      1  0.3648630000000  0.5413800000000  0.6445380000000 1.0
C      1  0.6321600000000  0.4582140000000  0.6391420000000 1.0
C      1  0.6970480000000  0.4922620000000  0.4455010000000 1.0
C      1  0.3035570000000  0.5072670000000  0.4463700000000 1.0
C      1  0.4910110000000  0.5598750000000  0.6829560000000 1.0
C      1  0.5034650000000  0.4560790000000  0.6732020000000 1.0
C      1  0.3837450000000  0.7162660000000  0.3268880000000 1.0
C      1  0.6174270000000  0.2839690000000  0.3258370000000 1.0
C      1  0.6190120000000  0.3582290000000  0.6069860000000 1.0
C      1  0.3828370000000  0.6386430000000  0.6060720000000 1.0
C      1  0.3146450000000  0.6937490000000  0.3896560000000 1.0
C      1  0.6863640000000  0.3055500000000  0.3887370000000 1.0
C      1  0.7585310000000  0.4952470000000  0.6194520000000 1.0
C      1  0.2406530000000  0.5008800000000  0.6192730000000 1.0
C      1  0.4648220000000  0.5791230000000  0.3999570000000 1.0
C      1  0.5332820000000  0.4226720000000  0.3920360000000 1.0
C      1  0.3483750000000  0.4452590000000  0.3689050000000 1.0
C      1  0.6535390000000  0.5545930000000  0.3665980000000 1.0
C      1  0.4349270000000  0.5674350000000  0.3100140000000 1.0
C      1  0.5678320000000  0.4330310000000  0.3038880000000 1.0
C      1  0.4502570000000  0.3333830000000  0.6190410000000 1.0
C      1  0.5509230000000  0.6629460000000  0.6175310000000 1.0
C      1  0.5958110000000  0.3520110000000  0.2634800000000 1.0
C      1  0.4077250000000  0.6471830000000  0.2666630000000 1.0
C      1  0.6458490000000  0.5814370000000  0.4960950000000 1.0
C      1  0.3554610000000  0.4196260000000  0.4987380000000 1.0
C      1  0.4122990000000  0.5998880000000  0.7296950000000 1.0
C      1  0.5750800000000  0.4066540000000  0.7227950000000 1.0
C      1  0.3577300000000  0.3776290000000  0.6688910000000 1.0
C      1  0.6437820000000  0.6206020000000  0.6674860000000 1.0
C      1  0.5369290000000  0.6900950000000  0.4155810000000 1.0
C      1  0.4647560000000  0.3110180000000  0.4166310000000 1.0
C      1  0.4537050000000  0.5807730000000  0.4922940000000 1.0
C      1  0.5443460000000  0.4222800000000  0.4838380000000 1.0
C      1  0.4014720000000  0.3730040000000  0.4126440000000 1.0
C      1  0.6000120000000  0.6275650000000  0.4098880000000 1.0
C      1  0.6876790000000  0.5376120000000  0.6772730000000 1.0
C      1  0.3111680000000  0.4592360000000  0.6794570000000 1.0
C      1  0.6431070000000  0.6500230000000  0.5667590000000 1.0
C      1  0.3587090000000  0.3494930000000  0.5680490000000 1.0
C      1  0.4583510000000  0.7499850000000  0.3777680000000 1.0
C      1  0.5423270000000  0.2516300000000  0.3767020000000 1.0
C      1  0.2341360000000  0.5566750000000  0.5484880000000 1.0
C      1  0.7663270000000  0.4417720000000  0.5473610000000 1.0
C      1  0.2732720000000  0.6131510000000  0.4582630000000 1.0
C      1  0.7272370000000  0.3862770000000  0.4573280000000 1.0
END
