TITL C-3036482-790-1082 -2.05328018327633e-06 3375 -337.243143063417 0 0 60 (D2) n - 1
REM
REM in /home/bkarasulu/work/CARBON/AIRSS/Generating-Clusters/REBO/Higher-Symm/Only-C60
REM
REM
REM
REM
REM
REM ./C.cell (a2850807a9bf4ad07a5b6933b78d9264)
REM AIRSS Version 0.9.1 bugfix July 2018 build 013d7b7c2542+ Fri, 06 Jul 2018 19:26:36 +0100
REM compiler GCC version 9.2.1 20190827 (Red Hat 9.2.1-1)
REM options -cpp -mtune=generic -march=x86-64 -g -O0 -fpre-include=/usr/include/finclude/math-vector-fortran.h
REM seed -443077760 2027292538 -345916264 418897928 1621524707 2027803391 222085702 -1105147711 1164785185 -895615356 1881119465 1207781003 9117661 509664446 -600517219 669810198 -977249987 -564338693 -1185502122 1264287581 -674337912 -1563054610 -252366466 -152257387 -2069508469 1355667953 -1666395262 874566064 578623459 -799741354 -1180697761 107784182 -685361685
REM
CELL 1.54180   15.00000   15.00000   15.00000   90.00000   90.00000   90.00000
LATT -1
SFAC C  
C      1  0.3500660000000  0.6373470000000  0.4842430000000 1.0
C      1  0.6499340000000  0.3626530000000  0.4842430000000 1.0
C      1  0.3500660000000  0.3626530000000  0.5157570000000 1.0
C      1  0.6499340000000  0.6373470000000  0.5157570000000 1.0
C      1  0.4464230000000  0.7285190000000  0.4856250000000 1.0
C      1  0.5535770000000  0.2714810000000  0.4856250000000 1.0
C      1  0.4464230000000  0.2714800000000  0.5143750000000 1.0
C      1  0.5535770000000  0.7285190000000  0.5143750000000 1.0
C      1  0.3266870000000  0.4655140000000  0.5330460000000 1.0
C      1  0.6733130000000  0.5344860000000  0.5330460000000 1.0
C      1  0.3266870000000  0.5344860000000  0.4669540000000 1.0
C      1  0.6733130000000  0.4655140000000  0.4669540000000 1.0
C      1  0.5247750000000  0.4385860000000  0.6044690000000 1.0
C      1  0.4752250000000  0.5614140000000  0.6044690000000 1.0
C      1  0.5247750000000  0.5614140000000  0.3955310000000 1.0
C      1  0.4752250000000  0.4385860000000  0.3955310000000 1.0
C      1  0.3683310000000  0.3588030000000  0.7016160000000 1.0
C      1  0.6316690000000  0.6411970000000  0.7016160000000 1.0
C      1  0.3683310000000  0.6411970000000  0.2983840000000 1.0
C      1  0.6316690000000  0.3588030000000  0.2983840000000 1.0
C      1  0.5703620000000  0.5520650000000  0.7368570000000 1.0
C      1  0.4296380000000  0.4479350000000  0.7368570000000 1.0
C      1  0.5703620000000  0.4479350000000  0.2631430000000 1.0
C      1  0.4296380000000  0.5520650000000  0.2631430000000 1.0
C      1  0.4818240000000  0.6465980000000  0.3033240000000 1.0
C      1  0.5181760000000  0.3534020000000  0.3033240000000 1.0
C      1  0.4818240000000  0.3534020000000  0.6966760000000 1.0
C      1  0.5181760000000  0.6465980000000  0.6966760000000 1.0
C      1  0.4582230000000  0.4485720000000  0.2842890000000 1.0
C      1  0.5417770000000  0.5514280000000  0.2842890000000 1.0
C      1  0.4582230000000  0.5514280000000  0.7157110000000 1.0
C      1  0.5417770000000  0.4485720000000  0.7157110000000 1.0
C      1  0.3016680000000  0.5663240000000  0.2975880000000 1.0
C      1  0.6983320000000  0.4336760000000  0.2975880000000 1.0
C      1  0.3016680000000  0.4336760000000  0.7024120000000 1.0
C      1  0.6983320000000  0.5663240000000  0.7024120000000 1.0
C      1  0.3229700000000  0.4974530000000  0.6369740000000 1.0
C      1  0.6770300000000  0.5025470000000  0.6369740000000 1.0
C      1  0.3229700000000  0.5025470000000  0.3630260000000 1.0
C      1  0.6770300000000  0.4974530000000  0.3630260000000 1.0
C      1  0.6330180000000  0.4156310000000  0.5838050000000 1.0
C      1  0.3669820000000  0.5843690000000  0.5838050000000 1.0
C      1  0.6330180000000  0.5843690000000  0.4161950000000 1.0
C      1  0.3669820000000  0.4156310000000  0.4161950000000 1.0
C      1  0.6065150000000  0.6827390000000  0.6043680000000 1.0
C      1  0.3934850000000  0.3172610000000  0.6043680000000 1.0
C      1  0.6065150000000  0.3172610000000  0.3956320000000 1.0
C      1  0.3934850000000  0.6827390000000  0.3956320000000 1.0
C      1  0.4937920000000  0.7013890000000  0.6072570000000 1.0
C      1  0.5062080000000  0.2986110000000  0.6072570000000 1.0
C      1  0.4937920000000  0.2986110000000  0.3927430000000 1.0
C      1  0.5062080000000  0.7013890000000  0.3927430000000 1.0
C      1  0.3952810000000  0.6904010000000  0.5743000000000 1.0
C      1  0.6047190000000  0.3095990000000  0.5743000000000 1.0
C      1  0.3952810000000  0.3095990000000  0.4257000000000 1.0
C      1  0.6047190000000  0.6904010000000  0.4257000000000 1.0
C      1  0.5778150000000  0.5364540000000  0.5882680000000 1.0
C      1  0.4221850000000  0.4635460000000  0.5882680000000 1.0
C      1  0.5778150000000  0.4635460000000  0.4117320000000 1.0
C      1  0.4221850000000  0.5364540000000  0.4117320000000 1.0
END
