TITL C-3036485-3770-414 1.03995464161205e-05 3375 -365.668468531852 0 0 60 (C5) n - 1
REM
REM in /home/bkarasulu/work/CARBON/AIRSS/Generating-Clusters/REBO/Higher-Symm/Only-C60
REM
REM
REM
REM
REM
REM ./C.cell (a2850807a9bf4ad07a5b6933b78d9264)
REM AIRSS Version 0.9.1 bugfix July 2018 build 013d7b7c2542+ Fri, 06 Jul 2018 19:26:36 +0100
REM compiler GCC version 9.2.1 20190827 (Red Hat 9.2.1-1)
REM options -cpp -mtune=generic -march=x86-64 -g -O0 -fpre-include=/usr/include/finclude/math-vector-fortran.h
REM seed -1691100936 47076086 -8934300 -1669586184 351143778 -548115544 -253766580 841314895 1168770281 1747765290 -532152813 -910083482 850828902 -316969459 818634015 -1111340861 256419986 1918365696 -807984172 1523520751 1069048449 -877554500 -1705977838 -1754631142 1570747218 -1874335903 1349626552 -1356939637 437612120 -183007228 -1111894960 -1841786264 -824057498
REM
CELL 1.54180   15.00000   15.00000   15.00000   90.00000   90.00000   90.00000
LATT -1
SFAC C  
C      1  0.5865670000000  0.7343260000000  0.4620790000000 1.0
C      1  0.5628160000000  0.7343260000000  0.5706120000000 1.0
C      1  0.4522550000000  0.7343260000000  0.5815620000000 1.0
C      1  0.4076760000000  0.7343260000000  0.4797960000000 1.0
C      1  0.4906850000000  0.7343260000000  0.4059520000000 1.0
C      1  0.5865670000000  0.2656740000000  0.4620790000000 1.0
C      1  0.5628160000000  0.2656740000000  0.5706120000000 1.0
C      1  0.4522550000000  0.2656740000000  0.5815620000000 1.0
C      1  0.4076760000000  0.2656740000000  0.4797960000000 1.0
C      1  0.4906850000000  0.2656740000000  0.4059520000000 1.0
C      1  0.6581340000000  0.3100540000000  0.5346980000000 1.0
C      1  0.5158670000000  0.3100540000000  0.6611170000000 1.0
C      1  0.3516720000000  0.3100540000000  0.5648780000000 1.0
C      1  0.3924610000000  0.3100540000000  0.3789800000000 1.0
C      1  0.5818660000000  0.3100540000000  0.3603270000000 1.0
C      1  0.6581340000000  0.6899460000000  0.5346980000000 1.0
C      1  0.5158670000000  0.6899460000000  0.6611170000000 1.0
C      1  0.3516720000000  0.6899460000000  0.5648780000000 1.0
C      1  0.3924610000000  0.6899460000000  0.3789800000000 1.0
C      1  0.5818660000000  0.6899460000000  0.3603270000000 1.0
C      1  0.3733050000000  0.6067660000000  0.3397630000000 1.0
C      1  0.6132440000000  0.6067660000000  0.3299900000000 1.0
C      1  0.6966830000000  0.6067660000000  0.5551650000000 1.0
C      1  0.5083130000000  0.6067660000000  0.7041030000000 1.0
C      1  0.3084550000000  0.6067660000000  0.5709780000000 1.0
C      1  0.3733050000000  0.3932340000000  0.3397630000000 1.0
C      1  0.6132440000000  0.3932340000000  0.3299900000000 1.0
C      1  0.6966830000000  0.3932340000000  0.5551650000000 1.0
C      1  0.5083130000000  0.3932340000000  0.7041030000000 1.0
C      1  0.3084550000000  0.3932340000000  0.5709780000000 1.0
C      1  0.5678400000000  0.4158220000000  0.4550270000000 1.0
C      1  0.5637360000000  0.4158220000000  0.5506220000000 1.0
C      1  0.4715510000000  0.4158220000000  0.5762600000000 1.0
C      1  0.4186820000000  0.4158220000000  0.4965090000000 1.0
C      1  0.4781920000000  0.4158220000000  0.4215830000000 1.0
C      1  0.5678400000000  0.5841780000000  0.4550270000000 1.0
C      1  0.5637360000000  0.5841780000000  0.5506220000000 1.0
C      1  0.4715510000000  0.5841780000000  0.5762600000000 1.0
C      1  0.4186820000000  0.5841780000000  0.4965090000000 1.0
C      1  0.4781920000000  0.5841780000000  0.4215830000000 1.0
C      1  0.6390520000000  0.5533510000000  0.6215690000000 1.0
C      1  0.4273510000000  0.5533510000000  0.6698130000000 1.0
C      1  0.3160490000000  0.5533510000000  0.4833820000000 1.0
C      1  0.4589610000000  0.5533510000000  0.3199160000000 1.0
C      1  0.6585880000000  0.5533510000000  0.4053200000000 1.0
C      1  0.6390520000000  0.4466490000000  0.6215690000000 1.0
C      1  0.4273510000000  0.4466490000000  0.6698130000000 1.0
C      1  0.3160490000000  0.4466490000000  0.4833820000000 1.0
C      1  0.4589610000000  0.4466490000000  0.3199160000000 1.0
C      1  0.6585880000000  0.4466490000000  0.4053200000000 1.0
C      1  0.3238650000000  0.5514920000000  0.6458240000000 1.0
C      1  0.3068840000000  0.5514920000000  0.3775480000000 1.0
C      1  0.5567830000000  0.5514920000000  0.2784960000000 1.0
C      1  0.7282090000000  0.5514920000000  0.4855560000000 1.0
C      1  0.5842580000000  0.5514920000000  0.7125770000000 1.0
C      1  0.3238650000000  0.4485080000000  0.6458240000000 1.0
C      1  0.3068840000000  0.4485080000000  0.3775480000000 1.0
C      1  0.5567830000000  0.4485080000000  0.2784960000000 1.0
C      1  0.7282100000000  0.4485080000000  0.4855560000000 1.0
C      1  0.5842580000000  0.4485080000000  0.7125770000000 1.0
END
