TITL C-3036486-2224-37 0.000205513076068212 3375 -368.185416446525 0 0 60 (C5) n - 1
REM
REM in /home/bkarasulu/work/CARBON/AIRSS/Generating-Clusters/REBO/Higher-Symm/Only-C60
REM
REM
REM
REM
REM
REM ./C.cell (a2850807a9bf4ad07a5b6933b78d9264)
REM AIRSS Version 0.9.1 bugfix July 2018 build 013d7b7c2542+ Fri, 06 Jul 2018 19:26:36 +0100
REM compiler GCC version 9.2.1 20190827 (Red Hat 9.2.1-1)
REM options -cpp -mtune=generic -march=x86-64 -g -O0 -fpre-include=/usr/include/finclude/math-vector-fortran.h
REM seed -1401744787 680825916 207493816 -1335415813 -1540759789 1198614107 -2045729237 -211513254 1485317106 2060792973 1950529504 -1479213056 -1333520907 58755695 1747387044 98302585 965075329 425597619 608047198 300574050 589246459 1887217571 -1834838689 1852342056 591874071 15427875 -963806010 1911433831 1693763447 1539165032 -2070354431 -1598854653 -1956902927
REM
CELL 1.54180   15.00000   15.00000   15.00000   90.00000   90.00000   90.00000
LATT -1
SFAC C  
C      1  0.5413810000000  0.4301290000000  0.6866160000000 1.0
C      1  0.4463280000000  0.4390490000000  0.6866120000000 1.0
C      1  0.4254370000000  0.5322060000000  0.6866090000000 1.0
C      1  0.5075800000000  0.5808610000000  0.6866110000000 1.0
C      1  0.5792370000000  0.5177740000000  0.6866160000000 1.0
C      1  0.3597570000000  0.5607410000000  0.6151620000000 1.0
C      1  0.5144250000000  0.6521470000000  0.6151670000000 1.0
C      1  0.6491520000000  0.5332940000000  0.6151750000000 1.0
C      1  0.5777500000000  0.3684320000000  0.6151770000000 1.0
C      1  0.3988940000000  0.3853960000000  0.6151680000000 1.0
C      1  0.5813880000000  0.3353560000000  0.3035340000000 1.0
C      1  0.3685850000000  0.3717270000000  0.3035230000000 1.0
C      1  0.3374020000000  0.5853580000000  0.3035170000000 1.0
C      1  0.5309390000000  0.6810250000000  0.3035230000000 1.0
C      1  0.6817250000000  0.5265150000000  0.3035330000000 1.0
C      1  0.4318780000000  0.7519650000000  0.5156150000000 1.0
C      1  0.7185800000000  0.6426480000000  0.5156260000000 1.0
C      1  0.7032110000000  0.3361970000000  0.5156340000000 1.0
C      1  0.4070100000000  0.2561160000000  0.5156250000000 1.0
C      1  0.2393180000000  0.5130760000000  0.5156090000000 1.0
C      1  0.6054470000000  0.6974450000000  0.6130140000000 1.0
C      1  0.7203610000000  0.4607260000000  0.6130240000000 1.0
C      1  0.5307370000000  0.2782840000000  0.6130220000000 1.0
C      1  0.2986290000000  0.4022510000000  0.6130060000000 1.0
C      1  0.3448030000000  0.6613060000000  0.6130050000000 1.0
C      1  0.3194420000000  0.6546400000000  0.4428420000000 1.0
C      1  0.5912770000000  0.7195090000000  0.4428510000000 1.0
C      1  0.7369710000000  0.4810230000000  0.4428610000000 1.0
C      1  0.5551840000000  0.2687590000000  0.4428620000000 1.0
C      1  0.2971380000000  0.3760640000000  0.4428440000000 1.0
C      1  0.5020520000000  0.5950300000000  0.5178110000000 1.0
C      1  0.5910120000000  0.5274130000000  0.5178170000000 1.0
C      1  0.5541950000000  0.4219120000000  0.5178190000000 1.0
C      1  0.4424820000000  0.4243260000000  0.5178130000000 1.0
C      1  0.4102560000000  0.5313190000000  0.5178090000000 1.0
C      1  0.3378570000000  0.7076650000000  0.5184860000000 1.0
C      1  0.6473940000000  0.7183790000000  0.5184970000000 1.0
C      1  0.7532360000000  0.4273020000000  0.5185070000000 1.0
C      1  0.5091130000000  0.2366900000000  0.5185050000000 1.0
C      1  0.2523960000000  0.4099670000000  0.5184850000000 1.0
C      1  0.6443690000000  0.3782300000000  0.3614500000000 1.0
C      1  0.4288140000000  0.3250690000000  0.3614420000000 1.0
C      1  0.3116440000000  0.5136540000000  0.3614310000000 1.0
C      1  0.4547820000000  0.6833660000000  0.3614340000000 1.0
C      1  0.6604180000000  0.5996680000000  0.3614440000000 1.0
C      1  0.6800860000000  0.5661450000000  0.4590100000000 1.0
C      1  0.6185590000000  0.3491650000000  0.4590150000000 1.0
C      1  0.3931900000000  0.3406320000000  0.4590050000000 1.0
C      1  0.3154310000000  0.5523390000000  0.4589960000000 1.0
C      1  0.4927420000000  0.6917120000000  0.4590010000000 1.0
C      1  0.4282440000000  0.2877170000000  0.6103800000000 1.0
C      1  0.2759290000000  0.5026420000000  0.6103670000000 1.0
C      1  0.4332660000000  0.7139180000000  0.6103710000000 1.0
C      1  0.6828210000000  0.6295700000000  0.6103810000000 1.0
C      1  0.6797190000000  0.3661630000000  0.6103880000000 1.0
C      1  0.3636870000000  0.6620250000000  0.3560620000000 1.0
C      1  0.6119740000000  0.6797120000000  0.3560710000000 1.0
C      1  0.7055200000000  0.4490410000000  0.3560800000000 1.0
C      1  0.5150540000000  0.2887870000000  0.3560780000000 1.0
C      1  0.3037930000000  0.4204220000000  0.3560630000000 1.0
END
