TITL C-3036483-1610-240 3.59405903879508e-05 3375 -338.561913139408 0 0 60 (C1) n - 1
REM
REM in /home/bkarasulu/work/CARBON/AIRSS/Generating-Clusters/REBO/Higher-Symm/Only-C60
REM
REM
REM
REM
REM
REM ./C.cell (a2850807a9bf4ad07a5b6933b78d9264)
REM AIRSS Version 0.9.1 bugfix July 2018 build 013d7b7c2542+ Fri, 06 Jul 2018 19:26:36 +0100
REM compiler GCC version 9.2.1 20190827 (Red Hat 9.2.1-1)
REM options -cpp -mtune=generic -march=x86-64 -g -O0 -fpre-include=/usr/include/finclude/math-vector-fortran.h
REM seed -192642278 -2112142605 1578025694 986180497 1046051286 533074156 961534852 -1048465453 -1996399540 681793611 -1053419965 -940920705 -1452617458 204508215 -319114611 -580604925 2021382224 -1159939665 165232223 1539067390 -822627779 -1916213489 -1768859072 723495935 -12906120 875134570 -449538066 2130677503 1905890996 -1332043582 1661818021 544371178 -1546806033
REM
CELL 1.54180   15.00000   15.00000   15.00000   90.00000   90.00000   90.00000
LATT -1
SFAC C  
C      1  0.6002780000000  0.4111100000000  0.5014530000000 1.0
C      1  0.5578250000000  0.3263350000000  0.4077810000000 1.0
C      1  0.6345470000000  0.3025120000000  0.5136370000000 1.0
C      1  0.7082430000000  0.3819320000000  0.4843010000000 1.0
C      1  0.6874000000000  0.4206180000000  0.3894860000000 1.0
C      1  0.4022820000000  0.5027730000000  0.5327980000000 1.0
C      1  0.3380270000000  0.6182740000000  0.4764900000000 1.0
C      1  0.5013200000000  0.3385900000000  0.6129190000000 1.0
C      1  0.6598810000000  0.6801670000000  0.4479120000000 1.0
C      1  0.5012970000000  0.5796690000000  0.5742720000000 1.0
C      1  0.4734200000000  0.5600000000000  0.7408970000000 1.0
C      1  0.2771570000000  0.3903090000000  0.5340210000000 1.0
C      1  0.3443350000000  0.6889830000000  0.5326950000000 1.0
C      1  0.5451770000000  0.4359090000000  0.2980670000000 1.0
C      1  0.4064040000000  0.3795460000000  0.6555570000000 1.0
C      1  0.7184380000000  0.5057160000000  0.3800870000000 1.0
C      1  0.5391840000000  0.5421870000000  0.3115430000000 1.0
C      1  0.6846760000000  0.6597810000000  0.5561660000000 1.0
C      1  0.6055670000000  0.3881600000000  0.3534280000000 1.0
C      1  0.5559880000000  0.2333180000000  0.5030500000000 1.0
C      1  0.3972980000000  0.6623870000000  0.3054130000000 1.0
C      1  0.4559200000000  0.4095990000000  0.5367620000000 1.0
C      1  0.4341310000000  0.5073900000000  0.2903070000000 1.0
C      1  0.6041530000000  0.3349260000000  0.6108080000000 1.0
C      1  0.4664820000000  0.3572590000000  0.4429440000000 1.0
C      1  0.5266670000000  0.6197600000000  0.6987200000000 1.0
C      1  0.6925130000000  0.5765340000000  0.4545510000000 1.0
C      1  0.3077110000000  0.5485900000000  0.3994540000000 1.0
C      1  0.4047760000000  0.4829030000000  0.6995940000000 1.0
C      1  0.5438400000000  0.4911640000000  0.4485910000000 1.0
C      1  0.5593400000000  0.4963830000000  0.5591470000000 1.0
C      1  0.4323230000000  0.5659750000000  0.4435290000000 1.0
C      1  0.3494150000000  0.6335960000000  0.6532720000000 1.0
C      1  0.4234090000000  0.7164330000000  0.5797540000000 1.0
C      1  0.3905300000000  0.2756460000000  0.5160160000000 1.0
C      1  0.5531020000000  0.7814230000000  0.4186990000000 1.0
C      1  0.6919670000000  0.5486930000000  0.5615340000000 1.0
C      1  0.2619160000000  0.4520170000000  0.4392850000000 1.0
C      1  0.3466480000000  0.4463180000000  0.3699110000000 1.0
C      1  0.4789670000000  0.2595430000000  0.5466610000000 1.0
C      1  0.3859360000000  0.2895400000000  0.4155420000000 1.0
C      1  0.5786240000000  0.4814260000000  0.6669600000000 1.0
C      1  0.4967470000000  0.7116900000000  0.6627470000000 1.0
C      1  0.5962560000000  0.5721160000000  0.4031600000000 1.0
C      1  0.4773750000000  0.6192360000000  0.3674570000000 1.0
C      1  0.3670170000000  0.5684380000000  0.3128680000000 1.0
C      1  0.3010360000000  0.4919880000000  0.5337950000000 1.0
C      1  0.4448340000000  0.4597800000000  0.4143530000000 1.0
C      1  0.4080960000000  0.5563760000000  0.6249790000000 1.0
C      1  0.6171840000000  0.5848330000000  0.6398580000000 1.0
C      1  0.3428040000000  0.3365340000000  0.5744710000000 1.0
C      1  0.4988630000000  0.4290660000000  0.7025010000000 1.0
C      1  0.6011300000000  0.6963710000000  0.6208350000000 1.0
C      1  0.3753740000000  0.3491920000000  0.3375410000000 1.0
C      1  0.5013800000000  0.6655570000000  0.5387680000000 1.0
C      1  0.5810900000000  0.7277450000000  0.5133860000000 1.0
C      1  0.6491340000000  0.4132560000000  0.6374710000000 1.0
C      1  0.7073800000000  0.4495070000000  0.5708120000000 1.0
C      1  0.4450730000000  0.4050060000000  0.2901280000000 1.0
C      1  0.5621130000000  0.6799170000000  0.3908570000000 1.0
END
