TITL C-3036483-1610-810 2.14467429579314e-05 3375 -343.583629277087 0 0 60 (Th) n - 1
REM
REM in /home/bkarasulu/work/CARBON/AIRSS/Generating-Clusters/REBO/Higher-Symm/Only-C60
REM
REM
REM
REM
REM
REM ./C.cell (a2850807a9bf4ad07a5b6933b78d9264)
REM AIRSS Version 0.9.1 bugfix July 2018 build 013d7b7c2542+ Fri, 06 Jul 2018 19:26:36 +0100
REM compiler GCC version 9.2.1 20190827 (Red Hat 9.2.1-1)
REM options -cpp -mtune=generic -march=x86-64 -g -O0 -fpre-include=/usr/include/finclude/math-vector-fortran.h
REM seed -1651282989 1630213643 1568683650 1962134206 -1224507066 1970994145 -1358902557 797954956 975052310 -1547426168 1336870371 -1599300460 688786549 -1237639266 937224002 -391534515 1428102431 454781691 755553231 -864384885 351786299 -698604743 550399296 -1098258758 -1864400116 -82870680 1694164762 -1015341060 1781605930 911416847 1560117644 -1843916316 -715311650
REM
CELL 1.54180   15.00000   15.00000   15.00000   90.00000   90.00000   90.00000
LATT -1
SFAC C  
C      1  0.5533290000000  0.4153180000000  0.3575710000000 1.0
C      1  0.4153180000000  0.3575710000000  0.5533290000000 1.0
C      1  0.3575710000000  0.5533290000000  0.4153180000000 1.0
C      1  0.4466710000000  0.5846820000000  0.3575710000000 1.0
C      1  0.5533290000000  0.5846820000000  0.6424290000000 1.0
C      1  0.4466710000000  0.4153180000000  0.6424290000000 1.0
C      1  0.5846820000000  0.6424290000000  0.5533290000000 1.0
C      1  0.4153180000000  0.6424290000000  0.4466710000000 1.0
C      1  0.5846820000000  0.3575710000000  0.4466710000000 1.0
C      1  0.6424290000000  0.4466710000000  0.4153180000000 1.0
C      1  0.3575710000000  0.4466710000000  0.5846820000000 1.0
C      1  0.6424290000000  0.5533290000000  0.5846820000000 1.0
C      1  0.5533290000000  0.4153180000000  0.6424290000000 1.0
C      1  0.4153180000000  0.3575710000000  0.4466710000000 1.0
C      1  0.3575710000000  0.5533290000000  0.5846820000000 1.0
C      1  0.4466710000000  0.5846820000000  0.6424290000000 1.0
C      1  0.5533290000000  0.5846820000000  0.3575710000000 1.0
C      1  0.4466710000000  0.4153180000000  0.3575710000000 1.0
C      1  0.5846820000000  0.6424290000000  0.4466710000000 1.0
C      1  0.4153180000000  0.6424290000000  0.5533290000000 1.0
C      1  0.5846820000000  0.3575710000000  0.5533290000000 1.0
C      1  0.6424290000000  0.4466710000000  0.5846820000000 1.0
C      1  0.3575710000000  0.4466710000000  0.4153180000000 1.0
C      1  0.6424290000000  0.5533290000000  0.4153180000000 1.0
C      1  0.4523830000000  0.7382810000000  0.4334240000000 1.0
C      1  0.7382810000000  0.4334240000000  0.4523830000000 1.0
C      1  0.4334240000000  0.4523830000000  0.7382810000000 1.0
C      1  0.5476170000000  0.2617190000000  0.4334240000000 1.0
C      1  0.4523830000000  0.2617190000000  0.5665760000000 1.0
C      1  0.5476170000000  0.7382810000000  0.5665760000000 1.0
C      1  0.2617190000000  0.5665760000000  0.4523830000000 1.0
C      1  0.7382810000000  0.5665760000000  0.5476170000000 1.0
C      1  0.2617190000000  0.4334240000000  0.5476170000000 1.0
C      1  0.5665760000000  0.5476170000000  0.7382810000000 1.0
C      1  0.4334240000000  0.5476170000000  0.2617190000000 1.0
C      1  0.5665760000000  0.4523830000000  0.2617190000000 1.0
C      1  0.4523830000000  0.7382810000000  0.5665760000000 1.0
C      1  0.7382810000000  0.4334240000000  0.5476170000000 1.0
C      1  0.4334240000000  0.4523830000000  0.2617190000000 1.0
C      1  0.5476170000000  0.2617190000000  0.5665760000000 1.0
C      1  0.4523830000000  0.2617190000000  0.4334240000000 1.0
C      1  0.5476170000000  0.7382810000000  0.4334240000000 1.0
C      1  0.2617190000000  0.5665760000000  0.5476170000000 1.0
C      1  0.7382810000000  0.5665760000000  0.4523830000000 1.0
C      1  0.2617190000000  0.4334240000000  0.4523830000000 1.0
C      1  0.5665760000000  0.5476170000000  0.2617190000000 1.0
C      1  0.4334240000000  0.5476170000000  0.7382810000000 1.0
C      1  0.5665760000000  0.4523830000000  0.7382810000000 1.0
C      1  0.4102680000000  0.8035310000000  0.5000000000000 1.0
C      1  0.5000000000000  0.4102680000000  0.8035310000000 1.0
C      1  0.5897320000000  0.1964690000000  0.5000000000000 1.0
C      1  0.5000000000000  0.5897320000000  0.1964690000000 1.0
C      1  0.8035310000000  0.5000000000000  0.4102680000000 1.0
C      1  0.4102680000000  0.1964690000000  0.5000000000000 1.0
C      1  0.5897320000000  0.8035310000000  0.5000000000000 1.0
C      1  0.1964690000000  0.5000000000000  0.4102680000000 1.0
C      1  0.8035310000000  0.5000000000000  0.5897320000000 1.0
C      1  0.1964690000000  0.5000000000000  0.5897320000000 1.0
C      1  0.5000000000000  0.5897320000000  0.8035310000000 1.0
C      1  0.5000000000000  0.4102680000000  0.1964690000000 1.0
END
