TITL C-3036485-3770-595 -2.40934111016122e-05 3375 -343.090058312504 0 0 60 (C3) n - 1
REM
REM in /home/bkarasulu/work/CARBON/AIRSS/Generating-Clusters/REBO/Higher-Symm/Only-C60
REM
REM
REM
REM
REM
REM ./C.cell (a2850807a9bf4ad07a5b6933b78d9264)
REM AIRSS Version 0.9.1 bugfix July 2018 build 013d7b7c2542+ Fri, 06 Jul 2018 19:26:36 +0100
REM compiler GCC version 9.2.1 20190827 (Red Hat 9.2.1-1)
REM options -cpp -mtune=generic -march=x86-64 -g -O0 -fpre-include=/usr/include/finclude/math-vector-fortran.h
REM seed -1221803097 -2041756286 2072388920 -39251305 1593948197 1387037146 -848897507 428146284 -177960045 -1003611389 -914982867 305793924 -1161474253 -1177399531 -236590799 -2099248508 701641605 591625769 1006340148 -1976716508 1665146620 -1704692164 529294078 1923788288 177325347 289980575 981123509 1385779031 939325383 -712822366 -922513737 1311761653 2010290645
REM
CELL 1.54180   15.00000   15.00000   15.00000   90.00000   90.00000   90.00000
LATT -1
SFAC C  
C      1  0.7211340000000  0.6038570000000  0.5619700000000 1.0
C      1  0.3357570000000  0.6038440000000  0.6605220000000 1.0
C      1  0.4430960000000  0.6038370000000  0.2774990000000 1.0
C      1  0.3282020000000  0.6563870000000  0.3962730000000 1.0
C      1  0.6757150000000  0.6564010000000  0.4030810000000 1.0
C      1  0.4960640000000  0.6564020000000  0.7006340000000 1.0
C      1  0.2890430000000  0.6566750000000  0.5713720000000 1.0
C      1  0.5436550000000  0.6566760000000  0.2816180000000 1.0
C      1  0.6672840000000  0.6566910000000  0.6469970000000 1.0
C      1  0.3680120000000  0.5862900000000  0.3512410000000 1.0
C      1  0.6948160000000  0.5863070000000  0.4600750000000 1.0
C      1  0.4371620000000  0.5863030000000  0.6886770000000 1.0
C      1  0.3618870000000  0.3762780000000  0.3426150000000 1.0
C      1  0.7053660000000  0.3762950000000  0.4590840000000 1.0
C      1  0.4327610000000  0.3762910000000  0.6983110000000 1.0
C      1  0.4583800000000  0.4760610000000  0.6744380000000 1.0
C      1  0.3697440000000  0.4760490000000  0.3767370000000 1.0
C      1  0.6718790000000  0.4760640000000  0.4488270000000 1.0
C      1  0.5631390000000  0.5836170000000  0.4798270000000 1.0
C      1  0.4858930000000  0.5836170000000  0.5647660000000 1.0
C      1  0.4509570000000  0.5836120000000  0.4554000000000 1.0
C      1  0.5833260000000  0.6810610000000  0.6807370000000 1.0
C      1  0.3018000000000  0.6810450000000  0.4817930000000 1.0
C      1  0.6148520000000  0.6810530000000  0.3374560000000 1.0
C      1  0.4169040000000  0.3636200000000  0.2697040000000 1.0
C      1  0.7410010000000  0.3636410000000  0.5431860000000 1.0
C      1  0.3421110000000  0.3636290000000  0.6871220000000 1.0
C      1  0.5301120000000  0.4335480000000  0.6028590000000 1.0
C      1  0.3958710000000  0.4335390000000  0.4746480000000 1.0
C      1  0.5740250000000  0.4335450000000  0.4224980000000 1.0
C      1  0.6353070000000  0.5222890000000  0.3005370000000 1.0
C      1  0.6050840000000  0.5223000000000  0.7169100000000 1.0
C      1  0.2596060000000  0.5222790000000  0.4825500000000 1.0
C      1  0.2353850000000  0.5763770000000  0.6225850000000 1.0
C      1  0.5261400000000  0.5763760000000  0.2095430000000 1.0
C      1  0.7384670000000  0.5763970000000  0.6678660000000 1.0
C      1  0.3528410000000  0.4940940000000  0.6424140000000 1.0
C      1  0.4502460000000  0.4940880000000  0.3013490000000 1.0
C      1  0.6969140000000  0.4941050000000  0.5562370000000 1.0
C      1  0.5055270000000  0.3212320000000  0.6692640000000 1.0
C      1  0.3506650000000  0.3212190000000  0.4201560000000 1.0
C      1  0.6438300000000  0.3212300000000  0.4105950000000 1.0
C      1  0.5445440000000  0.3312710000000  0.4559120000000 1.0
C      1  0.5159230000000  0.3312730000000  0.5606220000000 1.0
C      1  0.4395520000000  0.3312680000000  0.4834800000000 1.0
C      1  0.4976680000000  0.5081640000000  0.3939750000000 1.0
C      1  0.5929850000000  0.5081720000000  0.5509920000000 1.0
C      1  0.4093460000000  0.5081650000000  0.5550310000000 1.0
C      1  0.2299470000000  0.4971300000000  0.5708440000000 1.0
C      1  0.5736740000000  0.4971330000000  0.2307050000000 1.0
C      1  0.6963790000000  0.4971510000000  0.6984510000000 1.0
C      1  0.6987520000000  0.4104930000000  0.6329870000000 1.0
C      1  0.2854610000000  0.4104760000000  0.6056320000000 1.0
C      1  0.5157970000000  0.4104750000000  0.2613880000000 1.0
C      1  0.5951150000000  0.5549230000000  0.3749260000000 1.0
C      1  0.5607550000000  0.5549300000000  0.6449080000000 1.0
C      1  0.3441240000000  0.5549160000000  0.4801610000000 1.0
C      1  0.6054370000000  0.3666200000000  0.6516060000000 1.0
C      1  0.3159980000000  0.3666050000000  0.5155100000000 1.0
C      1  0.5785800000000  0.3666100000000  0.3328960000000 1.0
END
