TITL C-3036479-9801-650 -2.44897548364856e-06 3375 -345.118202266156 0 0 60 (Cs) n - 1
REM
REM in /home/bkarasulu/work/CARBON/AIRSS/Generating-Clusters/REBO/Higher-Symm/Only-C60
REM
REM
REM
REM
REM
REM ./C.cell (a2850807a9bf4ad07a5b6933b78d9264)
REM AIRSS Version 0.9.1 bugfix July 2018 build 013d7b7c2542+ Fri, 06 Jul 2018 19:26:36 +0100
REM compiler GCC version 9.2.1 20190827 (Red Hat 9.2.1-1)
REM options -cpp -mtune=generic -march=x86-64 -g -O0 -fpre-include=/usr/include/finclude/math-vector-fortran.h
REM seed -1086829627 1534360561 -1615337629 -2117611800 1238703232 1490723851 434758076 1996909711 1516475323 1609312558 1826901476 2018444892 274765398 -359146032 1620930158 190783041 -1250851970 1438684946 -1115397784 -2073174567 748355213 1512907112 709723027 117578583 1094109554 -856850523 363160398 1986704835 -1281303915 -250872 -377783573 1842122628 1017549789
REM
CELL 1.54180   15.00000   15.00000   15.00000   90.00000   90.00000   90.00000
LATT -1
SFAC C  
C      1  0.5581220000000  0.6783150000000  0.6685760000000 1.0
C      1  0.4534970000000  0.3293060000000  0.6559600000000 1.0
C      1  0.5557700000000  0.6803790000000  0.3337420000000 1.0
C      1  0.4510810000000  0.3304620000000  0.3424460000000 1.0
C      1  0.5581060000000  0.3216820000000  0.6685780000000 1.0
C      1  0.4535130000000  0.6707000000000  0.6559580000000 1.0
C      1  0.5557530000000  0.3196150000000  0.3337440000000 1.0
C      1  0.4510970000000  0.6695400000000  0.3424430000000 1.0
C      1  0.5459880000000  0.4035540000000  0.5959910000000 1.0
C      1  0.4452510000000  0.5813660000000  0.5913150000000 1.0
C      1  0.5435620000000  0.4037890000000  0.4038380000000 1.0
C      1  0.4430930000000  0.5828770000000  0.4094700000000 1.0
C      1  0.5459970000000  0.5964440000000  0.5959900000000 1.0
C      1  0.4452430000000  0.4186400000000  0.5913160000000 1.0
C      1  0.5435710000000  0.5962060000000  0.4038370000000 1.0
C      1  0.4430850000000  0.4171270000000  0.4094710000000 1.0
C      1  0.2746510000000  0.6540040000000  0.4580450000000 1.0
C      1  0.7244350000000  0.3578940000000  0.4598890000000 1.0
C      1  0.2760370000000  0.6533420000000  0.5400590000000 1.0
C      1  0.7261330000000  0.3571040000000  0.5418400000000 1.0
C      1  0.2746360000000  0.3460160000000  0.4580460000000 1.0
C      1  0.7244480000000  0.6420850000000  0.4598880000000 1.0
C      1  0.2760230000000  0.3466790000000  0.5400600000000 1.0
C      1  0.7261470000000  0.6428760000000  0.5418380000000 1.0
C      1  0.4471140000000  0.1901250000000  0.4424120000000 1.0
C      1  0.5528330000000  0.8086800000000  0.4532530000000 1.0
C      1  0.4585160000000  0.1926080000000  0.5464790000000 1.0
C      1  0.5641640000000  0.8104790000000  0.5574260000000 1.0
C      1  0.4471420000000  0.8098790000000  0.4424090000000 1.0
C      1  0.5528040000000  0.1913150000000  0.4532550000000 1.0
C      1  0.4585450000000  0.8073960000000  0.5464760000000 1.0
C      1  0.5641350000000  0.1895160000000  0.5574290000000 1.0
C      1  0.6609340000000  0.6568590000000  0.6244520000000 1.0
C      1  0.3444630000000  0.3378310000000  0.6208930000000 1.0
C      1  0.6579130000000  0.6592170000000  0.3795610000000 1.0
C      1  0.3409970000000  0.3400730000000  0.3745120000000 1.0
C      1  0.6609190000000  0.3431280000000  0.6244540000000 1.0
C      1  0.3444780000000  0.6621840000000  0.6208920000000 1.0
C      1  0.6578980000000  0.3407670000000  0.3795630000000 1.0
C      1  0.3410120000000  0.6599400000000  0.3745100000000 1.0
C      1  0.4000530000000  0.7563790000000  0.3837060000000 1.0
C      1  0.6035940000000  0.2418560000000  0.3934070000000 1.0
C      1  0.4079290000000  0.7549810000000  0.6045330000000 1.0
C      1  0.6111630000000  0.2412130000000  0.6179540000000 1.0
C      1  0.4000280000000  0.2436290000000  0.3837080000000 1.0
C      1  0.6036180000000  0.7581340000000  0.3934040000000 1.0
C      1  0.4079050000000  0.2450290000000  0.6045350000000 1.0
C      1  0.6111870000000  0.7587780000000  0.6179510000000 1.0
C      1  0.6459270000000  0.5485910000000  0.4063100000000 1.0
C      1  0.3370800000000  0.4505950000000  0.4045070000000 1.0
C      1  0.6471190000000  0.5482220000000  0.5920900000000 1.0
C      1  0.3378680000000  0.4499940000000  0.5971180000000 1.0
C      1  0.6459230000000  0.4513950000000  0.4063110000000 1.0
C      1  0.3370850000000  0.5494190000000  0.4045070000000 1.0
C      1  0.6471150000000  0.4517660000000  0.5920900000000 1.0
C      1  0.3378730000000  0.5500220000000  0.5971180000000 1.0
C      1  0.6006730000000  0.4080930000000  0.4994650000000 1.0
C      1  0.3840420000000  0.5857740000000  0.5007540000000 1.0
C      1  0.6006810000000  0.5918980000000  0.4994630000000 1.0
C      1  0.3840340000000  0.4142370000000  0.5007550000000 1.0
END
