TITL C-3036481-494-380 -0.00975641349123996 3375 -350.029706698339 0 0 60 (C3) n - 1
REM
REM in /home/bkarasulu/work/CARBON/AIRSS/Generating-Clusters/REBO/Higher-Symm/Only-C60
REM
REM
REM
REM
REM
REM ./C.cell (a2850807a9bf4ad07a5b6933b78d9264)
REM AIRSS Version 0.9.1 bugfix July 2018 build 013d7b7c2542+ Fri, 06 Jul 2018 19:26:36 +0100
REM compiler GCC version 9.2.1 20190827 (Red Hat 9.2.1-1)
REM options -cpp -mtune=generic -march=x86-64 -g -O0 -fpre-include=/usr/include/finclude/math-vector-fortran.h
REM seed -1733407230 34640818 941557968 -1609133655 -337642687 -868843971 851370022 -1671263427 1972381471 -699299407 1223335110 2026974270 377403785 -140193564 422263874 1493812909 1224352048 -788070442 1189984131 431135878 -587428180 -1373653947 -1463242717 1238915455 408191689 565481308 -1389264531 -401537627 -1161453255 -740953349 -1287763486 1390630672 -242463906
REM
CELL 1.54180   15.00000   15.00000   15.00000   90.00000   90.00000   90.00000
LATT -1
SFAC C  
C      1  0.6292590000000  0.6518200000000  0.6737090000000 1.0
C      1  0.6293630000000  0.2738420000000  0.5440290000000 1.0
C      1  0.6294270000000  0.5747930000000  0.2822490000000 1.0
C      1  0.3273320000000  0.3734940000000  0.4528220000000 1.0
C      1  0.3274030000000  0.6041420000000  0.4140300000000 1.0
C      1  0.3275060000000  0.5224220000000  0.6331960000000 1.0
C      1  0.3722700000000  0.2970000000000  0.5100630000000 1.0
C      1  0.3723680000000  0.5927560000000  0.3191910000000 1.0
C      1  0.3722860000000  0.6103540000000  0.6707980000000 1.0
C      1  0.6755590000000  0.7194420000000  0.6004380000000 1.0
C      1  0.6754660000000  0.3032270000000  0.6394150000000 1.0
C      1  0.6755060000000  0.4774360000000  0.2601650000000 1.0
C      1  0.5222340000000  0.5158850000000  0.5632050000000 1.0
C      1  0.5221990000000  0.4370330000000  0.4821650000000 1.0
C      1  0.5222480000000  0.5467140000000  0.4543730000000 1.0
C      1  0.7196230000000  0.5452030000000  0.5432460000000 1.0
C      1  0.7196610000000  0.4402810000000  0.5176740000000 1.0
C      1  0.7197500000000  0.5148590000000  0.4396250000000 1.0
C      1  0.2953720000000  0.5013610000000  0.4348390000000 1.0
C      1  0.2954620000000  0.5558220000000  0.5337770000000 1.0
C      1  0.2954240000000  0.4429300000000  0.5314740000000 1.0
C      1  0.5161870000000  0.6251290000000  0.5615690000000 1.0
C      1  0.5161640000000  0.3839240000000  0.5777430000000 1.0
C      1  0.5161440000000  0.4904660000000  0.3605740000000 1.0
C      1  0.4887490000000  0.3177490000000  0.3095790000000 1.0
C      1  0.4889840000000  0.7558730000000  0.4374040000000 1.0
C      1  0.4889710000000  0.4261450000000  0.7528700000000 1.0
C      1  0.4580480000000  0.6325490000000  0.2994410000000 1.0
C      1  0.4579440000000  0.6078300000000  0.7152290000000 1.0
C      1  0.4579060000000  0.2598920000000  0.4854420000000 1.0
C      1  0.4010130000000  0.6842370000000  0.4359170000000 1.0
C      1  0.4011010000000  0.4633120000000  0.6916070000000 1.0
C      1  0.4008550000000  0.3523260000000  0.3724450000000 1.0
C      1  0.5708440000000  0.8083470000000  0.4958480000000 1.0
C      1  0.5708600000000  0.3491750000000  0.7689330000000 1.0
C      1  0.5707210000000  0.3423290000000  0.2350930000000 1.0
C      1  0.4777500000000  0.3923540000000  0.2287020000000 1.0
C      1  0.4780080000000  0.7885400000000  0.5424680000000 1.0
C      1  0.4778710000000  0.3187790000000  0.7287130000000 1.0
C      1  0.6482100000000  0.3934860000000  0.2322560000000 1.0
C      1  0.6484280000000  0.7855600000000  0.5415740000000 1.0
C      1  0.6483060000000  0.3209980000000  0.7261290000000 1.0
C      1  0.3291980000000  0.6541820000000  0.5171070000000 1.0
C      1  0.3292110000000  0.4081280000000  0.6249420000000 1.0
C      1  0.3291150000000  0.4377680000000  0.3579660000000 1.0
C      1  0.4581100000000  0.3126560000000  0.6377440000000 1.0
C      1  0.4580620000000  0.4742310000000  0.2688950000000 1.0
C      1  0.4582170000000  0.7128450000000  0.5932630000000 1.0
C      1  0.3701880000000  0.5022570000000  0.2907360000000 1.0
C      1  0.3702300000000  0.6801710000000  0.6065640000000 1.0
C      1  0.3701930000000  0.3176270000000  0.6026620000000 1.0
C      1  0.5372860000000  0.2913660000000  0.5292700000000 1.0
C      1  0.5373640000000  0.5787860000000  0.3048070000000 1.0
C      1  0.5372180000000  0.6301630000000  0.6659150000000 1.0
C      1  0.5026820000000  0.4657120000000  0.6500710000000 1.0
C      1  0.5025240000000  0.3869390000000  0.3952820000000 1.0
C      1  0.5026360000000  0.6470380000000  0.4545330000000 1.0
C      1  0.6997740000000  0.5276200000000  0.3520880000000 1.0
C      1  0.6995830000000  0.6146850000000  0.5979830000000 1.0
C      1  0.6996250000000  0.3580130000000  0.5501520000000 1.0
END
