TITL C-3036483-1610-925 -0.0434912016612369 3375 -343.105887674688 0 0 60 (C1) n - 1
REM
REM in /home/bkarasulu/work/CARBON/AIRSS/Generating-Clusters/REBO/Higher-Symm/Only-C60
REM
REM
REM
REM
REM
REM ./C.cell (a2850807a9bf4ad07a5b6933b78d9264)
REM AIRSS Version 0.9.1 bugfix July 2018 build 013d7b7c2542+ Fri, 06 Jul 2018 19:26:36 +0100
REM compiler GCC version 9.2.1 20190827 (Red Hat 9.2.1-1)
REM options -cpp -mtune=generic -march=x86-64 -g -O0 -fpre-include=/usr/include/finclude/math-vector-fortran.h
REM seed -1781697602 1625920334 1590420398 1997647279 -963592296 1416546182 -1733051974 813646913 132893455 -1184474609 1161288598 -1600772322 -1336981675 1173952785 -283290895 736163858 -1455818266 -1299918258 1760639921 1031062950 -1377254598 -1212306894 -384720976 -845206463 -603144733 -1104461126 -1988620456 905965419 415185404 57717322 1083407377 1445744695 962572253
REM
CELL 1.54180   15.00000   15.00000   15.00000   90.00000   90.00000   90.00000
LATT -1
SFAC C  
C      1  0.4804310000000  0.3573560000000  0.6841080000000 1.0
C      1  0.6495710000000  0.3762210000000  0.4176020000000 1.0
C      1  0.3396600000000  0.3716770000000  0.4013950000000 1.0
C      1  0.6119930000000  0.4868080000000  0.5286120000000 1.0
C      1  0.4613170000000  0.4892180000000  0.3556290000000 1.0
C      1  0.4131030000000  0.5039540000000  0.5951670000000 1.0
C      1  0.5701200000000  0.6094740000000  0.6891910000000 1.0
C      1  0.6381330000000  0.6068270000000  0.3379190000000 1.0
C      1  0.3034590000000  0.5939130000000  0.4740240000000 1.0
C      1  0.5460990000000  0.4209530000000  0.5838410000000 1.0
C      1  0.5352430000000  0.4084680000000  0.3533940000000 1.0
C      1  0.4416450000000  0.4098540000000  0.5545900000000 1.0
C      1  0.4960370000000  0.3128630000000  0.3933680000000 1.0
C      1  0.4064610000000  0.3023200000000  0.5446260000000 1.0
C      1  0.5813840000000  0.3078430000000  0.5523030000000 1.0
C      1  0.5039690000000  0.7260620000000  0.5604080000000 1.0
C      1  0.5555490000000  0.7200540000000  0.4657390000000 1.0
C      1  0.4486670000000  0.7183830000000  0.4694920000000 1.0
C      1  0.3994130000000  0.6387690000000  0.4375520000000 1.0
C      1  0.4923780000000  0.6448760000000  0.6183050000000 1.0
C      1  0.6067400000000  0.6371900000000  0.4427390000000 1.0
C      1  0.4402980000000  0.3320530000000  0.2999780000000 1.0
C      1  0.3473040000000  0.3434250000000  0.6288100000000 1.0
C      1  0.6798930000000  0.3398110000000  0.5708190000000 1.0
C      1  0.3868250000000  0.6322500000000  0.3291890000000 1.0
C      1  0.4092410000000  0.6408170000000  0.6873820000000 1.0
C      1  0.7070830000000  0.6317390000000  0.4853200000000 1.0
C      1  0.3675630000000  0.4246790000000  0.6642700000000 1.0
C      1  0.7013480000000  0.4205320000000  0.5319390000000 1.0
C      1  0.4056630000000  0.4163430000000  0.2954530000000 1.0
C      1  0.4730430000000  0.5567370000000  0.7156830000000 1.0
C      1  0.7069950000000  0.5567480000000  0.4113130000000 1.0
C      1  0.3217490000000  0.5570110000000  0.3688600000000 1.0
C      1  0.5020210000000  0.5434670000000  0.2769150000000 1.0
C      1  0.3121950000000  0.5378160000000  0.6305980000000 1.0
C      1  0.6818040000000  0.5302470000000  0.5995060000000 1.0
C      1  0.3306390000000  0.4634470000000  0.3548820000000 1.0
C      1  0.4573470000000  0.4605660000000  0.7126400000000 1.0
C      1  0.7015560000000  0.4642720000000  0.4327250000000 1.0
C      1  0.4023190000000  0.3181010000000  0.4418720000000 1.0
C      1  0.4942790000000  0.3015030000000  0.6102020000000 1.0
C      1  0.5830470000000  0.3213820000000  0.4498080000000 1.0
C      1  0.6882730000000  0.3930190000000  0.2911340000000 1.0
C      1  0.2760550000000  0.3511650000000  0.5166150000000 1.0
C      1  0.5963140000000  0.3796100000000  0.7457870000000 1.0
C      1  0.2945310000000  0.5100330000000  0.5360010000000 1.0
C      1  0.6297980000000  0.5223990000000  0.6792880000000 1.0
C      1  0.5958860000000  0.5300760000000  0.2801140000000 1.0
C      1  0.3229860000000  0.6329060000000  0.6456980000000 1.0
C      1  0.7061610000000  0.6203470000000  0.5789960000000 1.0
C      1  0.4695610000000  0.6335890000000  0.2817360000000 1.0
C      1  0.5575730000000  0.5564130000000  0.4836490000000 1.0
C      1  0.4597130000000  0.5461680000000  0.4382430000000 1.0
C      1  0.4696050000000  0.5712400000000  0.5497990000000 1.0
C      1  0.6556870000000  0.6686970000000  0.6478970000000 1.0
C      1  0.5569270000000  0.6766560000000  0.3003860000000 1.0
C      1  0.2973280000000  0.6690260000000  0.5576970000000 1.0
C      1  0.6122780000000  0.4389560000000  0.3064210000000 1.0
C      1  0.3331540000000  0.4241180000000  0.5235640000000 1.0
C      1  0.5845880000000  0.4395540000000  0.6788060000000 1.0
END
