TITL C-3036484-3770-260 2.47247640494524e-05 3375 -356.763381026885 0 0 60 (C1) n - 1
REM
REM in /home/bkarasulu/work/CARBON/AIRSS/Generating-Clusters/REBO/Higher-Symm/Only-C60
REM
REM
REM
REM
REM
REM ./C.cell (a2850807a9bf4ad07a5b6933b78d9264)
REM AIRSS Version 0.9.1 bugfix July 2018 build 013d7b7c2542+ Fri, 06 Jul 2018 19:26:36 +0100
REM compiler GCC version 9.2.1 20190827 (Red Hat 9.2.1-1)
REM options -cpp -mtune=generic -march=x86-64 -g -O0 -fpre-include=/usr/include/finclude/math-vector-fortran.h
REM seed -2144933696 273638799 -1089423635 854000349 990347197 1521689240 -1934832895 -23461642 -153650272 838192850 -426939284 36937068 1919588700 622084588 1821863901 -1027046643 -214612980 -1543049622 -1183549829 1266501120 -793078625 -455303560 924158060 1054467366 -1526170240 1131235834 -1263210973 -330828731 1283006464 -1693165754 315272277 1744055483 -741640266
REM
CELL 1.54180   15.00000   15.00000   15.00000   90.00000   90.00000   90.00000
LATT -1
SFAC C  
C      1  0.4485580000000  0.2921560000000  0.3420790000000 1.0
C      1  0.6303220000000  0.3566190000000  0.3341710000000 1.0
C      1  0.6813450000000  0.5500470000000  0.3445910000000 1.0
C      1  0.5479750000000  0.6973380000000  0.3468340000000 1.0
C      1  0.3667840000000  0.6364710000000  0.3401090000000 1.0
C      1  0.3275600000000  0.4453570000000  0.3387490000000 1.0
C      1  0.4527350000000  0.7012440000000  0.3432820000000 1.0
C      1  0.6337880000000  0.6316460000000  0.3424940000000 1.0
C      1  0.6724000000000  0.4405550000000  0.3367040000000 1.0
C      1  0.5432390000000  0.2938650000000  0.3457530000000 1.0
C      1  0.3654210000000  0.3597030000000  0.3337370000000 1.0
C      1  0.3191200000000  0.5549240000000  0.3441990000000 1.0
C      1  0.7495870000000  0.5983450000000  0.4991270000000 1.0
C      1  0.5436990000000  0.7815570000000  0.4976470000000 1.0
C      1  0.2970580000000  0.6942280000000  0.4863350000000 1.0
C      1  0.2633030000000  0.4090960000000  0.4930740000000 1.0
C      1  0.4413240000000  0.2060110000000  0.4948580000000 1.0
C      1  0.7095000000000  0.3102700000000  0.4787950000000 1.0
C      1  0.7422560000000  0.4023030000000  0.4876760000000 1.0
C      1  0.5384680000000  0.2202720000000  0.5035980000000 1.0
C      1  0.2919300000000  0.3158190000000  0.4804300000000 1.0
C      1  0.2602410000000  0.6052440000000  0.4991420000000 1.0
C      1  0.4474070000000  0.7969040000000  0.4906710000000 1.0
C      1  0.7131180000000  0.6887910000000  0.4852850000000 1.0
C      1  0.4307080000000  0.6864660000000  0.6794680000000 1.0
C      1  0.3224980000000  0.5326610000000  0.6854390000000 1.0
C      1  0.3831340000000  0.3570880000000  0.6649690000000 1.0
C      1  0.5606010000000  0.3175250000000  0.6990510000000 1.0
C      1  0.6699050000000  0.4636220000000  0.6796960000000 1.0
C      1  0.6170890000000  0.6381960000000  0.6699440000000 1.0
C      1  0.4661950000000  0.3060330000000  0.6807300000000 1.0
C      1  0.3388840000000  0.4374470000000  0.6968350000000 1.0
C      1  0.3529330000000  0.6268710000000  0.6813340000000 1.0
C      1  0.5277650000000  0.6830380000000  0.6746080000000 1.0
C      1  0.6631430000000  0.5579910000000  0.6990810000000 1.0
C      1  0.6343860000000  0.3728860000000  0.6661130000000 1.0
C      1  0.5822730000000  0.2273440000000  0.4203340000000 1.0
C      1  0.7446740000000  0.4531330000000  0.4094540000000 1.0
C      1  0.6665000000000  0.7078850000000  0.4058680000000 1.0
C      1  0.4106790000000  0.7801610000000  0.4054440000000 1.0
C      1  0.2435560000000  0.5578870000000  0.4202940000000 1.0
C      1  0.3292590000000  0.2867900000000  0.3996050000000 1.0
C      1  0.5876840000000  0.7693610000000  0.4151630000000 1.0
C      1  0.7593080000000  0.5505820000000  0.4192260000000 1.0
C      1  0.6629270000000  0.2842100000000  0.4022110000000 1.0
C      1  0.4043350000000  0.2192170000000  0.4089260000000 1.0
C      1  0.2586470000000  0.4600420000000  0.4146050000000 1.0
C      1  0.3347590000000  0.7143230000000  0.4025250000000 1.0
C      1  0.7013090000000  0.5553120000000  0.5882020000000 1.0
C      1  0.5650900000000  0.7158950000000  0.5758940000000 1.0
C      1  0.3556470000000  0.6622640000000  0.5727000000000 1.0
C      1  0.3102060000000  0.4477240000000  0.5835930000000 1.0
C      1  0.4437790000000  0.2817750000000  0.5734960000000 1.0
C      1  0.6554620000000  0.3397540000000  0.5662600000000 1.0
C      1  0.7020170000000  0.4443800000000  0.5764140000000 1.0
C      1  0.5580700000000  0.2886540000000  0.5858350000000 1.0
C      1  0.3529600000000  0.3421140000000  0.5639960000000 1.0
C      1  0.3080970000000  0.5573570000000  0.5780440000000 1.0
C      1  0.4507250000000  0.7241770000000  0.5739970000000 1.0
C      1  0.6576590000000  0.6610700000000  0.5713090000000 1.0
END
