TITL C-3036486-2224-287 0.00439832111635906 3375 -332.693473334289 0 0 60 (C2h) n - 1
REM
REM in /home/bkarasulu/work/CARBON/AIRSS/Generating-Clusters/REBO/Higher-Symm/Only-C60
REM
REM
REM
REM
REM
REM ./C.cell (a2850807a9bf4ad07a5b6933b78d9264)
REM AIRSS Version 0.9.1 bugfix July 2018 build 013d7b7c2542+ Fri, 06 Jul 2018 19:26:36 +0100
REM compiler GCC version 9.2.1 20190827 (Red Hat 9.2.1-1)
REM options -cpp -mtune=generic -march=x86-64 -g -O0 -fpre-include=/usr/include/finclude/math-vector-fortran.h
REM seed 1973941353 650161154 952488912 -21102060 500480266 -456445676 -531279454 712326854 1819033325 -1886265938 -1175017667 -447215917 -1258488242 -436382395 -951438731 200872042 -1614524070 1359008049 2121521410 1679915538 2007798144 789808041 -1664485512 -1668731000 917856740 896885233 295436743 618799617 -1231171156 -1033251889 1506871730 772774687 -146932988
REM
CELL 1.54180   15.00000   15.00000   15.00000   90.00000   90.00000   90.00000
LATT -1
SFAC C  
C      1  0.5504860000000  0.2879230000000  0.6347920000000 1.0
C      1  0.5504860000000  0.7120780000000  0.3652090000000 1.0
C      1  0.4495140000000  0.2879230000000  0.6347920000000 1.0
C      1  0.4495140000000  0.7120780000000  0.3652090000000 1.0
C      1  0.2874340000000  0.4475960000000  0.5238030000000 1.0
C      1  0.2874340000000  0.5524030000000  0.4761970000000 1.0
C      1  0.7125660000000  0.4475960000000  0.5238030000000 1.0
C      1  0.7125660000000  0.5524030000000  0.4761970000000 1.0
C      1  0.4548000000000  0.6158480000000  0.5396610000000 1.0
C      1  0.4547900000000  0.3841410000000  0.4603500000000 1.0
C      1  0.5452000000000  0.6158480000000  0.5396610000000 1.0
C      1  0.5452100000000  0.3841410000000  0.4603500000000 1.0
C      1  0.5928510000000  0.3274020000000  0.5449450000000 1.0
C      1  0.5928530000000  0.6726000000000  0.4550570000000 1.0
C      1  0.4071490000000  0.3274020000000  0.5449450000000 1.0
C      1  0.4071470000000  0.6726000000000  0.4550570000000 1.0
C      1  0.2958950000000  0.5223070000000  0.6043390000000 1.0
C      1  0.2958940000000  0.4776930000000  0.3956610000000 1.0
C      1  0.7041050000000  0.5223070000000  0.6043390000000 1.0
C      1  0.7041060000000  0.4776930000000  0.3956610000000 1.0
C      1  0.4004810000000  0.4315370000000  0.3886990000000 1.0
C      1  0.4004810000000  0.5684630000000  0.6113000000000 1.0
C      1  0.5995190000000  0.4315370000000  0.3886990000000 1.0
C      1  0.5995190000000  0.5684630000000  0.6113000000000 1.0
C      1  0.7124370000000  0.6223740000000  0.5657150000000 1.0
C      1  0.7124360000000  0.3776250000000  0.4342850000000 1.0
C      1  0.2875630000000  0.6223740000000  0.5657150000000 1.0
C      1  0.2875640000000  0.3776250000000  0.4342850000000 1.0
C      1  0.6829840000000  0.4223710000000  0.6895350000000 1.0
C      1  0.6829830000000  0.5776290000000  0.3104650000000 1.0
C      1  0.3170160000000  0.4223710000000  0.6895350000000 1.0
C      1  0.3170170000000  0.5776290000000  0.3104650000000 1.0
C      1  0.4522950000000  0.7164320000000  0.6270380000000 1.0
C      1  0.4522950000000  0.2835560000000  0.3729530000000 1.0
C      1  0.5477050000000  0.7164320000000  0.6270380000000 1.0
C      1  0.5477050000000  0.2835560000000  0.3729530000000 1.0
C      1  0.3413900000000  0.3927960000000  0.5960870000000 1.0
C      1  0.3413900000000  0.6072040000000  0.4039130000000 1.0
C      1  0.6586100000000  0.3927960000000  0.5960870000000 1.0
C      1  0.6586100000000  0.6072040000000  0.4039130000000 1.0
C      1  0.6542400000000  0.5199490000000  0.7034250000000 1.0
C      1  0.6542400000000  0.4800510000000  0.2965740000000 1.0
C      1  0.3457600000000  0.5199490000000  0.7034250000000 1.0
C      1  0.3457600000000  0.4800510000000  0.2965740000000 1.0
C      1  0.5489900000000  0.4977010000000  0.3164530000000 1.0
C      1  0.5489910000000  0.5023000000000  0.6835470000000 1.0
C      1  0.4510100000000  0.4977010000000  0.3164530000000 1.0
C      1  0.4510090000000  0.5023000000000  0.6835470000000 1.0
C      1  0.3431880000000  0.3114750000000  0.3953950000000 1.0
C      1  0.3431890000000  0.6885250000000  0.6046060000000 1.0
C      1  0.6568120000000  0.3114750000000  0.3953950000000 1.0
C      1  0.6568110000000  0.6885250000000  0.6046060000000 1.0
C      1  0.4023310000000  0.7382420000000  0.5346800000000 1.0
C      1  0.4023410000000  0.2617790000000  0.4653200000000 1.0
C      1  0.5976690000000  0.7382420000000  0.5346800000000 1.0
C      1  0.5976590000000  0.2617790000000  0.4653200000000 1.0
C      1  0.4423800000000  0.5993940000000  0.3501190000000 1.0
C      1  0.4423800000000  0.4006050000000  0.6498780000000 1.0
C      1  0.5576200000000  0.5993940000000  0.3501190000000 1.0
C      1  0.5576200000000  0.4006050000000  0.6498780000000 1.0
END
