TITL C-3036480-97-555 0.0909945440020305 3375 -335.935354548899 0 0 60 (Cs) n - 1
REM
REM in /home/bkarasulu/work/CARBON/AIRSS/Generating-Clusters/REBO/Higher-Symm/Only-C60
REM
REM
REM
REM
REM
REM ./C.cell (a2850807a9bf4ad07a5b6933b78d9264)
REM AIRSS Version 0.9.1 bugfix July 2018 build 013d7b7c2542+ Fri, 06 Jul 2018 19:26:36 +0100
REM compiler GCC version 9.2.1 20190827 (Red Hat 9.2.1-1)
REM options -cpp -mtune=generic -march=x86-64 -g -O0 -fpre-include=/usr/include/finclude/math-vector-fortran.h
REM seed 1178372397 -1227848891 -1975109473 1079286473 738881624 -749910617 -1142623951 -2114002078 1477904314 1905752994 -234873338 -1102034610 454790367 -1609189788 1598395857 845076623 -534065745 1105757319 -1294732581 1461147837 -126967516 -1274315083 -1896717593 2036921209 -26342062 181804019 -810179041 2048967716 1761188034 -750928432 -614661070 1470698482 1742954526
REM
CELL 1.54180   15.00000   15.00000   15.00000   90.00000   90.00000   90.00000
LATT -1
SFAC C  
C      1  0.4973470000000  0.4592540000000  0.3657540000000 1.0
C      1  0.4973450000000  0.4592620000000  0.6342420000000 1.0
C      1  0.3090030000000  0.3480630000000  0.3834600000000 1.0
C      1  0.3090030000000  0.3480630000000  0.6165420000000 1.0
C      1  0.5187160000000  0.7394180000000  0.5522550000000 1.0
C      1  0.5187060000000  0.7394210000000  0.4477500000000 1.0
C      1  0.6243290000000  0.7019240000000  0.5571270000000 1.0
C      1  0.6243280000000  0.7019290000000  0.4428860000000 1.0
C      1  0.7722340000000  0.4664440000000  0.6022320000000 1.0
C      1  0.7722470000000  0.4664370000000  0.3977810000000 1.0
C      1  0.5960370000000  0.4369760000000  0.6528280000000 1.0
C      1  0.5960420000000  0.4369720000000  0.3471660000000 1.0
C      1  0.4363500000000  0.4237880000000  0.2839850000000 1.0
C      1  0.4363570000000  0.4237910000000  0.7160040000000 1.0
C      1  0.5822250000000  0.5881830000000  0.7108020000000 1.0
C      1  0.5822280000000  0.5881810000000  0.2891990000000 1.0
C      1  0.4729240000000  0.6269500000000  0.6067790000000 1.0
C      1  0.4729120000000  0.6269600000000  0.3932150000000 1.0
C      1  0.3438140000000  0.6137060000000  0.5578250000000 1.0
C      1  0.3438130000000  0.6137070000000  0.4421760000000 1.0
C      1  0.4337110000000  0.2553220000000  0.4505280000000 1.0
C      1  0.4337090000000  0.2553210000000  0.5494700000000 1.0
C      1  0.3382470000000  0.4358490000000  0.3152780000000 1.0
C      1  0.3382490000000  0.4358490000000  0.6847230000000 1.0
C      1  0.4247420000000  0.5875150000000  0.3112030000000 1.0
C      1  0.4247470000000  0.5875120000000  0.6887930000000 1.0
C      1  0.4938900000000  0.5688350000000  0.7487060000000 1.0
C      1  0.4938900000000  0.5688270000000  0.2513010000000 1.0
C      1  0.5695580000000  0.6543840000000  0.6387430000000 1.0
C      1  0.5695620000000  0.6543790000000  0.3612680000000 1.0
C      1  0.6419970000000  0.5149870000000  0.3143060000000 1.0
C      1  0.6419920000000  0.5149980000000  0.6856820000000 1.0
C      1  0.2957300000000  0.5155530000000  0.4505460000000 1.0
C      1  0.2957310000000  0.5155520000000  0.5494560000000 1.0
C      1  0.5027670000000  0.5405090000000  0.5558510000000 1.0
C      1  0.5027430000000  0.5405120000000  0.4441230000000 1.0
C      1  0.5861970000000  0.3752710000000  0.5572720000000 1.0
C      1  0.5862070000000  0.3752840000000  0.4427360000000 1.0
C      1  0.6127870000000  0.5243300000000  0.5542780000000 1.0
C      1  0.6127430000000  0.5243660000000  0.4456900000000 1.0
C      1  0.4951260000000  0.3250100000000  0.4068650000000 1.0
C      1  0.4951220000000  0.3250030000000  0.5931360000000 1.0
C      1  0.6821060000000  0.4356510000000  0.4465960000000 1.0
C      1  0.6821180000000  0.4355960000000  0.5534230000000 1.0
C      1  0.7181650000000  0.5419760000000  0.6330310000000 1.0
C      1  0.7181530000000  0.5419580000000  0.3669750000000 1.0
C      1  0.4501910000000  0.4170760000000  0.4522410000000 1.0
C      1  0.4501920000000  0.4170760000000  0.5477630000000 1.0
C      1  0.4790890000000  0.3372280000000  0.3046190000000 1.0
C      1  0.4790830000000  0.3372240000000  0.6953830000000 1.0
C      1  0.3308880000000  0.2754310000000  0.5571810000000 1.0
C      1  0.3308890000000  0.2754310000000  0.4428200000000 1.0
C      1  0.6850890000000  0.6109880000000  0.4432630000000 1.0
C      1  0.6850880000000  0.6109890000000  0.5567390000000 1.0
C      1  0.4147890000000  0.6984600000000  0.5553560000000 1.0
C      1  0.4147800000000  0.6984650000000  0.4446440000000 1.0
C      1  0.3546050000000  0.4359570000000  0.5775570000000 1.0
C      1  0.3546040000000  0.4359580000000  0.4224450000000 1.0
C      1  0.3373790000000  0.5449700000000  0.3491550000000 1.0
C      1  0.3373820000000  0.5449700000000  0.6508460000000 1.0
END
