TITL C-3036479-9801-623 9.59948025795969e-07 3375 -346.95998722892 0 0 60 (S12) n - 1
REM
REM in /home/bkarasulu/work/CARBON/AIRSS/Generating-Clusters/REBO/Higher-Symm/Only-C60
REM
REM
REM
REM
REM
REM ./C.cell (a2850807a9bf4ad07a5b6933b78d9264)
REM AIRSS Version 0.9.1 bugfix July 2018 build 013d7b7c2542+ Fri, 06 Jul 2018 19:26:36 +0100
REM compiler GCC version 9.2.1 20190827 (Red Hat 9.2.1-1)
REM options -cpp -mtune=generic -march=x86-64 -g -O0 -fpre-include=/usr/include/finclude/math-vector-fortran.h
REM seed -991458476 19751540 1342151398 -371486469 522636803 -2056285340 1091437280 -953020268 356872323 -1241883284 -2112530160 -351552715 1036110320 351380630 1498344637 167021147 534296002 1940218971 -442619980 -1322647178 198943672 -1001933490 1168884031 -923846908 -474644645 -850467082 1570325474 630889503 -1211063205 1587264795 1311892424 1589808996 -474752422
REM
CELL 1.54180   15.00000   15.00000   15.00000   90.00000   90.00000   90.00000
LATT -1
SFAC C  
C      1  0.5244560000000  0.6704260000000  0.5354240000000 1.0
C      1  0.6063910000000  0.6353650000000  0.4645700000000 1.0
C      1  0.6598220000000  0.5640350000000  0.5354220000000 1.0
C      1  0.6704250000000  0.4755440000000  0.4645700000000 1.0
C      1  0.6353660000000  0.3936090000000  0.5354250000000 1.0
C      1  0.5640340000000  0.3401790000000  0.4645740000000 1.0
C      1  0.4755460000000  0.3295750000000  0.5354290000000 1.0
C      1  0.3936080000000  0.3646340000000  0.4645770000000 1.0
C      1  0.3401800000000  0.4359660000000  0.5354310000000 1.0
C      1  0.3295740000000  0.5244550000000  0.4645770000000 1.0
C      1  0.3646350000000  0.6063920000000  0.5354280000000 1.0
C      1  0.4359650000000  0.6598200000000  0.4645730000000 1.0
C      1  0.4860370000000  0.6783080000000  0.6864050000000 1.0
C      1  0.5770520000000  0.6613990000000  0.3135890000000 1.0
C      1  0.6474380000000  0.6012520000000  0.6864030000000 1.0
C      1  0.6783010000000  0.5139660000000  0.3135880000000 1.0
C      1  0.6614060000000  0.4229460000000  0.6864040000000 1.0
C      1  0.6012450000000  0.3525650000000  0.3135920000000 1.0
C      1  0.5139720000000  0.3216970000000  0.6864090000000 1.0
C      1  0.4229390000000  0.3385960000000  0.3135970000000 1.0
C      1  0.3525710000000  0.3987530000000  0.6864120000000 1.0
C      1  0.3216900000000  0.4860300000000  0.3135970000000 1.0
C      1  0.3386030000000  0.5770590000000  0.6864100000000 1.0
C      1  0.3987460000000  0.6474310000000  0.3135940000000 1.0
C      1  0.6495140000000  0.3331720000000  0.6686620000000 1.0
C      1  0.5460610000000  0.2807640000000  0.3313370000000 1.0
C      1  0.4302790000000  0.2871080000000  0.6686680000000 1.0
C      1  0.3331660000000  0.3504870000000  0.3313420000000 1.0
C      1  0.2807700000000  0.4539370000000  0.6686700000000 1.0
C      1  0.2871010000000  0.5697220000000  0.3313400000000 1.0
C      1  0.3504940000000  0.6668320000000  0.6686650000000 1.0
C      1  0.4539320000000  0.7192320000000  0.3313340000000 1.0
C      1  0.5697280000000  0.7128970000000  0.6686600000000 1.0
C      1  0.6668260000000  0.6495080000000  0.3313300000000 1.0
C      1  0.7192380000000  0.5460660000000  0.6686590000000 1.0
C      1  0.7128900000000  0.4302740000000  0.3313310000000 1.0
C      1  0.5275500000000  0.6904270000000  0.4048120000000 1.0
C      1  0.6190770000000  0.6511410000000  0.5951810000000 1.0
C      1  0.6786890000000  0.5713520000000  0.4048090000000 1.0
C      1  0.6904300000000  0.4724490000000  0.5951820000000 1.0
C      1  0.6511370000000  0.3809240000000  0.4048120000000 1.0
C      1  0.5713550000000  0.3213100000000  0.5951860000000 1.0
C      1  0.4724460000000  0.3095700000000  0.4048170000000 1.0
C      1  0.3809280000000  0.3488620000000  0.5951900000000 1.0
C      1  0.3213060000000  0.4286450000000  0.4048190000000 1.0
C      1  0.3095740000000  0.5275530000000  0.5951900000000 1.0
C      1  0.3488580000000  0.6190740000000  0.4048170000000 1.0
C      1  0.4286490000000  0.6786930000000  0.5951850000000 1.0
C      1  0.4228110000000  0.4435930000000  0.7334560000000 1.0
C      1  0.4049370000000  0.4897420000000  0.2665490000000 1.0
C      1  0.4125550000000  0.5386500000000  0.7334550000000 1.0
C      1  0.4435840000000  0.5771920000000  0.2665470000000 1.0
C      1  0.4897500000000  0.5950600000000  0.7334530000000 1.0
C      1  0.5386420000000  0.5874470000000  0.2665440000000 1.0
C      1  0.5772000000000  0.5564130000000  0.7334510000000 1.0
C      1  0.5950520000000  0.5102530000000  0.2665440000000 1.0
C      1  0.5874550000000  0.4613560000000  0.7334520000000 1.0
C      1  0.5564050000000  0.4228030000000  0.2665460000000 1.0
C      1  0.5102610000000  0.4049450000000  0.7334550000000 1.0
C      1  0.4613470000000  0.4125470000000  0.2665480000000 1.0
END
