TITL C-3036485-3770-489 -0.00153426701024018 3375 -352.157053914805 0 0 60 (Ci) n - 1
REM
REM in /home/bkarasulu/work/CARBON/AIRSS/Generating-Clusters/REBO/Higher-Symm/Only-C60
REM
REM
REM
REM
REM
REM ./C.cell (a2850807a9bf4ad07a5b6933b78d9264)
REM AIRSS Version 0.9.1 bugfix July 2018 build 013d7b7c2542+ Fri, 06 Jul 2018 19:26:36 +0100
REM compiler GCC version 9.2.1 20190827 (Red Hat 9.2.1-1)
REM options -cpp -mtune=generic -march=x86-64 -g -O0 -fpre-include=/usr/include/finclude/math-vector-fortran.h
REM seed -30667334 -2102544719 -1019084100 -1070924908 521535892 -1525440266 83660515 591374278 -906686539 596089278 572071035 -1238025228 205287328 -794422977 1009155441 1016675601 1380155613 -1929151271 -1600336872 -1248512374 -1094527626 267079358 1126752388 -367443447 -1277263296 1736620397 712103715 35057614 -12493766 -184014454 1073948945 -966449645 -2075208147
REM
CELL 1.54180   15.00000   15.00000   15.00000   90.00000   90.00000   90.00000
LATT -1
SFAC C  
C      1  0.5287720000000  0.4545880000000  0.2588080000000 1.0
C      1  0.5263350000000  0.3119840000000  0.6653850000000 1.0
C      1  0.5258220000000  0.7289060000000  0.5775750000000 1.0
C      1  0.4732800000000  0.4501930000000  0.7440950000000 1.0
C      1  0.4758660000000  0.3174330000000  0.3396610000000 1.0
C      1  0.4738800000000  0.7324300000000  0.4183200000000 1.0
C      1  0.4711340000000  0.5453100000000  0.7412020000000 1.0
C      1  0.4737670000000  0.6879520000000  0.3345580000000 1.0
C      1  0.4741290000000  0.2710530000000  0.4224080000000 1.0
C      1  0.5268390000000  0.5497010000000  0.2559400000000 1.0
C      1  0.5240480000000  0.6824800000000  0.6603040000000 1.0
C      1  0.5261810000000  0.2675660000000  0.5816020000000 1.0
C      1  0.6454940000000  0.3038860000000  0.4411120000000 1.0
C      1  0.6464850000000  0.5473380000000  0.7097380000000 1.0
C      1  0.6430500000000  0.6443300000000  0.3540610000000 1.0
C      1  0.3575160000000  0.3113140000000  0.5595350000000 1.0
C      1  0.3526130000000  0.5497820000000  0.2907050000000 1.0
C      1  0.3464920000000  0.6574500000000  0.6475640000000 1.0
C      1  0.3544580000000  0.6961740000000  0.5587830000000 1.0
C      1  0.3534140000000  0.4525970000000  0.2903220000000 1.0
C      1  0.3570480000000  0.3557640000000  0.6460430000000 1.0
C      1  0.6425240000000  0.6887160000000  0.4406040000000 1.0
C      1  0.6475040000000  0.4501480000000  0.7092710000000 1.0
C      1  0.6533860000000  0.3426270000000  0.3523440000000 1.0
C      1  0.3460520000000  0.5564050000000  0.6491100000000 1.0
C      1  0.3528630000000  0.5947940000000  0.3805200000000 1.0
C      1  0.3560310000000  0.3631360000000  0.4676760000000 1.0
C      1  0.6499840000000  0.5408940000000  0.3525780000000 1.0
C      1  0.6456660000000  0.5915220000000  0.6195280000000 1.0
C      1  0.6468930000000  0.3577100000000  0.5320710000000 1.0
C      1  0.6538540000000  0.4436540000000  0.3508210000000 1.0
C      1  0.6472350000000  0.4051820000000  0.6194290000000 1.0
C      1  0.6439330000000  0.6368430000000  0.5324530000000 1.0
C      1  0.3500540000000  0.4591930000000  0.6474120000000 1.0
C      1  0.3542690000000  0.4084530000000  0.3805600000000 1.0
C      1  0.3531530000000  0.6422930000000  0.4678270000000 1.0
C      1  0.4372100000000  0.3532730000000  0.7062480000000 1.0
C      1  0.4381410000000  0.7371490000000  0.5191190000000 1.0
C      1  0.4412300000000  0.3999800000000  0.2802140000000 1.0
C      1  0.5654350000000  0.3588850000000  0.2991470000000 1.0
C      1  0.5629820000000  0.7403670000000  0.4758080000000 1.0
C      1  0.5612420000000  0.3967060000000  0.7208570000000 1.0
C      1  0.5629330000000  0.6466910000000  0.2937060000000 1.0
C      1  0.5618470000000  0.2628990000000  0.4807980000000 1.0
C      1  0.5586330000000  0.5999300000000  0.7197570000000 1.0
C      1  0.4344220000000  0.6411570000000  0.7009010000000 1.0
C      1  0.4370300000000  0.2596810000000  0.5241930000000 1.0
C      1  0.4389150000000  0.6031960000000  0.2791400000000 1.0
C      1  0.4538310000000  0.3912560000000  0.5145700000000 1.0
C      1  0.4430930000000  0.5459450000000  0.6082250000000 1.0
C      1  0.4416290000000  0.5531950000000  0.4253710000000 1.0
C      1  0.5557300000000  0.3958040000000  0.4765340000000 1.0
C      1  0.5468720000000  0.5621760000000  0.3949010000000 1.0
C      1  0.5529520000000  0.5519640000000  0.5792510000000 1.0
C      1  0.5461680000000  0.6088050000000  0.4855110000000 1.0
C      1  0.5567880000000  0.4541260000000  0.3917630000000 1.0
C      1  0.5584520000000  0.4467900000000  0.5746400000000 1.0
C      1  0.4442720000000  0.6042250000000  0.5234380000000 1.0
C      1  0.4531730000000  0.4379750000000  0.6051770000000 1.0
C      1  0.4469990000000  0.4480240000000  0.4208040000000 1.0
END
