TITL C-3036484-3770-1167 -6.19676531489256e-06 3375 -373.015894549797 0 0 60 (C5) n - 1
REM
REM in /home/bkarasulu/work/CARBON/AIRSS/Generating-Clusters/REBO/Higher-Symm/Only-C60
REM
REM
REM
REM
REM
REM ./C.cell (a2850807a9bf4ad07a5b6933b78d9264)
REM AIRSS Version 0.9.1 bugfix July 2018 build 013d7b7c2542+ Fri, 06 Jul 2018 19:26:36 +0100
REM compiler GCC version 9.2.1 20190827 (Red Hat 9.2.1-1)
REM options -cpp -mtune=generic -march=x86-64 -g -O0 -fpre-include=/usr/include/finclude/math-vector-fortran.h
REM seed -1319991806 2012180820 2106702454 1854953586 -533697212 479033181 -490382683 332150913 653965170 690139427 1329591979 852261034 2107420400 -736950304 -1518721739 -753911472 -1910127830 -775059069 316019852 -1110154534 -257242201 763708548 -1741309693 10393648 -755653596 -1622339222 -724558861 2018204235 463818972 -754744612 1388195509 -1253898627 308202296
REM
CELL 1.54180   15.00000   15.00000   15.00000   90.00000   90.00000   90.00000
LATT -1
SFAC C  
C      1  0.2542310000000  0.4101900000000  0.5738730000000 1.0
C      1  0.3386390000000  0.7059880000000  0.5738720000000 1.0
C      1  0.6460440000000  0.7171180000000  0.5738690000000 1.0
C      1  0.7516220000000  0.4281980000000  0.5738670000000 1.0
C      1  0.5094680000000  0.2385060000000  0.5738700000000 1.0
C      1  0.5657570000000  0.4478180000000  0.3333070000000 1.0
C      1  0.4706910000000  0.4213340000000  0.3333090000000 1.0
C      1  0.4161260000000  0.5035640000000  0.3333090000000 1.0
C      1  0.4774700000000  0.5808680000000  0.3333090000000 1.0
C      1  0.5699470000000  0.5464150000000  0.3333080000000 1.0
C      1  0.3340990000000  0.2888780000000  0.5040810000000 1.0
C      1  0.2479450000000  0.5925410000000  0.5040820000000 1.0
C      1  0.5101230000000  0.7683150000000  0.5040790000000 1.0
C      1  0.7583110000000  0.5732870000000  0.5040760000000 1.0
C      1  0.6495230000000  0.2769780000000  0.5040770000000 1.0
C      1  0.2972570000000  0.4298840000000  0.4206600000000 1.0
C      1  0.3706640000000  0.6711520000000  0.4206600000000 1.0
C      1  0.6228070000000  0.6758940000000  0.4206570000000 1.0
C      1  0.7052340000000  0.4375570000000  0.4206560000000 1.0
C      1  0.5040330000000  0.2855140000000  0.4206580000000 1.0
C      1  0.4993920000000  0.6688530000000  0.6355720000000 1.0
C      1  0.6604020000000  0.5527580000000  0.6355700000000 1.0
C      1  0.5997440000000  0.3637530000000  0.6355710000000 1.0
C      1  0.4012450000000  0.3630370000000  0.6355730000000 1.0
C      1  0.3392250000000  0.5515990000000  0.6355740000000 1.0
C      1  0.5962770000000  0.5065640000000  0.5254510000000 1.0
C      1  0.5359940000000  0.4104640000000  0.5254510000000 1.0
C      1  0.4259690000000  0.4381000000000  0.5254520000000 1.0
C      1  0.4182530000000  0.5512800000000  0.5254530000000 1.0
C      1  0.5235090000000  0.5935920000000  0.5254520000000 1.0
C      1  0.4736810000000  0.2208430000000  0.4863230000000 1.0
C      1  0.2263720000000  0.4387660000000  0.4863260000000 1.0
C      1  0.3572080000000  0.7413130000000  0.4863250000000 1.0
C      1  0.6853770000000  0.7103730000000  0.4863210000000 1.0
C      1  0.7573610000000  0.3887050000000  0.4863200000000 1.0
C      1  0.6280380000000  0.3963700000000  0.3841300000000 1.0
C      1  0.4410060000000  0.3462040000000  0.3841320000000 1.0
C      1  0.3355010000000  0.5085800000000  0.3841330000000 1.0
C      1  0.4573260000000  0.6590980000000  0.3841320000000 1.0
C      1  0.6381230000000  0.5897490000000  0.3841300000000 1.0
C      1  0.3796120000000  0.2090320000000  0.4867240000000 1.0
C      1  0.1860710000000  0.5245820000000  0.4867270000000 1.0
C      1  0.4263690000000  0.8061600000000  0.4867240000000 1.0
C      1  0.7684220000000  0.6646360000000  0.4867200000000 1.0
C      1  0.7395250000000  0.2955900000000  0.4867200000000 1.0
C      1  0.3494260000000  0.4581370000000  0.6072120000000 1.0
C      1  0.4136570000000  0.6302690000000  0.6072120000000 1.0
C      1  0.5972120000000  0.6223730000000  0.6072100000000 1.0
C      1  0.6464250000000  0.4453620000000  0.6072090000000 1.0
C      1  0.4932850000000  0.3438580000000  0.6072110000000 1.0
C      1  0.5499320000000  0.7452930000000  0.5891520000000 1.0
C      1  0.7487180000000  0.5283130000000  0.5891490000000 1.0
C      1  0.6037860000000  0.2722050000000  0.5891510000000 1.0
C      1  0.3154260000000  0.3309020000000  0.5891540000000 1.0
C      1  0.2821430000000  0.6232870000000  0.5891550000000 1.0
C      1  0.3374560000000  0.5819980000000  0.4535220000000 1.0
C      1  0.5277560000000  0.6799270000000  0.4535200000000 1.0
C      1  0.6796980000000  0.5292030000000  0.4535180000000 1.0
C      1  0.5833030000000  0.3381210000000  0.4535190000000 1.0
C      1  0.3717860000000  0.3707500000000  0.4535210000000 1.0
END
