TITL C-3036483-1610-244 -0.00507422987133316 3375 -337.701026079851 0 0 60 (Ci) n - 1
REM
REM in /home/bkarasulu/work/CARBON/AIRSS/Generating-Clusters/REBO/Higher-Symm/Only-C60
REM
REM
REM
REM
REM
REM ./C.cell (a2850807a9bf4ad07a5b6933b78d9264)
REM AIRSS Version 0.9.1 bugfix July 2018 build 013d7b7c2542+ Fri, 06 Jul 2018 19:26:36 +0100
REM compiler GCC version 9.2.1 20190827 (Red Hat 9.2.1-1)
REM options -cpp -mtune=generic -march=x86-64 -g -O0 -fpre-include=/usr/include/finclude/math-vector-fortran.h
REM seed 1214214425 -1459448957 -1730413284 326009569 -1145477571 2013133404 1891409805 -1206109227 2088696149 143262323 832875813 -510921498 -534303452 81236623 1114288963 -778491034 -1328198829 -922502894 -1563142305 1707258811 326059760 -290792159 792959399 -2106687803 958111427 -86146232 1626918094 -276026763 -826578379 434674770 -1647796825 -1807418108 -164190333
REM
CELL 1.54180   15.00000   15.00000   15.00000   90.00000   90.00000   90.00000
LATT -1
SFAC C  
C      1  0.5489630000000  0.3996310000000  0.5694810000000 1.0
C      1  0.5725260000000  0.5955550000000  0.5224320000000 1.0
C      1  0.5794390000000  0.4027230000000  0.4807370000000 1.0
C      1  0.5453460000000  0.5997110000000  0.4322970000000 1.0
C      1  0.5047610000000  0.4041100000000  0.4240260000000 1.0
C      1  0.4510740000000  0.6003700000000  0.4305310000000 1.0
C      1  0.4274820000000  0.4044340000000  0.4775640000000 1.0
C      1  0.4205660000000  0.5972330000000  0.5192800000000 1.0
C      1  0.4546470000000  0.4002990000000  0.5676970000000 1.0
C      1  0.4952450000000  0.5958870000000  0.5759430000000 1.0
C      1  0.4104630000000  0.3263930000000  0.3709610000000 1.0
C      1  0.3441300000000  0.6784270000000  0.4464440000000 1.0
C      1  0.3424330000000  0.3309720000000  0.5489320000000 1.0
C      1  0.4014890000000  0.6776980000000  0.6237820000000 1.0
C      1  0.4996260000000  0.3147800000000  0.6594060000000 1.0
C      1  0.5895500000000  0.6736180000000  0.6290640000000 1.0
C      1  0.6558590000000  0.3215930000000  0.5535280000000 1.0
C      1  0.6575730000000  0.6690170000000  0.4510690000000 1.0
C      1  0.5985110000000  0.3223030000000  0.3762360000000 1.0
C      1  0.5003490000000  0.6852010000000  0.3405840000000 1.0
C      1  0.4218510000000  0.5348490000000  0.7757450000000 1.0
C      1  0.6493300000000  0.5022510000000  0.7340580000000 1.0
C      1  0.7302510000000  0.5358730000000  0.6718420000000 1.0
C      1  0.7927830000000  0.4685070000000  0.4715020000000 1.0
C      1  0.6652720000000  0.4977290000000  0.2774490000000 1.0
C      1  0.5781560000000  0.4651540000000  0.2242550000000 1.0
C      1  0.3506730000000  0.4977450000000  0.2659360000000 1.0
C      1  0.2697570000000  0.4641290000000  0.3281600000000 1.0
C      1  0.2072130000000  0.5314950000000  0.5284970000000 1.0
C      1  0.3347180000000  0.5022770000000  0.7225580000000 1.0
C      1  0.6031190000000  0.6497550000000  0.3573040000000 1.0
C      1  0.5071000000000  0.3561640000000  0.3288490000000 1.0
C      1  0.3965970000000  0.6519330000000  0.3541560000000 1.0
C      1  0.3357180000000  0.3617370000000  0.4428070000000 1.0
C      1  0.3295780000000  0.6436810000000  0.5490740000000 1.0
C      1  0.3968850000000  0.3502480000000  0.6427120000000 1.0
C      1  0.4928820000000  0.6438340000000  0.6711470000000 1.0
C      1  0.6033770000000  0.3480730000000  0.6458610000000 1.0
C      1  0.6642890000000  0.6382580000000  0.5571820000000 1.0
C      1  0.6704240000000  0.3563320000000  0.4509210000000 1.0
C      1  0.7509850000000  0.4342840000000  0.6831840000000 1.0
C      1  0.7930310000000  0.5394710000000  0.5268410000000 1.0
C      1  0.7239120000000  0.4489730000000  0.3293530000000 1.0
C      1  0.5798790000000  0.5673750000000  0.2039320000000 1.0
C      1  0.4198290000000  0.4487860000000  0.2292690000000 1.0
C      1  0.2490250000000  0.5657190000000  0.3168120000000 1.0
C      1  0.2069500000000  0.4605260000000  0.4731560000000 1.0
C      1  0.2761080000000  0.5510380000000  0.6706410000000 1.0
C      1  0.4201210000000  0.4326290000000  0.7960580000000 1.0
C      1  0.5801700000000  0.5512160000000  0.7707330000000 1.0
C      1  0.3418360000000  0.6024560000000  0.2884250000000 1.0
C      1  0.2608510000000  0.4185710000000  0.4092950000000 1.0
C      1  0.2588300000000  0.5840810000000  0.5852710000000 1.0
C      1  0.3581520000000  0.3979780000000  0.7201400000000 1.0
C      1  0.4957890000000  0.5861710000000  0.7518320000000 1.0
C      1  0.6581700000000  0.3975450000000  0.7115770000000 1.0
C      1  0.7391460000000  0.5814280000000  0.5907050000000 1.0
C      1  0.7411730000000  0.4159230000000  0.4147270000000 1.0
C      1  0.6418310000000  0.6020110000000  0.2798750000000 1.0
C      1  0.5042080000000  0.4138380000000  0.2481640000000 1.0
END
