TITL C-3036481-494-390 1.26549056701324e-06 3375 -354.393179831544 0 0 60 (C3) n - 1
REM
REM in /home/bkarasulu/work/CARBON/AIRSS/Generating-Clusters/REBO/Higher-Symm/Only-C60
REM
REM
REM
REM
REM
REM ./C.cell (a2850807a9bf4ad07a5b6933b78d9264)
REM AIRSS Version 0.9.1 bugfix July 2018 build 013d7b7c2542+ Fri, 06 Jul 2018 19:26:36 +0100
REM compiler GCC version 9.2.1 20190827 (Red Hat 9.2.1-1)
REM options -cpp -mtune=generic -march=x86-64 -g -O0 -fpre-include=/usr/include/finclude/math-vector-fortran.h
REM seed -1851847169 -589344265 2000615885 -1722730422 720728160 -1406628216 977914868 -1628950914 -1485752826 798583395 1944882080 1204141886 1115757649 -1271052080 -1370541094 373194511 372839328 744550249 348970540 -746192356 1118110329 -651571907 -1304948026 -1721725529 910013936 -1412051653 644045999 475389654 -1999830522 -999775292 751962556 -329137390 194708117
REM
CELL 1.54180   15.00000   15.00000   15.00000   90.00000   90.00000   90.00000
LATT -1
SFAC C  
C      1  0.4228340000000  0.3367470000000  0.6675510000000 1.0
C      1  0.3934920000000  0.3367340000000  0.3494030000000 1.0
C      1  0.6836870000000  0.3367470000000  0.4830660000000 1.0
C      1  0.4326480000000  0.5931150000000  0.7015570000000 1.0
C      1  0.3591160000000  0.5930990000000  0.3408900000000 1.0
C      1  0.7082290000000  0.5931130000000  0.4575420000000 1.0
C      1  0.4020060000000  0.2947620000000  0.5769710000000 1.0
C      1  0.4823530000000  0.2947560000000  0.3766560000000 1.0
C      1  0.6156570000000  0.2947670000000  0.5463960000000 1.0
C      1  0.4140390000000  0.3928470000000  0.4355760000000 1.0
C      1  0.5987810000000  0.3928530000000  0.4577720000000 1.0
C      1  0.4871880000000  0.3928560000000  0.6066650000000 1.0
C      1  0.3830660000000  0.5337230000000  0.5617010000000 1.0
C      1  0.5050300000000  0.5337190000000  0.3678810000000 1.0
C      1  0.6119010000000  0.5337300000000  0.5704150000000 1.0
C      1  0.3257230000000  0.4994650000000  0.3622560000000 1.0
C      1  0.7064290000000  0.4994780000000  0.4179440000000 1.0
C      1  0.4678480000000  0.4994830000000  0.7198010000000 1.0
C      1  0.4606670000000  0.4826680000000  0.5883440000000 1.0
C      1  0.4431600000000  0.4826610000000  0.4217650000000 1.0
C      1  0.5961750000000  0.4826680000000  0.4898930000000 1.0
C      1  0.5869410000000  0.5556010000000  0.4196360000000 1.0
C      1  0.5261220000000  0.5556070000000  0.6154730000000 1.0
C      1  0.3869320000000  0.5555970000000  0.4648840000000 1.0
C      1  0.6362410000000  0.4213420000000  0.6458820000000 1.0
C      1  0.3055480000000  0.4213300000000  0.5450500000000 1.0
C      1  0.5582170000000  0.4213270000000  0.3090770000000 1.0
C      1  0.5810180000000  0.5023690000000  0.6962280000000 1.0
C      1  0.2895530000000  0.5023520000000  0.4720500000000 1.0
C      1  0.6294290000000  0.5023560000000  0.3317220000000 1.0
C      1  0.4876960000000  0.2231520000000  0.4387350000000 1.0
C      1  0.5592300000000  0.2231570000000  0.5199870000000 1.0
C      1  0.4530960000000  0.2231550000000  0.5413100000000 1.0
C      1  0.4619490000000  0.6145120000000  0.3067970000000 1.0
C      1  0.6863360000000  0.6145280000000  0.5636450000000 1.0
C      1  0.3517060000000  0.6145220000000  0.6295460000000 1.0
C      1  0.3945250000000  0.4331250000000  0.6934520000000 1.0
C      1  0.3852080000000  0.4331100000000  0.3119320000000 1.0
C      1  0.7202720000000  0.4331260000000  0.4946240000000 1.0
C      1  0.5175810000000  0.6468450000000  0.6812880000000 1.0
C      1  0.3341990000000  0.6468300000000  0.4245770000000 1.0
C      1  0.6482080000000  0.6468370000000  0.3941180000000 1.0
C      1  0.7172790000000  0.4555920000000  0.5906400000000 1.0
C      1  0.3128670000000  0.4555830000000  0.6428510000000 1.0
C      1  0.4698580000000  0.4555730000000  0.2665140000000 1.0
C      1  0.4826040000000  0.7035580000000  0.4407630000000 1.0
C      1  0.5599840000000  0.7035620000000  0.5145460000000 1.0
C      1  0.4573960000000  0.7035610000000  0.5446680000000 1.0
C      1  0.2756050000000  0.5442450000000  0.5805730000000 1.0
C      1  0.5424160000000  0.5442400000000  0.2653800000000 1.0
C      1  0.6819760000000  0.5442590000000  0.6540420000000 1.0
C      1  0.5986040000000  0.7063690000000  0.3405540000000 1.0
C      1  0.5887670000000  0.7063810000000  0.6651090000000 1.0
C      1  0.3126130000000  0.7063670000000  0.4943130000000 1.0
C      1  0.3685980000000  0.6994210000000  0.5715230000000 1.0
C      1  0.5037450000000  0.6994160000000  0.3504340000000 1.0
C      1  0.6276410000000  0.6994280000000  0.5780190000000 1.0
C      1  0.3697430000000  0.3605550000000  0.5149930000000 1.0
C      1  0.5521550000000  0.3605540000000  0.3797030000000 1.0
C      1  0.5781140000000  0.3605640000000  0.6053210000000 1.0
END
