TITL C-3036480-97-157 -0.0373879463262654 3375 -369.492429997931 0 0 60 (C1) n - 1
REM
REM in /home/bkarasulu/work/CARBON/AIRSS/Generating-Clusters/REBO/Higher-Symm/Only-C60
REM
REM
REM
REM
REM
REM ./C.cell (a2850807a9bf4ad07a5b6933b78d9264)
REM AIRSS Version 0.9.1 bugfix July 2018 build 013d7b7c2542+ Fri, 06 Jul 2018 19:26:36 +0100
REM compiler GCC version 9.2.1 20190827 (Red Hat 9.2.1-1)
REM options -cpp -mtune=generic -march=x86-64 -g -O0 -fpre-include=/usr/include/finclude/math-vector-fortran.h
REM seed -196002683 -709652925 -2053575536 -1044502476 -1340835108 -848627437 1015015919 2011908366 85033286 14635002 -1790177176 -602283995 393009067 -1131525161 -1681472734 -1011364443 -179734558 1247445792 -1115740329 691770119 1965220688 1171004875 -1086635924 1415896202 1485206826 580119245 142630074 588867429 130495318 -1094741946 730592108 2036626106 -879077487
REM
CELL 1.54180   15.00000   15.00000   15.00000   90.00000   90.00000   90.00000
LATT -1
SFAC C  
C      1  0.4562550000000  0.5676020000000  0.6311500000000 1.0
C      1  0.4570900000000  0.6311480000000  0.4335340000000 1.0
C      1  0.4575780000000  0.4346690000000  0.3700230000000 1.0
C      1  0.4585050000000  0.3711680000000  0.5666640000000 1.0
C      1  0.4536700000000  0.4636950000000  0.6330670000000 1.0
C      1  0.4558910000000  0.3683250000000  0.4626470000000 1.0
C      1  0.4543930000000  0.5384230000000  0.3669930000000 1.0
C      1  0.4541930000000  0.6328610000000  0.5377280000000 1.0
C      1  0.3520480000000  0.4305640000000  0.6198360000000 1.0
C      1  0.3512900000000  0.6214750000000  0.5701180000000 1.0
C      1  0.3520510000000  0.5707560000000  0.3788280000000 1.0
C      1  0.3531100000000  0.3781930000000  0.4297030000000 1.0
C      1  0.3463180000000  0.5416900000000  0.6417240000000 1.0
C      1  0.3487450000000  0.3581020000000  0.5408990000000 1.0
C      1  0.3474220000000  0.4593850000000  0.3592330000000 1.0
C      1  0.3470490000000  0.6419560000000  0.4592240000000 1.0
C      1  0.7108670000000  0.5881470000000  0.3417040000000 1.0
C      1  0.7121450000000  0.3427670000000  0.4071670000000 1.0
C      1  0.7046240000000  0.4109890000000  0.6742940000000 1.0
C      1  0.7106730000000  0.6517000000000  0.5880630000000 1.0
C      1  0.7094580000000  0.4034910000000  0.3226580000000 1.0
C      1  0.7110760000000  0.6717400000000  0.4036770000000 1.0
C      1  0.7086530000000  0.5926230000000  0.6734330000000 1.0
C      1  0.7148080000000  0.3436790000000  0.5958750000000 1.0
C      1  0.6278000000000  0.5454000000000  0.3188550000000 1.0
C      1  0.6308920000000  0.3245170000000  0.4552090000000 1.0
C      1  0.6222270000000  0.4562870000000  0.6921080000000 1.0
C      1  0.6287730000000  0.6780070000000  0.5449110000000 1.0
C      1  0.6280530000000  0.4500480000000  0.3054520000000 1.0
C      1  0.6297320000000  0.6917540000000  0.4496000000000 1.0
C      1  0.6256090000000  0.5522890000000  0.6977140000000 1.0
C      1  0.6339090000000  0.3185890000000  0.5512130000000 1.0
C      1  0.2520060000000  0.4485190000000  0.6533940000000 1.0
C      1  0.2511800000000  0.6537630000000  0.5507610000000 1.0
C      1  0.2520200000000  0.5511190000000  0.3455470000000 1.0
C      1  0.2533630000000  0.3443540000000  0.4491410000000 1.0
C      1  0.2387770000000  0.5462430000000  0.6671190000000 1.0
C      1  0.2412080000000  0.3311120000000  0.5470380000000 1.0
C      1  0.2395140000000  0.4531140000000  0.3342450000000 1.0
C      1  0.2389670000000  0.6670850000000  0.4529810000000 1.0
C      1  0.7931860000000  0.4419420000000  0.3724190000000 1.0
C      1  0.8000380000000  0.3787800000000  0.5470230000000 1.0
C      1  0.7865260000000  0.5471830000000  0.6187710000000 1.0
C      1  0.7919320000000  0.6171610000000  0.4426730000000 1.0
C      1  0.7953630000000  0.5361150000000  0.3758770000000 1.0
C      1  0.7931150000000  0.6125980000000  0.5367080000000 1.0
C      1  0.7865310000000  0.4522180000000  0.6218090000000 1.0
C      1  0.8002390000000  0.3751660000000  0.4535280000000 1.0
C      1  0.5474380000000  0.5870880000000  0.3465180000000 1.0
C      1  0.5490820000000  0.3490210000000  0.4144150000000 1.0
C      1  0.5444040000000  0.4155850000000  0.6580060000000 1.0
C      1  0.5474220000000  0.6534630000000  0.5863400000000 1.0
C      1  0.5509270000000  0.4032610000000  0.3304330000000 1.0
C      1  0.5516040000000  0.6697400000000  0.4025230000000 1.0
C      1  0.5495220000000  0.5999330000000  0.6709560000000 1.0
C      1  0.5545980000000  0.3361630000000  0.5983160000000 1.0
C      1  0.1971000000000  0.6201840000000  0.3819550000000 1.0
C      1  0.1979000000000  0.3819330000000  0.3811480000000 1.0
C      1  0.1983280000000  0.3783570000000  0.6173450000000 1.0
C      1  0.1963920000000  0.6167620000000  0.6197070000000 1.0
END
