TITL C-3036485-3770-571 1.11120140916046e-05 3375 -349.262941726904 0 0 60 (C1) n - 1
REM
REM in /home/bkarasulu/work/CARBON/AIRSS/Generating-Clusters/REBO/Higher-Symm/Only-C60
REM
REM
REM
REM
REM
REM ./C.cell (a2850807a9bf4ad07a5b6933b78d9264)
REM AIRSS Version 0.9.1 bugfix July 2018 build 013d7b7c2542+ Fri, 06 Jul 2018 19:26:36 +0100
REM compiler GCC version 9.2.1 20190827 (Red Hat 9.2.1-1)
REM options -cpp -mtune=generic -march=x86-64 -g -O0 -fpre-include=/usr/include/finclude/math-vector-fortran.h
REM seed 1401383366 -1370432879 1765373798 -1000221561 1625099230 1254044454 1416189730 303787801 1860508233 -1879070363 538263395 -1334144806 -2070407408 -1244836267 1215210648 532837918 -2011193875 -664182012 -1037791413 -1804841825 131388892 -1152447829 1425143237 915190388 2071788080 674283610 1584973762 91166361 583281111 926974513 -784538201 -1334973815 702507014
REM
CELL 1.54180   15.00000   15.00000   15.00000   90.00000   90.00000   90.00000
LATT -1
SFAC C  
C      1  0.2943710000000  0.4697700000000  0.3454370000000 1.0
C      1  0.7049360000000  0.5282080000000  0.3448540000000 1.0
C      1  0.4876120000000  0.7192910000000  0.5457560000000 1.0
C      1  0.5112180000000  0.2773290000000  0.5470590000000 1.0
C      1  0.6749040000000  0.6218450000000  0.4015450000000 1.0
C      1  0.3257780000000  0.3763810000000  0.4018080000000 1.0
C      1  0.6420290000000  0.6689030000000  0.4782040000000 1.0
C      1  0.3603400000000  0.3300370000000  0.4781790000000 1.0
C      1  0.6589830000000  0.6244710000000  0.5627170000000 1.0
C      1  0.3486290000000  0.3773670000000  0.5618390000000 1.0
C      1  0.5493860000000  0.3119780000000  0.2884740000000 1.0
C      1  0.4503800000000  0.6873370000000  0.2896130000000 1.0
C      1  0.3078700000000  0.5227420000000  0.6190690000000 1.0
C      1  0.6900300000000  0.4758360000000  0.6190070000000 1.0
C      1  0.5886540000000  0.5051630000000  0.4406480000000 1.0
C      1  0.4117350000000  0.4950830000000  0.4436770000000 1.0
C      1  0.4525220000000  0.4690510000000  0.2646620000000 1.0
C      1  0.5467930000000  0.5304290000000  0.2646380000000 1.0
C      1  0.6848940000000  0.5042170000000  0.4705700000000 1.0
C      1  0.3152040000000  0.4951130000000  0.4708110000000 1.0
C      1  0.6079410000000  0.5753860000000  0.3239410000000 1.0
C      1  0.3919000000000  0.4237980000000  0.3242500000000 1.0
C      1  0.4435790000000  0.2813990000000  0.4715000000000 1.0
C      1  0.5579190000000  0.7168140000000  0.4728400000000 1.0
C      1  0.4571200000000  0.3973240000000  0.4079370000000 1.0
C      1  0.5434800000000  0.6018360000000  0.4080500000000 1.0
C      1  0.4450870000000  0.5785820000000  0.2769730000000 1.0
C      1  0.5541340000000  0.4208430000000  0.2766540000000 1.0
C      1  0.5061740000000  0.5569800000000  0.5764070000000 1.0
C      1  0.4905970000000  0.4597660000000  0.5616050000000 1.0
C      1  0.3671290000000  0.5066790000000  0.6911510000000 1.0
C      1  0.6319650000000  0.4930540000000  0.6916730000000 1.0
C      1  0.5077270000000  0.6787760000000  0.6297360000000 1.0
C      1  0.4897000000000  0.3238400000000  0.6283890000000 1.0
C      1  0.2975480000000  0.4569720000000  0.5527300000000 1.0
C      1  0.7032950000000  0.5411230000000  0.5526850000000 1.0
C      1  0.6436780000000  0.3327360000000  0.6521250000000 1.0
C      1  0.3541310000000  0.6647910000000  0.6514210000000 1.0
C      1  0.3927660000000  0.6260130000000  0.3670630000000 1.0
C      1  0.6056540000000  0.3731380000000  0.3670670000000 1.0
C      1  0.5476900000000  0.4393280000000  0.8298260000000 1.0
C      1  0.4529470000000  0.5600810000000  0.8289360000000 1.0
C      1  0.6614230000000  0.3741470000000  0.4880470000000 1.0
C      1  0.3356010000000  0.6256630000000  0.4874900000000 1.0
C      1  0.3050490000000  0.5706010000000  0.3929110000000 1.0
C      1  0.6930300000000  0.4280050000000  0.3931150000000 1.0
C      1  0.3160000000000  0.6121050000000  0.5814740000000 1.0
C      1  0.6805530000000  0.3864970000000  0.5822120000000 1.0
C      1  0.4317740000000  0.3956930000000  0.6055870000000 1.0
C      1  0.5819430000000  0.6151830000000  0.6171360000000 1.0
C      1  0.4237330000000  0.6833950000000  0.4613320000000 1.0
C      1  0.5735390000000  0.3155530000000  0.4610080000000 1.0
C      1  0.4736680000000  0.5611610000000  0.4772490000000 1.0
C      1  0.5280760000000  0.4395640000000  0.4751440000000 1.0
C      1  0.4605540000000  0.5398120000000  0.7342380000000 1.0
C      1  0.5395320000000  0.4581230000000  0.7348610000000 1.0
C      1  0.5580200000000  0.3578270000000  0.6845320000000 1.0
C      1  0.4399900000000  0.6387660000000  0.6820630000000 1.0
C      1  0.5025100000000  0.6997080000000  0.3809170000000 1.0
C      1  0.4965780000000  0.2983900000000  0.3791590000000 1.0
END
