TITL C-3036482-790-528 -2.82609783365769e-06 3375 -349.78127944159 0 0 60 (D6d) n - 1
REM
REM in /home/bkarasulu/work/CARBON/AIRSS/Generating-Clusters/REBO/Higher-Symm/Only-C60
REM
REM
REM
REM
REM
REM ./C.cell (a2850807a9bf4ad07a5b6933b78d9264)
REM AIRSS Version 0.9.1 bugfix July 2018 build 013d7b7c2542+ Fri, 06 Jul 2018 19:26:36 +0100
REM compiler GCC version 9.2.1 20190827 (Red Hat 9.2.1-1)
REM options -cpp -mtune=generic -march=x86-64 -g -O0 -fpre-include=/usr/include/finclude/math-vector-fortran.h
REM seed -456646269 691763373 1661441551 1742917548 1700831676 -1595870098 216320002 -684464768 -1040768609 2050433609 1072710862 640496803 -2038818283 -1992737670 -2121527752 231354953 -381844119 -60034849 1364189123 1374347255 -677519290 961986145 -1655494224 -817720421 -1951262180 842350489 1830304116 -951874203 843053441 -416242887 -695718262 -1374199904 957293869
REM
CELL 1.54180   15.00000   15.00000   15.00000   90.00000   90.00000   90.00000
LATT -1
SFAC C  
C      1  0.4342580000000  0.7418340000000  0.5900090000000 1.0
C      1  0.3980610000000  0.2581660000000  0.5450790000000 1.0
C      1  0.3891790000000  0.7418340000000  0.4880700000000 1.0
C      1  0.4099910000000  0.2581660000000  0.4342580000000 1.0
C      1  0.4549210000000  0.7418340000000  0.3980610000000 1.0
C      1  0.5119300000000  0.2581660000000  0.3891790000000 1.0
C      1  0.5657420000000  0.7418340000000  0.4099910000000 1.0
C      1  0.6019390000000  0.2581660000000  0.4549210000000 1.0
C      1  0.6108210000000  0.7418340000000  0.5119300000000 1.0
C      1  0.5900090000000  0.2581660000000  0.5657420000000 1.0
C      1  0.5450790000000  0.7418340000000  0.6019390000000 1.0
C      1  0.4880700000000  0.2581660000000  0.6108210000000 1.0
C      1  0.3447690000000  0.5985460000000  0.3866200000000 1.0
C      1  0.4222560000000  0.4014540000000  0.3241950000000 1.0
C      1  0.5205740000000  0.5985460000000  0.3088760000000 1.0
C      1  0.6133800000000  0.4014540000000  0.3447690000000 1.0
C      1  0.6758050000000  0.5985460000000  0.4222560000000 1.0
C      1  0.6911240000000  0.4014540000000  0.5205740000000 1.0
C      1  0.6552310000000  0.5985460000000  0.6133800000000 1.0
C      1  0.5777440000000  0.4014540000000  0.6758050000000 1.0
C      1  0.4794260000000  0.5985460000000  0.6911240000000 1.0
C      1  0.3866200000000  0.4014540000000  0.6552310000000 1.0
C      1  0.3241950000000  0.5985460000000  0.5777440000000 1.0
C      1  0.3088760000000  0.4014540000000  0.4794260000000 1.0
C      1  0.5741660000000  0.5622210000000  0.5541710000000 1.0
C      1  0.5371450000000  0.4377790000000  0.5839960000000 1.0
C      1  0.4901700000000  0.5622210000000  0.5913150000000 1.0
C      1  0.4458290000000  0.4377790000000  0.5741660000000 1.0
C      1  0.4160040000000  0.5622210000000  0.5371450000000 1.0
C      1  0.4086850000000  0.4377790000000  0.4901700000000 1.0
C      1  0.4258340000000  0.5622210000000  0.4458290000000 1.0
C      1  0.4628550000000  0.4377790000000  0.4160040000000 1.0
C      1  0.5098300000000  0.5622210000000  0.4086850000000 1.0
C      1  0.5541710000000  0.4377790000000  0.4258340000000 1.0
C      1  0.5839960000000  0.5622210000000  0.4628550000000 1.0
C      1  0.5913150000000  0.4377790000000  0.5098300000000 1.0
C      1  0.3527390000000  0.6967660000000  0.3924410000000 1.0
C      1  0.4262470000000  0.3032340000000  0.3332210000000 1.0
C      1  0.5195180000000  0.6967660000000  0.3186890000000 1.0
C      1  0.6075590000000  0.3032340000000  0.3527390000000 1.0
C      1  0.6667790000000  0.6967660000000  0.4262470000000 1.0
C      1  0.6813110000000  0.3032340000000  0.5195180000000 1.0
C      1  0.6472610000000  0.6967660000000  0.6075590000000 1.0
C      1  0.5737530000000  0.3032340000000  0.6667790000000 1.0
C      1  0.4804820000000  0.6967660000000  0.6813110000000 1.0
C      1  0.3924410000000  0.3032340000000  0.6472610000000 1.0
C      1  0.3332210000000  0.6967660000000  0.5737530000000 1.0
C      1  0.3186890000000  0.3032340000000  0.4804820000000 1.0
C      1  0.3673580000000  0.5000000000000  0.3353560000000 1.0
C      1  0.4674510000000  0.5000000000000  0.2910930000000 1.0
C      1  0.5762650000000  0.5000000000000  0.3028070000000 1.0
C      1  0.6646440000000  0.5000000000000  0.3673580000000 1.0
C      1  0.7089070000000  0.5000000000000  0.4674510000000 1.0
C      1  0.6971930000000  0.5000000000000  0.5762650000000 1.0
C      1  0.6326420000000  0.5000000000000  0.6646440000000 1.0
C      1  0.5325490000000  0.5000000000000  0.7089070000000 1.0
C      1  0.4237350000000  0.5000000000000  0.6971930000000 1.0
C      1  0.3353560000000  0.5000000000000  0.6326420000000 1.0
C      1  0.2910930000000  0.5000000000000  0.5325490000000 1.0
C      1  0.3028070000000  0.5000000000000  0.4237350000000 1.0
END
