TITL C-3036482-790-902 3.27667174044494e-05 3375 -348.31486681972 0 0 60 (C5) n - 1
REM
REM in /home/bkarasulu/work/CARBON/AIRSS/Generating-Clusters/REBO/Higher-Symm/Only-C60
REM
REM
REM
REM
REM
REM ./C.cell (a2850807a9bf4ad07a5b6933b78d9264)
REM AIRSS Version 0.9.1 bugfix July 2018 build 013d7b7c2542+ Fri, 06 Jul 2018 19:26:36 +0100
REM compiler GCC version 9.2.1 20190827 (Red Hat 9.2.1-1)
REM options -cpp -mtune=generic -march=x86-64 -g -O0 -fpre-include=/usr/include/finclude/math-vector-fortran.h
REM seed -1002462333 -1472201896 -1839578435 1699708077 -1330653939 2073904224 -630177345 1066848454 -306275266 -1793504040 -949312976 1900024390 1112984268 -870178218 -852576651 239138132 -1842198909 -989560165 -1839594620 -537814985 -674925468 366257792 321862752 1809743792 -1923445755 351103987 -1692120680 2014741825 -1341408113 1578092620 518762069 -1962025431 1869826574
REM
CELL 1.54180   15.00000   15.00000   15.00000   90.00000   90.00000   90.00000
LATT -1
SFAC C  
C      1  0.3859870000000  0.7366440000000  0.4716450000000 1.0
C      1  0.3859920000000  0.6000980000000  0.7163000000000 1.0
C      1  0.3859870000000  0.3252200000000  0.6620390000000 1.0
C      1  0.3859800000000  0.2918840000000  0.3838510000000 1.0
C      1  0.3859780000000  0.5461590000000  0.2661800000000 1.0
C      1  0.6201000000000  0.5639070000000  0.5613000000000 1.0
C      1  0.6200990000000  0.4614430000000  0.5797220000000 1.0
C      1  0.6200960000000  0.4122610000000  0.4879650000000 1.0
C      1  0.6200950000000  0.4843290000000  0.4128370000000 1.0
C      1  0.6200970000000  0.5780530000000  0.4581600000000 1.0
C      1  0.4571870000000  0.6583190000000  0.6170030000000 1.0
C      1  0.4571860000000  0.4376480000000  0.6867260000000 1.0
C      1  0.4571810000000  0.3031450000000  0.4984020000000 1.0
C      1  0.4571760000000  0.4406910000000  0.3122880000000 1.0
C      1  0.4571810000000  0.6602000000000  0.3855870000000 1.0
C      1  0.4887000000000  0.3177820000000  0.3998820000000 1.0
C      1  0.4886970000000  0.5389100000000  0.2957640000000 1.0
C      1  0.4887050000000  0.7062660000000  0.4738930000000 1.0
C      1  0.4887090000000  0.5885690000000  0.6881020000000 1.0
C      1  0.4887040000000  0.3484740000000  0.6423610000000 1.0
C      1  0.5251700000000  0.6277050000000  0.3306570000000 1.0
C      1  0.5251770000000  0.7005170000000  0.5691250000000 1.0
C      1  0.5251780000000  0.4962200000000  0.7120630000000 1.0
C      1  0.5251730000000  0.2971470000000  0.5619370000000 1.0
C      1  0.5251670000000  0.3784090000000  0.3262140000000 1.0
C      1  0.5143200000000  0.5175110000000  0.4047840000000 1.0
C      1  0.5143220000000  0.5959680000000  0.4872310000000 1.0
C      1  0.5143240000000  0.5417990000000  0.5873230000000 1.0
C      1  0.5143230000000  0.4298660000000  0.5667380000000 1.0
C      1  0.5143190000000  0.4148550000000  0.4539220000000 1.0
C      1  0.3793900000000  0.6346470000000  0.5754830000000 1.0
C      1  0.3793890000000  0.4698220000000  0.6513840000000 1.0
C      1  0.3793860000000  0.3467050000000  0.5180810000000 1.0
C      1  0.3793810000000  0.4354370000000  0.3597950000000 1.0
C      1  0.3793850000000  0.6133960000000  0.3952720000000 1.0
C      1  0.3137160000000  0.6954730000000  0.4767530000000 1.0
C      1  0.3137200000000  0.5825200000000  0.6787230000000 1.0
C      1  0.3137160000000  0.3555290000000  0.6337100000000 1.0
C      1  0.3137110000000  0.3281950000000  0.4039210000000 1.0
C      1  0.3137090000000  0.5382930000000  0.3069170000000 1.0
C      1  0.3039980000000  0.5872810000000  0.4760610000000 1.0
C      1  0.3040000000000  0.5497450000000  0.5756130000000 1.0
C      1  0.3039980000000  0.4434660000000  0.5706780000000 1.0
C      1  0.3039970000000  0.4153180000000  0.4680750000000 1.0
C      1  0.3039950000000  0.5042000000000  0.4095990000000 1.0
C      1  0.6926180000000  0.4709730000000  0.3350050000000 1.0
C      1  0.6926300000000  0.6479340000000  0.4213940000000 1.0
C      1  0.6926270000000  0.6204590000000  0.6164130000000 1.0
C      1  0.6926300000000  0.4265100000000  0.6505370000000 1.0
C      1  0.6926260000000  0.3341150000000  0.4766250000000 1.0
C      1  0.7033360000000  0.5369870000000  0.6759340000000 1.0
C      1  0.7033310000000  0.3441080000000  0.5895420000000 1.0
C      1  0.7033200000000  0.3666730000000  0.3794100000000 1.0
C      1  0.7033310000000  0.5734870000000  0.3359070000000 1.0
C      1  0.7033260000000  0.6787340000000  0.5191800000000 1.0
C      1  0.6154850000000  0.2947680000000  0.5504150000000 1.0
C      1  0.6154780000000  0.3886340000000  0.3203880000000 1.0
C      1  0.6154820000000  0.6363980000000  0.3385750000000 1.0
C      1  0.6154890000000  0.6956670000000  0.5798430000000 1.0
C      1  0.6154890000000  0.4845270000000  0.7107630000000 1.0
END
