TITL C-3036479-9801-216 2.12919915462858e-06 3375 -325.333037662932 0 0 60 (T23) n - 1
REM
REM in /home/bkarasulu/work/CARBON/AIRSS/Generating-Clusters/REBO/Higher-Symm/Only-C60
REM
REM
REM
REM
REM
REM ./C.cell (a2850807a9bf4ad07a5b6933b78d9264)
REM AIRSS Version 0.9.1 bugfix July 2018 build 013d7b7c2542+ Fri, 06 Jul 2018 19:26:36 +0100
REM compiler GCC version 9.2.1 20190827 (Red Hat 9.2.1-1)
REM options -cpp -mtune=generic -march=x86-64 -g -O0 -fpre-include=/usr/include/finclude/math-vector-fortran.h
REM seed 1901510893 -1799466301 1897632537 694625796 -721841339 -567100042 -456963055 -654419853 1193484980 -1280895787 1423894141 1531864820 -1602951352 -2104453334 1171490344 -1189039914 2085686101 1989025566 1479990255 1126413612 2054110890 -370192044 1300928738 -438785823 -1818394131 1073255054 1043565472 201692637 -1751577610 -85539214 -1008059009 1627498014 -1981432246
REM
CELL 1.54180   15.00000   15.00000   15.00000   90.00000   90.00000   90.00000
LATT -1
SFAC C  
C      1  0.5323730000000  0.6822710000000  0.5989700000000 1.0
C      1  0.6822710000000  0.5989700000000  0.5323730000000 1.0
C      1  0.5989700000000  0.5323730000000  0.6822710000000 1.0
C      1  0.4676270000000  0.6822710000000  0.4010300000000 1.0
C      1  0.4676270000000  0.3177290000000  0.5989700000000 1.0
C      1  0.5323730000000  0.3177290000000  0.4010300000000 1.0
C      1  0.3177290000000  0.5989700000000  0.4676270000000 1.0
C      1  0.3177290000000  0.4010300000000  0.5323730000000 1.0
C      1  0.6822710000000  0.4010300000000  0.4676270000000 1.0
C      1  0.4010300000000  0.5323730000000  0.3177290000000 1.0
C      1  0.4010300000000  0.4676270000000  0.6822710000000 1.0
C      1  0.5989700000000  0.4676270000000  0.3177290000000 1.0
C      1  0.4356940000000  0.3495410000000  0.4226700000000 1.0
C      1  0.3495410000000  0.4226700000000  0.4356940000000 1.0
C      1  0.4226700000000  0.4356940000000  0.3495410000000 1.0
C      1  0.5643060000000  0.3495410000000  0.5773300000000 1.0
C      1  0.5643060000000  0.6504590000000  0.4226700000000 1.0
C      1  0.4356940000000  0.6504590000000  0.5773300000000 1.0
C      1  0.6504590000000  0.4226700000000  0.5643060000000 1.0
C      1  0.6504590000000  0.5773300000000  0.4356940000000 1.0
C      1  0.3495410000000  0.5773300000000  0.5643060000000 1.0
C      1  0.5773300000000  0.4356940000000  0.6504590000000 1.0
C      1  0.5773300000000  0.5643060000000  0.3495410000000 1.0
C      1  0.4226700000000  0.5643060000000  0.6504590000000 1.0
C      1  0.5953730000000  0.5808730000000  0.7774340000000 1.0
C      1  0.5808730000000  0.7774340000000  0.5953730000000 1.0
C      1  0.7774340000000  0.5953730000000  0.5808730000000 1.0
C      1  0.4046270000000  0.5808730000000  0.2225660000000 1.0
C      1  0.4046270000000  0.4191270000000  0.7774340000000 1.0
C      1  0.5953730000000  0.4191270000000  0.2225660000000 1.0
C      1  0.4191270000000  0.7774340000000  0.4046270000000 1.0
C      1  0.4191270000000  0.2225660000000  0.5953730000000 1.0
C      1  0.5808730000000  0.2225660000000  0.4046270000000 1.0
C      1  0.2225660000000  0.5953730000000  0.4191270000000 1.0
C      1  0.2225660000000  0.4046270000000  0.5808730000000 1.0
C      1  0.7774340000000  0.4046270000000  0.4191270000000 1.0
C      1  0.7802910000000  0.5294460000000  0.6452470000000 1.0
C      1  0.5294460000000  0.6452470000000  0.7802910000000 1.0
C      1  0.6452470000000  0.7802910000000  0.5294460000000 1.0
C      1  0.2197090000000  0.5294460000000  0.3547530000000 1.0
C      1  0.2197090000000  0.4705540000000  0.6452470000000 1.0
C      1  0.7802910000000  0.4705540000000  0.3547530000000 1.0
C      1  0.4705540000000  0.6452470000000  0.2197090000000 1.0
C      1  0.4705540000000  0.3547530000000  0.7802910000000 1.0
C      1  0.5294460000000  0.3547530000000  0.2197090000000 1.0
C      1  0.3547530000000  0.7802910000000  0.4705540000000 1.0
C      1  0.3547530000000  0.2197090000000  0.5294460000000 1.0
C      1  0.6452470000000  0.2197090000000  0.4705540000000 1.0
C      1  0.6085420000000  0.6735200000000  0.5172070000000 1.0
C      1  0.6735200000000  0.5172070000000  0.6085420000000 1.0
C      1  0.5172070000000  0.6085420000000  0.6735200000000 1.0
C      1  0.3914580000000  0.6735200000000  0.4827930000000 1.0
C      1  0.3914580000000  0.3264800000000  0.5172070000000 1.0
C      1  0.6085420000000  0.3264800000000  0.4827930000000 1.0
C      1  0.3264800000000  0.5172070000000  0.3914580000000 1.0
C      1  0.3264800000000  0.4827930000000  0.6085420000000 1.0
C      1  0.6735200000000  0.4827930000000  0.3914580000000 1.0
C      1  0.4827930000000  0.6085420000000  0.3264800000000 1.0
C      1  0.4827930000000  0.3914580000000  0.6735200000000 1.0
C      1  0.5172070000000  0.3914580000000  0.3264800000000 1.0
END
