TITL C-3036482-790-533 -2.70523950530614e-05 3375 -343.48739329268 0 0 60 (C1) n - 1
REM
REM in /home/bkarasulu/work/CARBON/AIRSS/Generating-Clusters/REBO/Higher-Symm/Only-C60
REM
REM
REM
REM
REM
REM ./C.cell (a2850807a9bf4ad07a5b6933b78d9264)
REM AIRSS Version 0.9.1 bugfix July 2018 build 013d7b7c2542+ Fri, 06 Jul 2018 19:26:36 +0100
REM compiler GCC version 9.2.1 20190827 (Red Hat 9.2.1-1)
REM options -cpp -mtune=generic -march=x86-64 -g -O0 -fpre-include=/usr/include/finclude/math-vector-fortran.h
REM seed -1989250979 -1151588087 125477567 1957875250 -17602611 -16816328 -942134796 -177901498 394561805 2137886278 -622242298 -122208556 -126217044 1569103821 -295221547 -1740126250 -1811975014 181582934 -1802983943 -1808580678 -1125676494 2081804121 2056618600 -788817872 -1167467991 -555279243 1080533717 -1410090773 373628985 212509961 -463636454 1348905939 2004238583
REM
CELL 1.54180   15.00000   15.00000   15.00000   90.00000   90.00000   90.00000
LATT -1
SFAC C  
C      1  0.4510560000000  0.5916290000000  0.4863770000000 1.0
C      1  0.7267410000000  0.4045980000000  0.4138660000000 1.0
C      1  0.2750390000000  0.4198030000000  0.5401550000000 1.0
C      1  0.5386300000000  0.6661570000000  0.4945690000000 1.0
C      1  0.4617390000000  0.4956480000000  0.7417910000000 1.0
C      1  0.6185550000000  0.6891430000000  0.4237850000000 1.0
C      1  0.5042610000000  0.5332070000000  0.1802690000000 1.0
C      1  0.5344800000000  0.5270810000000  0.4551060000000 1.0
C      1  0.5236210000000  0.4333100000000  0.3987750000000 1.0
C      1  0.3562450000000  0.6805980000000  0.5984190000000 1.0
C      1  0.4683530000000  0.3232950000000  0.6877820000000 1.0
C      1  0.6918690000000  0.4885820000000  0.4774060000000 1.0
C      1  0.6950770000000  0.4744070000000  0.6458690000000 1.0
C      1  0.5745430000000  0.7100210000000  0.3279690000000 1.0
C      1  0.6108590000000  0.4148380000000  0.4482050000000 1.0
C      1  0.3899190000000  0.6543180000000  0.4150990000000 1.0
C      1  0.4829600000000  0.5482020000000  0.2643480000000 1.0
C      1  0.5718900000000  0.6005920000000  0.6765080000000 1.0
C      1  0.3396370000000  0.5925700000000  0.3483770000000 1.0
C      1  0.3397760000000  0.3569780000000  0.5524390000000 1.0
C      1  0.6762880000000  0.6166790000000  0.4141750000000 1.0
C      1  0.5481760000000  0.3684620000000  0.6826740000000 1.0
C      1  0.5558760000000  0.5052730000000  0.5604740000000 1.0
C      1  0.2812020000000  0.5415840000000  0.4154720000000 1.0
C      1  0.3673490000000  0.4788850000000  0.4096510000000 1.0
C      1  0.3998380000000  0.5579700000000  0.5713470000000 1.0
C      1  0.6743420000000  0.3923160000000  0.5845570000000 1.0
C      1  0.6200080000000  0.5144830000000  0.6925170000000 1.0
C      1  0.3842630000000  0.3128200000000  0.4825500000000 1.0
C      1  0.4368880000000  0.4363030000000  0.4583040000000 1.0
C      1  0.4713000000000  0.5004170000000  0.6282700000000 1.0
C      1  0.3241500000000  0.6263440000000  0.6800770000000 1.0
C      1  0.6701980000000  0.4584800000000  0.3377840000000 1.0
C      1  0.4902460000000  0.6758920000000  0.3925060000000 1.0
C      1  0.7497920000000  0.5007050000000  0.5669450000000 1.0
C      1  0.3314850000000  0.6614700000000  0.5089180000000 1.0
C      1  0.4606970000000  0.4125950000000  0.5560440000000 1.0
C      1  0.7052810000000  0.3441600000000  0.5077430000000 1.0
C      1  0.5701010000000  0.3977740000000  0.5853770000000 1.0
C      1  0.4820340000000  0.5973050000000  0.7298870000000 1.0
C      1  0.6175360000000  0.5372360000000  0.3781050000000 1.0
C      1  0.3695310000000  0.4599520000000  0.7033440000000 1.0
C      1  0.3768160000000  0.4069090000000  0.2986330000000 1.0
C      1  0.3979410000000  0.5147090000000  0.3046220000000 1.0
C      1  0.5346840000000  0.3869650000000  0.3040030000000 1.0
C      1  0.3147280000000  0.5310550000000  0.6700260000000 1.0
C      1  0.5357240000000  0.2658320000000  0.4403170000000 1.0
C      1  0.4491430000000  0.2989090000000  0.4147930000000 1.0
C      1  0.3925210000000  0.3779380000000  0.6408280000000 1.0
C      1  0.6174830000000  0.3068220000000  0.4602550000000 1.0
C      1  0.6228500000000  0.4070870000000  0.2777570000000 1.0
C      1  0.6691140000000  0.6436480000000  0.5445250000000 1.0
C      1  0.2943820000000  0.5152200000000  0.5703580000000 1.0
C      1  0.6383870000000  0.5633280000000  0.5302660000000 1.0
C      1  0.5466570000000  0.6592280000000  0.5942380000000 1.0
C      1  0.4453500000000  0.3490590000000  0.3316940000000 1.0
C      1  0.2735280000000  0.5845100000000  0.4999440000000 1.0
C      1  0.5564100000000  0.4501230000000  0.7308710000000 1.0
C      1  0.4498660000000  0.6364880000000  0.6370540000000 1.0
C      1  0.5425830000000  0.6000900000000  0.3259800000000 1.0
END
