TITL C-3036484-3770-722 4.19113386339646e-06 3375 -334.945153371657 0 0 60 (C2) n - 1
REM
REM in /home/bkarasulu/work/CARBON/AIRSS/Generating-Clusters/REBO/Higher-Symm/Only-C60
REM
REM
REM
REM
REM
REM ./C.cell (a2850807a9bf4ad07a5b6933b78d9264)
REM AIRSS Version 0.9.1 bugfix July 2018 build 013d7b7c2542+ Fri, 06 Jul 2018 19:26:36 +0100
REM compiler GCC version 9.2.1 20190827 (Red Hat 9.2.1-1)
REM options -cpp -mtune=generic -march=x86-64 -g -O0 -fpre-include=/usr/include/finclude/math-vector-fortran.h
REM seed 527328516 1888631033 298665358 842970033 1759034482 -55243644 -1974726672 749238167 1202205959 1683270542 1591692975 -885598189 -1337038796 -1810482286 -697919611 -141048080 -1104216932 740172760 1483305117 1440810403 1310938973 912981574 -1737996094 -949781299 997521477 -1294636453 924929810 -1065435329 1952890057 -1989564245 -1473469255 803123671 1240348915
REM
CELL 1.54180   15.00000   15.00000   15.00000   90.00000   90.00000   90.00000
LATT -1
SFAC C  
C      1  0.5686420000000  0.6104720000000  0.6764680000000 1.0
C      1  0.6659050000000  0.6033570000000  0.4392190000000 1.0
C      1  0.4313580000000  0.6104730000000  0.3235310000000 1.0
C      1  0.3340950000000  0.6033570000000  0.5607810000000 1.0
C      1  0.5446080000000  0.3838400000000  0.6689230000000 1.0
C      1  0.6562190000000  0.3901200000000  0.4610880000000 1.0
C      1  0.4553920000000  0.3838400000000  0.3310780000000 1.0
C      1  0.3437810000000  0.3901190000000  0.5389120000000 1.0
C      1  0.4443390000000  0.3685230000000  0.7078090000000 1.0
C      1  0.7044170000000  0.3705200000000  0.5581650000000 1.0
C      1  0.5556610000000  0.3685230000000  0.2921910000000 1.0
C      1  0.2955830000000  0.3705200000000  0.4418350000000 1.0
C      1  0.4689540000000  0.6300470000000  0.7204390000000 1.0
C      1  0.7170860000000  0.6289910000000  0.5347290000000 1.0
C      1  0.5310460000000  0.6300470000000  0.2795610000000 1.0
C      1  0.2829140000000  0.6289910000000  0.4652710000000 1.0
C      1  0.4326980000000  0.2439090000000  0.5604040000000 1.0
C      1  0.5448590000000  0.2508750000000  0.5502840000000 1.0
C      1  0.5673020000000  0.2439090000000  0.4395960000000 1.0
C      1  0.4551410000000  0.2508740000000  0.4497160000000 1.0
C      1  0.4407290000000  0.7447260000000  0.5680940000000 1.0
C      1  0.5500310000000  0.7372520000000  0.5446350000000 1.0
C      1  0.5592710000000  0.7447260000000  0.4319060000000 1.0
C      1  0.4499690000000  0.7372520000000  0.4553650000000 1.0
C      1  0.3055830000000  0.4492680000000  0.3805350000000 1.0
C      1  0.3893590000000  0.4489480000000  0.6895110000000 1.0
C      1  0.6944170000000  0.4492680000000  0.6194650000000 1.0
C      1  0.6106410000000  0.4489480000000  0.3104890000000 1.0
C      1  0.2943290000000  0.5597200000000  0.3958820000000 1.0
C      1  0.4045720000000  0.5587470000000  0.7011110000000 1.0
C      1  0.7056710000000  0.5597200000000  0.6041170000000 1.0
C      1  0.5954280000000  0.5587470000000  0.2988890000000 1.0
C      1  0.3115720000000  0.5434800000000  0.6379450000000 1.0
C      1  0.6448040000000  0.5445980000000  0.6989750000000 1.0
C      1  0.6884280000000  0.5434800000000  0.3620550000000 1.0
C      1  0.3551960000000  0.5445980000000  0.3010250000000 1.0
C      1  0.3065460000000  0.4372810000000  0.6188040000000 1.0
C      1  0.6239970000000  0.4373760000000  0.7035290000000 1.0
C      1  0.6934540000000  0.4372810000000  0.3811970000000 1.0
C      1  0.3760030000000  0.4373760000000  0.2964710000000 1.0
C      1  0.6385470000000  0.6981550000000  0.4915300000000 1.0
C      1  0.4901250000000  0.7014840000000  0.3574780000000 1.0
C      1  0.3614530000000  0.6981550000000  0.5084700000000 1.0
C      1  0.5098750000000  0.7014840000000  0.6425220000000 1.0
C      1  0.6404240000000  0.2915190000000  0.5078650000000 1.0
C      1  0.5075190000000  0.2901290000000  0.3585810000000 1.0
C      1  0.3595760000000  0.2915190000000  0.4921350000000 1.0
C      1  0.4924810000000  0.2901300000000  0.6414190000000 1.0
C      1  0.5603870000000  0.4296780000000  0.4718800000000 1.0
C      1  0.4619370000000  0.4297170000000  0.4225020000000 1.0
C      1  0.4396140000000  0.4296780000000  0.5281200000000 1.0
C      1  0.5380630000000  0.4297170000000  0.5774980000000 1.0
C      1  0.5554130000000  0.5979730000000  0.4629360000000 1.0
C      1  0.4515800000000  0.5970960000000  0.4303390000000 1.0
C      1  0.4445860000000  0.5979730000000  0.5370640000000 1.0
C      1  0.5484200000000  0.5970960000000  0.5696610000000 1.0
C      1  0.4340540000000  0.5091590000000  0.6017580000000 1.0
C      1  0.5659460000000  0.5091590000000  0.3982420000000 1.0
C      1  0.6059800000000  0.5085340000000  0.5779280000000 1.0
C      1  0.3940200000000  0.5085340000000  0.4220720000000 1.0
END
