TITL C-3036479-9801-781 2.96860712908267e-05 3375 -358.192396913849 0 0 60 (D2) n - 1
REM
REM in /home/bkarasulu/work/CARBON/AIRSS/Generating-Clusters/REBO/Higher-Symm/Only-C60
REM
REM
REM
REM
REM
REM ./C.cell (a2850807a9bf4ad07a5b6933b78d9264)
REM AIRSS Version 0.9.1 bugfix July 2018 build 013d7b7c2542+ Fri, 06 Jul 2018 19:26:36 +0100
REM compiler GCC version 9.2.1 20190827 (Red Hat 9.2.1-1)
REM options -cpp -mtune=generic -march=x86-64 -g -O0 -fpre-include=/usr/include/finclude/math-vector-fortran.h
REM seed -810767008 -1603135885 599255767 427476143 1128585212 -2121623121 20407349 -512242904 -1979508627 -856262754 1014985173 -120762303 1926121984 1397582650 1485583375 259708487 -552587280 -203411322 -1472557207 -741128679 2060003078 576523529 1536167083 534154186 400792102 -986550204 1762720927 952571756 -831908145 -819482528 -1223551539 1297171165 147506732
REM
CELL 1.54180   15.00000   15.00000   15.00000   90.00000   90.00000   90.00000
LATT -1
SFAC C  
C      1  0.5028980000000  0.4178430000000  0.2813610000000 1.0
C      1  0.5153400000000  0.3078830000000  0.4503440000000 1.0
C      1  0.4936600000000  0.3316560000000  0.6799300000000 1.0
C      1  0.5028790000000  0.5821570000000  0.7186370000000 1.0
C      1  0.5153280000000  0.6921100000000  0.5496540000000 1.0
C      1  0.4936670000000  0.6683450000000  0.3200680000000 1.0
C      1  0.4971040000000  0.4178390000000  0.7186370000000 1.0
C      1  0.4846650000000  0.3078780000000  0.5496560000000 1.0
C      1  0.5063440000000  0.3316600000000  0.3200690000000 1.0
C      1  0.4971170000000  0.5821610000000  0.2813620000000 1.0
C      1  0.4846600000000  0.6921290000000  0.4503400000000 1.0
C      1  0.5063240000000  0.6683390000000  0.6799290000000 1.0
C      1  0.5942690000000  0.6236270000000  0.5088050000000 1.0
C      1  0.6230690000000  0.5519790000000  0.4340800000000 1.0
C      1  0.6228180000000  0.4608700000000  0.4334380000000 1.0
C      1  0.5942690000000  0.3763760000000  0.4912070000000 1.0
C      1  0.6230680000000  0.4480250000000  0.5659340000000 1.0
C      1  0.6228170000000  0.5391350000000  0.5665760000000 1.0
C      1  0.4057340000000  0.6236270000000  0.4912020000000 1.0
C      1  0.3769310000000  0.5519750000000  0.5659240000000 1.0
C      1  0.3771860000000  0.4608660000000  0.5665630000000 1.0
C      1  0.4057360000000  0.3763710000000  0.5087930000000 1.0
C      1  0.3769390000000  0.4480220000000  0.4340670000000 1.0
C      1  0.3771920000000  0.5391310000000  0.4334280000000 1.0
C      1  0.6849750000000  0.4091310000000  0.6398910000000 1.0
C      1  0.6855250000000  0.5801630000000  0.6367160000000 1.0
C      1  0.6878010000000  0.6879200000000  0.5035070000000 1.0
C      1  0.6849790000000  0.5908730000000  0.3601260000000 1.0
C      1  0.6855310000000  0.4198410000000  0.3633020000000 1.0
C      1  0.6878040000000  0.3120860000000  0.4965070000000 1.0
C      1  0.3150280000000  0.4091310000000  0.3601120000000 1.0
C      1  0.3144830000000  0.5801630000000  0.3632910000000 1.0
C      1  0.3121960000000  0.6879140000000  0.4964930000000 1.0
C      1  0.3150130000000  0.5908650000000  0.6398750000000 1.0
C      1  0.3144720000000  0.4198330000000  0.6366960000000 1.0
C      1  0.3122010000000  0.3120800000000  0.5034920000000 1.0
C      1  0.3240720000000  0.6741800000000  0.3933760000000 1.0
C      1  0.3433120000000  0.4955090000000  0.3122000000000 1.0
C      1  0.3421460000000  0.3227500000000  0.4046340000000 1.0
C      1  0.3240710000000  0.3258170000000  0.6066090000000 1.0
C      1  0.3432980000000  0.5044870000000  0.6877890000000 1.0
C      1  0.3421320000000  0.6772460000000  0.5953530000000 1.0
C      1  0.6759200000000  0.6741790000000  0.6066230000000 1.0
C      1  0.6566890000000  0.4955080000000  0.6878040000000 1.0
C      1  0.6578580000000  0.3227520000000  0.5953640000000 1.0
C      1  0.6759330000000  0.3258240000000  0.3933900000000 1.0
C      1  0.6567000000000  0.5044950000000  0.3122110000000 1.0
C      1  0.6578580000000  0.6772520000000  0.4046490000000 1.0
C      1  0.4304420000000  0.6980040000000  0.6175370000000 1.0
C      1  0.4099500000000  0.7049430000000  0.3673220000000 1.0
C      1  0.4337600000000  0.4975620000000  0.2788060000000 1.0
C      1  0.4304580000000  0.3019920000000  0.3824560000000 1.0
C      1  0.4099480000000  0.2950590000000  0.6326680000000 1.0
C      1  0.4337440000000  0.5024360000000  0.7211870000000 1.0
C      1  0.5695490000000  0.6980130000000  0.3824620000000 1.0
C      1  0.5900390000000  0.7049310000000  0.6326720000000 1.0
C      1  0.5662400000000  0.4975610000000  0.7211930000000 1.0
C      1  0.5695470000000  0.3019910000000  0.6175430000000 1.0
C      1  0.5900560000000  0.2950650000000  0.3673310000000 1.0
C      1  0.5662550000000  0.5024410000000  0.2788120000000 1.0
END
