TITL C-3036482-790-341 1.26736457585603e-05 3375 -329.560152753354 0 0 60 (Td) n - 1
REM
REM in /home/bkarasulu/work/CARBON/AIRSS/Generating-Clusters/REBO/Higher-Symm/Only-C60
REM
REM
REM
REM
REM
REM ./C.cell (a2850807a9bf4ad07a5b6933b78d9264)
REM AIRSS Version 0.9.1 bugfix July 2018 build 013d7b7c2542+ Fri, 06 Jul 2018 19:26:36 +0100
REM compiler GCC version 9.2.1 20190827 (Red Hat 9.2.1-1)
REM options -cpp -mtune=generic -march=x86-64 -g -O0 -fpre-include=/usr/include/finclude/math-vector-fortran.h
REM seed 579512504 619123422 748238310 1467198676 -1952629419 1513888793 -1497804355 1947733698 -1252605718 1609387758 1664571006 1432159989 -1672836843 -1834917508 -3838455 -1612132259 -1572625875 1083331892 170277038 -1702570145 1987330694 191072123 1774641995 -435318787 -81750682 1790397909 1356807412 1747346864 1638415788 492471250 549480559 -1418092580 -1730098218
REM
CELL 1.54180   15.00000   15.00000   15.00000   90.00000   90.00000   90.00000
LATT -1
SFAC C  
C      1  0.2665960000000  0.4498370000000  0.3788810000000 1.0
C      1  0.4498370000000  0.3788810000000  0.2665960000000 1.0
C      1  0.3788810000000  0.2665960000000  0.4498370000000 1.0
C      1  0.7334040000000  0.4498370000000  0.6211190000000 1.0
C      1  0.7334040000000  0.5501630000000  0.3788810000000 1.0
C      1  0.2665960000000  0.5501630000000  0.6211190000000 1.0
C      1  0.5501640000000  0.3788810000000  0.7334040000000 1.0
C      1  0.5501630000000  0.6211190000000  0.2665960000000 1.0
C      1  0.4498370000000  0.6211190000000  0.7334040000000 1.0
C      1  0.6211190000000  0.2665960000000  0.5501630000000 1.0
C      1  0.6211190000000  0.7334040000000  0.4498370000000 1.0
C      1  0.3788810000000  0.7334040000000  0.5501630000000 1.0
C      1  0.3788810000000  0.4498370000000  0.2665960000000 1.0
C      1  0.2665960000000  0.3788810000000  0.4498370000000 1.0
C      1  0.4498370000000  0.2665960000000  0.3788810000000 1.0
C      1  0.6211190000000  0.4498370000000  0.7334040000000 1.0
C      1  0.3788810000000  0.5501630000000  0.7334040000000 1.0
C      1  0.6211190000000  0.5501630000000  0.2665960000000 1.0
C      1  0.7334040000000  0.3788810000000  0.5501640000000 1.0
C      1  0.2665960000000  0.6211190000000  0.5501630000000 1.0
C      1  0.7334040000000  0.6211190000000  0.4498370000000 1.0
C      1  0.5501630000000  0.2665960000000  0.6211190000000 1.0
C      1  0.4498370000000  0.7334040000000  0.6211190000000 1.0
C      1  0.5501630000000  0.7334040000000  0.3788810000000 1.0
C      1  0.4962840000000  0.3505390000000  0.5779360000000 1.0
C      1  0.3505390000000  0.5779360000000  0.4962840000000 1.0
C      1  0.5779360000000  0.4962840000000  0.3505390000000 1.0
C      1  0.5037160000000  0.3505390000000  0.4220640000000 1.0
C      1  0.5037160000000  0.6494610000000  0.5779360000000 1.0
C      1  0.4962840000000  0.6494610000000  0.4220640000000 1.0
C      1  0.6494610000000  0.5779360000000  0.5037160000000 1.0
C      1  0.6494610000000  0.4220640000000  0.4962840000000 1.0
C      1  0.3505390000000  0.4220640000000  0.5037160000000 1.0
C      1  0.4220640000000  0.4962840000000  0.6494610000000 1.0
C      1  0.4220640000000  0.5037160000000  0.3505390000000 1.0
C      1  0.5779360000000  0.5037160000000  0.6494610000000 1.0
C      1  0.5779360000000  0.3505390000000  0.4962840000000 1.0
C      1  0.4962840000000  0.5779360000000  0.3505390000000 1.0
C      1  0.3505390000000  0.4962840000000  0.5779360000000 1.0
C      1  0.4220640000000  0.3505390000000  0.5037160000000 1.0
C      1  0.5779360000000  0.6494610000000  0.5037160000000 1.0
C      1  0.4220640000000  0.6494610000000  0.4962840000000 1.0
C      1  0.5037160000000  0.5779360000000  0.6494610000000 1.0
C      1  0.4962840000000  0.4220640000000  0.6494610000000 1.0
C      1  0.5037160000000  0.4220640000000  0.3505390000000 1.0
C      1  0.6494610000000  0.4962840000000  0.4220640000000 1.0
C      1  0.3505390000000  0.5037160000000  0.4220640000000 1.0
C      1  0.6494610000000  0.5037160000000  0.5779360000000 1.0
C      1  0.6964990000000  0.6964990000000  0.3905320000000 1.0
C      1  0.3035010000000  0.6094680000000  0.6964990000000 1.0
C      1  0.6964990000000  0.3035010000000  0.6094680000000 1.0
C      1  0.6094680000000  0.6964990000000  0.3035010000000 1.0
C      1  0.3035010000000  0.6964990000000  0.6094680000000 1.0
C      1  0.6964990000000  0.6094680000000  0.3035010000000 1.0
C      1  0.6964990000000  0.3905320000000  0.6964990000000 1.0
C      1  0.3035010000000  0.3905320000000  0.3035010000000 1.0
C      1  0.3905320000000  0.6964990000000  0.6964990000000 1.0
C      1  0.6094680000000  0.3035010000000  0.6964990000000 1.0
C      1  0.3905320000000  0.3035010000000  0.3035010000000 1.0
C      1  0.3035010000000  0.3035010000000  0.3905320000000 1.0
END
