TITL C-3036483-1610-940 8.37656922480435e-06 3375 -328.061830785255 0 0 60 (C2) n - 1
REM
REM in /home/bkarasulu/work/CARBON/AIRSS/Generating-Clusters/REBO/Higher-Symm/Only-C60
REM
REM
REM
REM
REM
REM ./C.cell (a2850807a9bf4ad07a5b6933b78d9264)
REM AIRSS Version 0.9.1 bugfix July 2018 build 013d7b7c2542+ Fri, 06 Jul 2018 19:26:36 +0100
REM compiler GCC version 9.2.1 20190827 (Red Hat 9.2.1-1)
REM options -cpp -mtune=generic -march=x86-64 -g -O0 -fpre-include=/usr/include/finclude/math-vector-fortran.h
REM seed 613250246 1079034815 1365850951 -400438319 -1013239965 -1325682516 187078881 1417177451 -79849384 1691403249 -122527255 1174855848 -1750310158 807657155 968667469 -1375644566 -497349079 928270628 -2910423 -977918783 422663242 762124658 -1373012554 314004252 1161880153 -382525807 1417318191 1837717048 1046032122 -902942321 -378909101 -629850843 745248080
REM
CELL 1.54180   15.00000   15.00000   15.00000   90.00000   90.00000   90.00000
LATT -1
SFAC C  
C      1  0.5468780000000  0.3111410000000  0.4482580000000 1.0
C      1  0.4550480000000  0.5445750000000  0.3161480000000 1.0
C      1  0.3157060000000  0.4539760000000  0.5477010000000 1.0
C      1  0.4534090000000  0.6804690000000  0.4578570000000 1.0
C      1  0.4534590000000  0.3195170000000  0.5421400000000 1.0
C      1  0.5468190000000  0.6888730000000  0.5517460000000 1.0
C      1  0.5454770000000  0.4474800000000  0.3133220000000 1.0
C      1  0.5454470000000  0.5525330000000  0.6866810000000 1.0
C      1  0.4550470000000  0.4554120000000  0.6838490000000 1.0
C      1  0.6816160000000  0.5602630000000  0.5532920000000 1.0
C      1  0.6816370000000  0.4397910000000  0.4467210000000 1.0
C      1  0.3156960000000  0.5459700000000  0.4522850000000 1.0
C      1  0.5546640000000  0.3211770000000  0.5537740000000 1.0
C      1  0.4394350000000  0.5561130000000  0.6874800000000 1.0
C      1  0.3137960000000  0.4394380000000  0.4463800000000 1.0
C      1  0.4453620000000  0.6884970000000  0.5631880000000 1.0
C      1  0.4454220000000  0.3114870000000  0.4368080000000 1.0
C      1  0.5546160000000  0.6788390000000  0.4462300000000 1.0
C      1  0.5611220000000  0.4516760000000  0.6841900000000 1.0
C      1  0.5611220000000  0.5483410000000  0.3158140000000 1.0
C      1  0.4394650000000  0.4438690000000  0.3125150000000 1.0
C      1  0.6867820000000  0.5459860000000  0.4521840000000 1.0
C      1  0.6867920000000  0.4540700000000  0.5478300000000 1.0
C      1  0.3137750000000  0.5605080000000  0.5536060000000 1.0
C      1  0.4111620000000  0.3473530000000  0.3135260000000 1.0
C      1  0.3151440000000  0.4140570000000  0.3488190000000 1.0
C      1  0.3477530000000  0.3152730000000  0.4128440000000 1.0
C      1  0.5886520000000  0.6447910000000  0.3223460000000 1.0
C      1  0.5886810000000  0.3552350000000  0.6776610000000 1.0
C      1  0.4111040000000  0.6526200000000  0.6864670000000 1.0
C      1  0.6847680000000  0.5769770000000  0.3552870000000 1.0
C      1  0.6847800000000  0.4230770000000  0.6447270000000 1.0
C      1  0.3151070000000  0.5858890000000  0.6511670000000 1.0
C      1  0.6519050000000  0.6729940000000  0.4230210000000 1.0
C      1  0.6519500000000  0.3270510000000  0.5769900000000 1.0
C      1  0.3476920000000  0.6846830000000  0.5871450000000 1.0
C      1  0.4260340000000  0.3589110000000  0.6713030000000 1.0
C      1  0.3264590000000  0.4238870000000  0.6442620000000 1.0
C      1  0.3579010000000  0.3288320000000  0.5747500000000 1.0
C      1  0.5741820000000  0.6498440000000  0.6797660000000 1.0
C      1  0.5742390000000  0.3501780000000  0.3202400000000 1.0
C      1  0.4260050000000  0.6410660000000  0.3286920000000 1.0
C      1  0.6732240000000  0.5850570000000  0.6504610000000 1.0
C      1  0.6732590000000  0.4149940000000  0.3495510000000 1.0
C      1  0.3264470000000  0.5760630000000  0.3557240000000 1.0
C      1  0.6430020000000  0.6835180000000  0.5850260000000 1.0
C      1  0.6430620000000  0.3165250000000  0.4149850000000 1.0
C      1  0.3578560000000  0.6711260000000  0.4252400000000 1.0
C      1  0.3104350000000  0.4981750000000  0.2995010000000 1.0
C      1  0.3000370000000  0.3119050000000  0.4980980000000 1.0
C      1  0.5057640000000  0.6960850000000  0.3168490000000 1.0
C      1  0.5058080000000  0.3039160000000  0.6831510000000 1.0
C      1  0.4940600000000  0.7038990000000  0.6944450000000 1.0
C      1  0.6898260000000  0.4967220000000  0.2995820000000 1.0
C      1  0.6898110000000  0.5033340000000  0.7004320000000 1.0
C      1  0.3104200000000  0.5017690000000  0.7004850000000 1.0
C      1  0.7003530000000  0.6891110000000  0.5055840000000 1.0
C      1  0.7004090000000  0.3109480000000  0.4944310000000 1.0
C      1  0.2999820000000  0.6880360000000  0.5018880000000 1.0
C      1  0.4941340000000  0.2960990000000  0.3055540000000 1.0
END
