TITL C-3036479-9801-411 -2.10598192778837e-05 3375 -345.286680062176 0 0 60 (Ci) n - 1
REM
REM in /home/bkarasulu/work/CARBON/AIRSS/Generating-Clusters/REBO/Higher-Symm/Only-C60
REM
REM
REM
REM
REM
REM ./C.cell (a2850807a9bf4ad07a5b6933b78d9264)
REM AIRSS Version 0.9.1 bugfix July 2018 build 013d7b7c2542+ Fri, 06 Jul 2018 19:26:36 +0100
REM compiler GCC version 9.2.1 20190827 (Red Hat 9.2.1-1)
REM options -cpp -mtune=generic -march=x86-64 -g -O0 -fpre-include=/usr/include/finclude/math-vector-fortran.h
REM seed -255105263 -1937851748 132426747 -1421454710 1736031706 -1026535624 364383771 1069001986 1674697887 1703354229 1040275085 1868819845 1582251281 -1321553205 -1385625750 1525879824 -1510098236 578648619 457745522 -582891446 -1107198140 -131902211 -1320972637 -2042926126 -1627835117 -283140192 1893108995 1455366897 14202436 627438990 1379537303 2119621316 1464428107
REM
CELL 1.54180   15.00000   15.00000   15.00000   90.00000   90.00000   90.00000
LATT -1
SFAC C  
C      1  0.6180670000000  0.5528900000000  0.5188970000000 1.0
C      1  0.3819330000000  0.4471100000000  0.4811030000000 1.0
C      1  0.4927480000000  0.7563140000000  0.6337990000000 1.0
C      1  0.5072520000000  0.2436860000000  0.3662010000000 1.0
C      1  0.4892830000000  0.4306990000000  0.6095640000000 1.0
C      1  0.5107170000000  0.5693010000000  0.3904360000000 1.0
C      1  0.5111970000000  0.5614900000000  0.6139140000000 1.0
C      1  0.4888030000000  0.4385100000000  0.3860860000000 1.0
C      1  0.6800220000000  0.7048790000000  0.4817760000000 1.0
C      1  0.3199780000000  0.2951210000000  0.5182240000000 1.0
C      1  0.6360970000000  0.5358930000000  0.2995010000000 1.0
C      1  0.3639030000000  0.4641070000000  0.7004990000000 1.0
C      1  0.7178410000000  0.6378660000000  0.5420970000000 1.0
C      1  0.2821590000000  0.3621340000000  0.4579030000000 1.0
C      1  0.5829440000000  0.3002760000000  0.3747120000000 1.0
C      1  0.4170560000000  0.6997240000000  0.6252880000000 1.0
C      1  0.4748410000000  0.5629310000000  0.2223690000000 1.0
C      1  0.5251580000000  0.4370690000000  0.7776310000000 1.0
C      1  0.7012590000000  0.3183820000000  0.4957920000000 1.0
C      1  0.2987410000000  0.6816180000000  0.5042080000000 1.0
C      1  0.6813440000000  0.5709360000000  0.6067380000000 1.0
C      1  0.3186560000000  0.4290640000000  0.3932620000000 1.0
C      1  0.2943430000000  0.6114750000000  0.4444160000000 1.0
C      1  0.7056570000000  0.3885250000000  0.5555840000000 1.0
C      1  0.5472070000000  0.6950370000000  0.3656270000000 1.0
C      1  0.4527930000000  0.3049630000000  0.6343740000000 1.0
C      1  0.3691240000000  0.2308120000000  0.4694160000000 1.0
C      1  0.6308760000000  0.7691880000000  0.5305840000000 1.0
C      1  0.6116090000000  0.3064240000000  0.4668070000000 1.0
C      1  0.3883910000000  0.6935760000000  0.5331930000000 1.0
C      1  0.4591270000000  0.3663330000000  0.4614870000000 1.0
C      1  0.5408730000000  0.6336660000000  0.5385130000000 1.0
C      1  0.6938630000000  0.5339520000000  0.4444860000000 1.0
C      1  0.3061370000000  0.4660480000000  0.5555140000000 1.0
C      1  0.4294910000000  0.6116520000000  0.6636390000000 1.0
C      1  0.5705090000000  0.3883480000000  0.3363610000000 1.0
C      1  0.5408040000000  0.3217150000000  0.6647380000000 1.0
C      1  0.4591960000000  0.6782850000000  0.3352620000000 1.0
C      1  0.5435810000000  0.5595490000000  0.2978240000000 1.0
C      1  0.4564190000000  0.4404510000000  0.7021760000000 1.0
C      1  0.3503740000000  0.5589130000000  0.6737530000000 1.0
C      1  0.6496260000000  0.4410870000000  0.3262470000000 1.0
C      1  0.3616970000000  0.3237910000000  0.6027210000000 1.0
C      1  0.6383030000000  0.6762090000000  0.3972790000000 1.0
C      1  0.4019390000000  0.4984850000000  0.3600070000000 1.0
C      1  0.5980610000000  0.5015150000000  0.6399930000000 1.0
C      1  0.6776550000000  0.5930230000000  0.3686780000000 1.0
C      1  0.3223450000000  0.4069770000000  0.6313220000000 1.0
C      1  0.4396730000000  0.2714040000000  0.4244460000000 1.0
C      1  0.5603270000000  0.7285960000000  0.5755540000000 1.0
C      1  0.4440730000000  0.4986030000000  0.5484400000000 1.0
C      1  0.5559270000000  0.5013970000000  0.4515590000000 1.0
C      1  0.4157630000000  0.5947440000000  0.3005330000000 1.0
C      1  0.5842370000000  0.4052560000000  0.6994670000000 1.0
C      1  0.2959260000000  0.5545380000000  0.5924260000000 1.0
C      1  0.7040740000000  0.4454620000000  0.4075740000000 1.0
C      1  0.4603700000000  0.6356980000000  0.4672680000000 1.0
C      1  0.5396300000000  0.3643020000000  0.5327320000000 1.0
C      1  0.6227570000000  0.4223360000000  0.5746250000000 1.0
C      1  0.3772430000000  0.5776640000000  0.4253760000000 1.0
END
