TITL C-3036483-1610-552 -0.0277220344771767 3375 -328.883408963099 0 0 60 (C4h) n - 1
REM
REM in /home/bkarasulu/work/CARBON/AIRSS/Generating-Clusters/REBO/Higher-Symm/Only-C60
REM
REM
REM
REM
REM
REM ./C.cell (a2850807a9bf4ad07a5b6933b78d9264)
REM AIRSS Version 0.9.1 bugfix July 2018 build 013d7b7c2542+ Fri, 06 Jul 2018 19:26:36 +0100
REM compiler GCC version 9.2.1 20190827 (Red Hat 9.2.1-1)
REM options -cpp -mtune=generic -march=x86-64 -g -O0 -fpre-include=/usr/include/finclude/math-vector-fortran.h
REM seed -669727192 358923878 596321996 1574915961 337586443 1003121574 -1377792346 805907675 1229192972 1016923994 -349432471 -924683888 -2015196821 -543451648 842018795 -1571627314 1290262884 -1644125535 1008401085 859720681 -161254584 2091546481 871033073 516061568 -1971234048 -377493515 1615377850 -70410080 1502441893 -263436257 1494532974 -1759272106 -157838558
REM
CELL 1.54180   15.00000   15.00000   15.00000   90.00000   90.00000   90.00000
LATT -1
SFAC C  
C      1  0.5559140000000  0.6871450000000  0.3362200000000 1.0
C      1  0.5559140000000  0.6637800000000  0.6871450000000 1.0
C      1  0.5559140000000  0.3128550000000  0.6637800000000 1.0
C      1  0.5559140000000  0.3362200000000  0.3128550000000 1.0
C      1  0.4431710000000  0.6871450000000  0.3362200000000 1.0
C      1  0.4431710000000  0.6637800000000  0.6871450000000 1.0
C      1  0.4431710000000  0.3128550000000  0.6637800000000 1.0
C      1  0.4431710000000  0.3362200000000  0.3128550000000 1.0
C      1  0.5885730000000  0.4525810000000  0.7338340000000 1.0
C      1  0.5885730000000  0.2661660000000  0.4525810000000 1.0
C      1  0.5885730000000  0.5474190000000  0.2661660000000 1.0
C      1  0.5885730000000  0.7338340000000  0.5474190000000 1.0
C      1  0.4105110000000  0.4525810000000  0.7338340000000 1.0
C      1  0.4105110000000  0.2661660000000  0.4525810000000 1.0
C      1  0.4105110000000  0.5474190000000  0.2661660000000 1.0
C      1  0.4105110000000  0.7338340000000  0.5474190000000 1.0
C      1  0.5982700000000  0.5634900000000  0.7080980000000 1.0
C      1  0.5982700000000  0.2919020000000  0.5634900000000 1.0
C      1  0.5982700000000  0.4365100000000  0.2919020000000 1.0
C      1  0.5982700000000  0.7080980000000  0.4365100000000 1.0
C      1  0.4008140000000  0.5634900000000  0.7080980000000 1.0
C      1  0.4008140000000  0.2919020000000  0.5634900000000 1.0
C      1  0.4008140000000  0.4365100000000  0.2919020000000 1.0
C      1  0.4008140000000  0.7080980000000  0.4365100000000 1.0
C      1  0.4484850000000  0.5092290000000  0.6203390000000 1.0
C      1  0.4484850000000  0.3796610000000  0.5092290000000 1.0
C      1  0.4484850000000  0.4907710000000  0.3796610000000 1.0
C      1  0.4484850000000  0.6203390000000  0.4907710000000 1.0
C      1  0.5505990000000  0.5092290000000  0.6203390000000 1.0
C      1  0.5505990000000  0.3796610000000  0.5092290000000 1.0
C      1  0.5505990000000  0.4907710000000  0.3796610000000 1.0
C      1  0.5505990000000  0.6203390000000  0.4907710000000 1.0
C      1  0.4398610000000  0.3908870000000  0.4100620000000 1.0
C      1  0.4398610000000  0.5899380000000  0.3908870000000 1.0
C      1  0.4398610000000  0.6091130000000  0.5899380000000 1.0
C      1  0.4398610000000  0.4100620000000  0.6091130000000 1.0
C      1  0.5592240000000  0.3908870000000  0.4100620000000 1.0
C      1  0.5592240000000  0.5899380000000  0.3908870000000 1.0
C      1  0.5592240000000  0.6091130000000  0.5899380000000 1.0
C      1  0.5592240000000  0.4100620000000  0.6091130000000 1.0
C      1  0.3017060000000  0.5749570000000  0.5088690000000 1.0
C      1  0.3017060000000  0.4911310000000  0.5749570000000 1.0
C      1  0.3017060000000  0.4250430000000  0.4911310000000 1.0
C      1  0.3017060000000  0.5088690000000  0.4250430000000 1.0
C      1  0.6973780000000  0.5749570000000  0.5088690000000 1.0
C      1  0.6973780000000  0.4911310000000  0.5749570000000 1.0
C      1  0.6973780000000  0.4250430000000  0.4911310000000 1.0
C      1  0.6973780000000  0.5088690000000  0.4250430000000 1.0
C      1  0.6728600000000  0.3335390000000  0.4876210000000 1.0
C      1  0.6728600000000  0.5123790000000  0.3335390000000 1.0
C      1  0.6728600000000  0.6664610000000  0.5123790000000 1.0
C      1  0.6728600000000  0.4876210000000  0.6664610000000 1.0
C      1  0.3262240000000  0.3335390000000  0.4876210000000 1.0
C      1  0.3262240000000  0.5123790000000  0.3335390000000 1.0
C      1  0.3262240000000  0.6664610000000  0.5123790000000 1.0
C      1  0.3262240000000  0.4876210000000  0.6664610000000 1.0
C      1  0.4995420000000  0.3922670000000  0.7263330000000 1.0
C      1  0.4995420000000  0.2736670000000  0.3922670000000 1.0
C      1  0.4995420000000  0.6077330000000  0.2736670000000 1.0
C      1  0.4995420000000  0.7263330000000  0.6077330000000 1.0
END
