TITL C-3036483-1610-1061 1.05067800305594e-06 3375 -332.798291480511 0 0 60 (S4) n - 1
REM
REM in /home/bkarasulu/work/CARBON/AIRSS/Generating-Clusters/REBO/Higher-Symm/Only-C60
REM
REM
REM
REM
REM
REM ./C.cell (a2850807a9bf4ad07a5b6933b78d9264)
REM AIRSS Version 0.9.1 bugfix July 2018 build 013d7b7c2542+ Fri, 06 Jul 2018 19:26:36 +0100
REM compiler GCC version 9.2.1 20190827 (Red Hat 9.2.1-1)
REM options -cpp -mtune=generic -march=x86-64 -g -O0 -fpre-include=/usr/include/finclude/math-vector-fortran.h
REM seed -2082182990 176856170 1142857649 -2012648934 -771838772 626752100 381785233 16626147 -327952594 1054116042 135406875 -1467957722 -488967637 1248788458 -1656092727 -679809184 1427964784 -1520354439 -1219698046 -1565771188 -910972841 -451293793 -1038131442 1366545729 113488772 -500364185 192183522 -1768705884 471389011 283005178 -1022517442 847502918 1585028217
REM
CELL 1.54180   15.00000   15.00000   15.00000   90.00000   90.00000   90.00000
LATT -1
SFAC C  
C      1  0.3317160000000  0.4088230000000  0.3067150000000 1.0
C      1  0.6682840000000  0.6932850000000  0.4088230000000 1.0
C      1  0.3317160000000  0.5911770000000  0.6932850000000 1.0
C      1  0.6682840000000  0.3067150000000  0.5911770000000 1.0
C      1  0.6259390000000  0.6019180000000  0.3663100000000 1.0
C      1  0.3740610000000  0.6336900000000  0.6019190000000 1.0
C      1  0.6259390000000  0.3980810000000  0.6336900000000 1.0
C      1  0.3740610000000  0.3663100000000  0.3980820000000 1.0
C      1  0.3839870000000  0.5375760000000  0.5425890000000 1.0
C      1  0.6160130000000  0.4574110000000  0.5375760000000 1.0
C      1  0.3839870000000  0.4624240000000  0.4574110000000 1.0
C      1  0.6160130000000  0.5425890000000  0.4624240000000 1.0
C      1  0.5639480000000  0.6882110000000  0.6513560000000 1.0
C      1  0.4360520000000  0.3486440000000  0.6882110000000 1.0
C      1  0.5639480000000  0.3117890000000  0.3486440000000 1.0
C      1  0.4360520000000  0.6513560000000  0.3117890000000 1.0
C      1  0.4675890000000  0.2618390000000  0.3802000000000 1.0
C      1  0.5324110000000  0.6198000000000  0.2618390000000 1.0
C      1  0.4675890000000  0.7381610000000  0.6198010000000 1.0
C      1  0.5324110000000  0.3802000000000  0.7381610000000 1.0
C      1  0.4633110000000  0.3622200000000  0.3266820000000 1.0
C      1  0.5366880000000  0.6733180000000  0.3622200000000 1.0
C      1  0.4633120000000  0.6377800000000  0.6733180000000 1.0
C      1  0.5366890000000  0.3266820000000  0.6377800000000 1.0
C      1  0.4825310000000  0.5504750000000  0.7241970000000 1.0
C      1  0.5174690000000  0.2758030000000  0.5504750000000 1.0
C      1  0.4825310000000  0.4495250000000  0.2758030000000 1.0
C      1  0.5174690000000  0.7241970000000  0.4495250000000 1.0
C      1  0.4324340000000  0.6130630000000  0.4180190000000 1.0
C      1  0.5675660000000  0.5819810000000  0.6130630000000 1.0
C      1  0.4324340000000  0.3869370000000  0.5819810000000 1.0
C      1  0.5675660000000  0.4180190000000  0.3869370000000 1.0
C      1  0.4113800000000  0.7516680000000  0.4746160000000 1.0
C      1  0.5886200000000  0.5253840000000  0.7516680000000 1.0
C      1  0.4113800000000  0.2483320000000  0.5253840000000 1.0
C      1  0.5886200000000  0.4746160000000  0.2483320000000 1.0
C      1  0.6185660000000  0.2728400000000  0.5198050000000 1.0
C      1  0.3814340000000  0.4801950000000  0.2728400000000 1.0
C      1  0.6185660000000  0.7271600000000  0.4801950000000 1.0
C      1  0.3814340000000  0.5198050000000  0.7271600000000 1.0
C      1  0.4835380000000  0.4273350000000  0.4412190000000 1.0
C      1  0.5164620000000  0.5587810000000  0.4273350000000 1.0
C      1  0.4835380000000  0.5726650000000  0.5587810000000 1.0
C      1  0.5164620000000  0.4412190000000  0.5726650000000 1.0
C      1  0.3515040000000  0.5527850000000  0.4148060000000 1.0
C      1  0.6484960000000  0.5851940000000  0.5527840000000 1.0
C      1  0.3515040000000  0.4472150000000  0.5851940000000 1.0
C      1  0.6484960000000  0.4148060000000  0.4472150000000 1.0
C      1  0.5069310000000  0.4596240000000  0.6703630000000 1.0
C      1  0.4930690000000  0.3296370000000  0.4596240000000 1.0
C      1  0.5069310000000  0.5403760000000  0.3296380000000 1.0
C      1  0.4930700000000  0.6703630000000  0.5403760000000 1.0
C      1  0.3672670000000  0.2860420000000  0.4645280000000 1.0
C      1  0.6327330000000  0.5354720000000  0.2860420000000 1.0
C      1  0.3672670000000  0.7139580000000  0.5354720000000 1.0
C      1  0.6327330000000  0.4645280000000  0.7139580000000 1.0
C      1  0.6336740000000  0.6860950000000  0.5644810000000 1.0
C      1  0.3663270000000  0.4355190000000  0.6860950000000 1.0
C      1  0.6336730000000  0.3139050000000  0.4355190000000 1.0
C      1  0.3663260000000  0.5644810000000  0.3139050000000 1.0
END
