TITL C-3036485-3770-17 1.14291264078291e-05 3375 -333.740702754983 0 0 60 (C2) n - 1
REM
REM in /home/bkarasulu/work/CARBON/AIRSS/Generating-Clusters/REBO/Higher-Symm/Only-C60
REM
REM
REM
REM
REM
REM ./C.cell (a2850807a9bf4ad07a5b6933b78d9264)
REM AIRSS Version 0.9.1 bugfix July 2018 build 013d7b7c2542+ Fri, 06 Jul 2018 19:26:36 +0100
REM compiler GCC version 9.2.1 20190827 (Red Hat 9.2.1-1)
REM options -cpp -mtune=generic -march=x86-64 -g -O0 -fpre-include=/usr/include/finclude/math-vector-fortran.h
REM seed -1687408090 183809171 1675112031 -2058071092 -1443462712 -1882982702 1691889157 1662106029 -1335043836 1128054538 1482647095 2083241622 847714283 -2048436700 2078950206 -642406260 1946213888 1406864443 -766547317 1751334070 -2111659022 -1656258258 -1602564800 -1777362708 -80394097 800378748 -1355357873 1089394523 -1917882248 -1568742921 -1797551636 1574275031 -5457630
REM
CELL 1.54180   15.00000   15.00000   15.00000   90.00000   90.00000   90.00000
LATT -1
SFAC C  
C      1  0.6348400000000  0.5768450000000  0.3137120000000 1.0
C      1  0.3651590000000  0.5768440000000  0.6862880000000 1.0
C      1  0.4186930000000  0.4480330000000  0.4580900000000 1.0
C      1  0.5813070000000  0.4480330000000  0.5419100000000 1.0
C      1  0.4085800000000  0.3426350000000  0.4700940000000 1.0
C      1  0.5914210000000  0.3426360000000  0.5299060000000 1.0
C      1  0.3622560000000  0.4898120000000  0.6174120000000 1.0
C      1  0.6377440000000  0.4898130000000  0.3825880000000 1.0
C      1  0.4042430000000  0.5747070000000  0.3085250000000 1.0
C      1  0.5957560000000  0.5747080000000  0.6914740000000 1.0
C      1  0.7390140000000  0.4390940000000  0.4522550000000 1.0
C      1  0.2609870000000  0.4390930000000  0.5477450000000 1.0
C      1  0.4678760000000  0.6916690000000  0.5920130000000 1.0
C      1  0.5321230000000  0.6916690000000  0.4079870000000 1.0
C      1  0.3273680000000  0.3820160000000  0.6135340000000 1.0
C      1  0.6726330000000  0.3820170000000  0.3864660000000 1.0
C      1  0.2807890000000  0.4432910000000  0.4543670000000 1.0
C      1  0.7192120000000  0.4432930000000  0.5456330000000 1.0
C      1  0.5777320000000  0.3878550000000  0.3244840000000 1.0
C      1  0.4222680000000  0.3878550000000  0.6755160000000 1.0
C      1  0.5043250000000  0.3722080000000  0.4334820000000 1.0
C      1  0.4956760000000  0.3722080000000  0.5665180000000 1.0
C      1  0.6502300000000  0.6222640000000  0.6197640000000 1.0
C      1  0.3497700000000  0.6222620000000  0.3802360000000 1.0
C      1  0.5639800000000  0.6544990000000  0.5678300000000 1.0
C      1  0.4360190000000  0.6544990000000  0.4321700000000 1.0
C      1  0.5666330000000  0.6663230000000  0.3172310000000 1.0
C      1  0.4333660000000  0.6663230000000  0.6827690000000 1.0
C      1  0.5923600000000  0.4210960000000  0.2237930000000 1.0
C      1  0.4076400000000  0.4210960000000  0.7762070000000 1.0
C      1  0.7247040000000  0.5895470000000  0.3821380000000 1.0
C      1  0.2752960000000  0.5895460000000  0.6178620000000 1.0
C      1  0.5538620000000  0.5073200000000  0.2732470000000 1.0
C      1  0.4461390000000  0.5073210000000  0.7267530000000 1.0
C      1  0.5040940000000  0.5582570000000  0.5551790000000 1.0
C      1  0.4959060000000  0.5582570000000  0.4448200000000 1.0
C      1  0.6243860000000  0.4728120000000  0.6919040000000 1.0
C      1  0.3756140000000  0.4728100000000  0.3080960000000 1.0
C      1  0.5237830000000  0.4240770000000  0.7114480000000 1.0
C      1  0.4762170000000  0.4240770000000  0.2885520000000 1.0
C      1  0.2215760000000  0.5136740000000  0.5945620000000 1.0
C      1  0.7784240000000  0.5136760000000  0.4054380000000 1.0
C      1  0.4002820000000  0.3196810000000  0.5659090000000 1.0
C      1  0.5997190000000  0.3196820000000  0.4340910000000 1.0
C      1  0.3797580000000  0.5130010000000  0.5096360000000 1.0
C      1  0.6202420000000  0.5130010000000  0.4903640000000 1.0
C      1  0.4076550000000  0.3481810000000  0.3371390000000 1.0
C      1  0.5923460000000  0.3481820000000  0.6628610000000 1.0
C      1  0.4043710000000  0.6735400000000  0.5257140000000 1.0
C      1  0.5956280000000  0.6735400000000  0.4742870000000 1.0
C      1  0.4968760000000  0.5798070000000  0.6671540000000 1.0
C      1  0.5031230000000  0.5798060000000  0.3328450000000 1.0
C      1  0.3457760000000  0.6022080000000  0.5477240000000 1.0
C      1  0.6542230000000  0.6022090000000  0.4522760000000 1.0
C      1  0.3285950000000  0.3935770000000  0.3764410000000 1.0
C      1  0.6714060000000  0.3935780000000  0.6235590000000 1.0
C      1  0.4659890000000  0.4686660000000  0.6009590000000 1.0
C      1  0.5340110000000  0.4686660000000  0.3990410000000 1.0
C      1  0.6843490000000  0.5233020000000  0.6079160000000 1.0
C      1  0.3156520000000  0.5233010000000  0.3920840000000 1.0
END
