TITL C-3036485-3770-119 -3.77627486528443e-06 3375 -349.631792813098 0 0 60 (C2) n - 1
REM
REM in /home/bkarasulu/work/CARBON/AIRSS/Generating-Clusters/REBO/Higher-Symm/Only-C60
REM
REM
REM
REM
REM
REM ./C.cell (a2850807a9bf4ad07a5b6933b78d9264)
REM AIRSS Version 0.9.1 bugfix July 2018 build 013d7b7c2542+ Fri, 06 Jul 2018 19:26:36 +0100
REM compiler GCC version 9.2.1 20190827 (Red Hat 9.2.1-1)
REM options -cpp -mtune=generic -march=x86-64 -g -O0 -fpre-include=/usr/include/finclude/math-vector-fortran.h
REM seed -836042430 793359165 -176986565 -1996574359 1315835182 369387755 -577813131 -627574259 -524194385 1586514961 1873556220 -1028735712 -1354725997 -722396505 1010461760 -538715596 505673934 1922895572 -1929917166 -758448263 1419330469 2143380771 1377357638 1388358777 -387916965 -1634170976 -1090836097 185813591 -587572481 1618865272 363014958 845410831 -829985807
REM
CELL 1.54180   15.00000   15.00000   15.00000   90.00000   90.00000   90.00000
LATT -1
SFAC C  
C      1  0.3660290000000  0.7166980000000  0.4530650000000 1.0
C      1  0.6339720000000  0.7166970000000  0.5469350000000 1.0
C      1  0.4394760000000  0.5960950000000  0.4292630000000 1.0
C      1  0.5605240000000  0.5960950000000  0.5707370000000 1.0
C      1  0.5903420000000  0.4554590000000  0.5633940000000 1.0
C      1  0.4096580000000  0.4554590000000  0.4366060000000 1.0
C      1  0.4821550000000  0.6750600000000  0.4043090000000 1.0
C      1  0.5178450000000  0.6750600000000  0.5956920000000 1.0
C      1  0.3961480000000  0.3967830000000  0.5233850000000 1.0
C      1  0.6038520000000  0.3967830000000  0.4766140000000 1.0
C      1  0.5045100000000  0.5115210000000  0.5944090000000 1.0
C      1  0.4954900000000  0.5115210000000  0.4055910000000 1.0
C      1  0.5870300000000  0.6766510000000  0.3797290000000 1.0
C      1  0.4129700000000  0.6766510000000  0.6202720000000 1.0
C      1  0.4044670000000  0.4978800000000  0.7317480000000 1.0
C      1  0.5955330000000  0.4978810000000  0.2682520000000 1.0
C      1  0.4690090000000  0.4284020000000  0.7479030000000 1.0
C      1  0.5309910000000  0.4284030000000  0.2520960000000 1.0
C      1  0.2982540000000  0.3834240000000  0.4340640000000 1.0
C      1  0.7017460000000  0.3834230000000  0.5659350000000 1.0
C      1  0.6088010000000  0.3206430000000  0.5854290000000 1.0
C      1  0.3911980000000  0.3206430000000  0.4145700000000 1.0
C      1  0.6956900000000  0.4973320000000  0.5739910000000 1.0
C      1  0.3043100000000  0.4973320000000  0.4260090000000 1.0
C      1  0.4259270000000  0.5679320000000  0.6535430000000 1.0
C      1  0.5740740000000  0.5679330000000  0.3464570000000 1.0
C      1  0.3251460000000  0.5433720000000  0.2709990000000 1.0
C      1  0.6748540000000  0.5433710000000  0.7290010000000 1.0
C      1  0.5741860000000  0.4411260000000  0.3869450000000 1.0
C      1  0.4258140000000  0.4411260000000  0.6130550000000 1.0
C      1  0.3327450000000  0.4730560000000  0.6595920000000 1.0
C      1  0.6672550000000  0.4730560000000  0.3404070000000 1.0
C      1  0.4954980000000  0.3018750000000  0.3912520000000 1.0
C      1  0.5045010000000  0.3018750000000  0.6087470000000 1.0
C      1  0.7330610000000  0.4621790000000  0.4075300000000 1.0
C      1  0.2669390000000  0.4621790000000  0.5924700000000 1.0
C      1  0.6365600000000  0.4064870000000  0.6550190000000 1.0
C      1  0.3634400000000  0.4064870000000  0.3449810000000 1.0
C      1  0.6767210000000  0.6629750000000  0.6074230000000 1.0
C      1  0.3232790000000  0.6629750000000  0.3925780000000 1.0
C      1  0.3065150000000  0.5753140000000  0.3584680000000 1.0
C      1  0.6934850000000  0.5753140000000  0.6415320000000 1.0
C      1  0.3384670000000  0.6027800000000  0.5937300000000 1.0
C      1  0.6615330000000  0.6027800000000  0.4062710000000 1.0
C      1  0.5542890000000  0.3030810000000  0.4867900000000 1.0
C      1  0.4457100000000  0.3030810000000  0.5132090000000 1.0
C      1  0.7230930000000  0.5389090000000  0.4751940000000 1.0
C      1  0.2769070000000  0.5389090000000  0.5248060000000 1.0
C      1  0.6267460000000  0.5892950000000  0.5085650000000 1.0
C      1  0.3732540000000  0.5892950000000  0.4914360000000 1.0
C      1  0.4472500000000  0.7246790000000  0.5224060000000 1.0
C      1  0.5527500000000  0.7246790000000  0.4775950000000 1.0
C      1  0.5307490000000  0.3648780000000  0.3287690000000 1.0
C      1  0.4692510000000  0.3648780000000  0.6712310000000 1.0
C      1  0.4467750000000  0.4452070000000  0.2120220000000 1.0
C      1  0.5532250000000  0.4452060000000  0.7879770000000 1.0
C      1  0.7138460000000  0.3813550000000  0.4599980000000 1.0
C      1  0.2861540000000  0.3813560000000  0.5400020000000 1.0
C      1  0.3688940000000  0.4595520000000  0.2629210000000 1.0
C      1  0.6311060000000  0.4595510000000  0.7370790000000 1.0
END
