TITL C-3036479-9801-964 0.000926305332118631 3375 -353.943390182796 0 0 60 (C1) n - 1
REM
REM in /home/bkarasulu/work/CARBON/AIRSS/Generating-Clusters/REBO/Higher-Symm/Only-C60
REM
REM
REM
REM
REM
REM ./C.cell (a2850807a9bf4ad07a5b6933b78d9264)
REM AIRSS Version 0.9.1 bugfix July 2018 build 013d7b7c2542+ Fri, 06 Jul 2018 19:26:36 +0100
REM compiler GCC version 9.2.1 20190827 (Red Hat 9.2.1-1)
REM options -cpp -mtune=generic -march=x86-64 -g -O0 -fpre-include=/usr/include/finclude/math-vector-fortran.h
REM seed 1057506858 -117607803 -1560958515 263931284 113517822 556659226 1271734246 -1291940434 455506379 571885992 -1244523734 -467448115 -1311865444 972339652 -1463347458 2001827846 250541516 1613998870 559740746 151196594 -746136405 -356432796 2074532554 796263588 -1614435204 -1019666241 1462911421 1200221667 -2042777462 1936115091 135014577 -68813872 981181920
REM
CELL 1.54180   15.00000   15.00000   15.00000   90.00000   90.00000   90.00000
LATT -1
SFAC C  
C      1  0.4609710000000  0.3607400000000  0.4541890000000 1.0
C      1  0.4585540000000  0.3652660000000  0.5342150000000 1.0
C      1  0.5225460000000  0.7138090000000  0.4208790000000 1.0
C      1  0.5292610000000  0.7250170000000  0.5934020000000 1.0
C      1  0.3827040000000  0.5276980000000  0.5584660000000 1.0
C      1  0.3644220000000  0.5303550000000  0.4466010000000 1.0
C      1  0.3989920000000  0.2711640000000  0.6409170000000 1.0
C      1  0.3928940000000  0.2639350000000  0.3628310000000 1.0
C      1  0.4228140000000  0.7270570000000  0.4559970000000 1.0
C      1  0.4311460000000  0.7446550000000  0.5642490000000 1.0
C      1  0.7487130000000  0.4797340000000  0.5564950000000 1.0
C      1  0.7428070000000  0.4730140000000  0.4460800000000 1.0
C      1  0.4939600000000  0.2557820000000  0.6676760000000 1.0
C      1  0.4843680000000  0.2419600000000  0.3278900000000 1.0
C      1  0.6165920000000  0.4871670000000  0.5415600000000 1.0
C      1  0.6075400000000  0.4740470000000  0.4472820000000 1.0
C      1  0.6346390000000  0.6020390000000  0.5625160000000 1.0
C      1  0.6293610000000  0.5908470000000  0.4591230000000 1.0
C      1  0.4783060000000  0.5733070000000  0.5648620000000 1.0
C      1  0.4667550000000  0.5704020000000  0.4650660000000 1.0
C      1  0.5875160000000  0.2933850000000  0.6297630000000 1.0
C      1  0.5822390000000  0.2778170000000  0.3568570000000 1.0
C      1  0.4966680000000  0.3475020000000  0.3614880000000 1.0
C      1  0.4981060000000  0.3590170000000  0.6256880000000 1.0
C      1  0.2644000000000  0.5245760000000  0.6181490000000 1.0
C      1  0.2677970000000  0.5162030000000  0.3565110000000 1.0
C      1  0.4673280000000  0.5905310000000  0.3170980000000 1.0
C      1  0.4630260000000  0.5985510000000  0.6946710000000 1.0
C      1  0.6296580000000  0.5637110000000  0.6898440000000 1.0
C      1  0.6342570000000  0.5532830000000  0.3133970000000 1.0
C      1  0.4463710000000  0.4961460000000  0.3165300000000 1.0
C      1  0.4414900000000  0.5052970000000  0.6792080000000 1.0
C      1  0.6642800000000  0.3097890000000  0.3848080000000 1.0
C      1  0.6667780000000  0.3247040000000  0.5947510000000 1.0
C      1  0.2853090000000  0.5847990000000  0.5388590000000 1.0
C      1  0.2619920000000  0.5811500000000  0.4323160000000 1.0
C      1  0.5385660000000  0.6209340000000  0.4254470000000 1.0
C      1  0.5455550000000  0.6326270000000  0.5945000000000 1.0
C      1  0.6006990000000  0.4662260000000  0.3528870000000 1.0
C      1  0.5966490000000  0.4837790000000  0.6376590000000 1.0
C      1  0.4177680000000  0.6627210000000  0.6425460000000 1.0
C      1  0.4178660000000  0.6500570000000  0.3702840000000 1.0
C      1  0.7131460000000  0.3707970000000  0.4352450000000 1.0
C      1  0.7167180000000  0.3815520000000  0.5386940000000 1.0
C      1  0.3513380000000  0.4628620000000  0.6427930000000 1.0
C      1  0.3605800000000  0.4608860000000  0.3610060000000 1.0
C      1  0.5924110000000  0.7795350000000  0.5474590000000 1.0
C      1  0.5871720000000  0.7745120000000  0.4549740000000 1.0
C      1  0.3484160000000  0.3659720000000  0.6298350000000 1.0
C      1  0.3534240000000  0.3640650000000  0.3757270000000 1.0
C      1  0.7116160000000  0.5462030000000  0.6134660000000 1.0
C      1  0.7046590000000  0.5474220000000  0.3956540000000 1.0
C      1  0.5138550000000  0.4475360000000  0.6638260000000 1.0
C      1  0.5172400000000  0.4344350000000  0.3213440000000 1.0
C      1  0.3491000000000  0.6715280000000  0.5526500000000 1.0
C      1  0.3328450000000  0.6608780000000  0.4409950000000 1.0
C      1  0.5592460000000  0.6094580000000  0.2915550000000 1.0
C      1  0.5548450000000  0.6122460000000  0.7257400000000 1.0
C      1  0.3457970000000  0.2938050000000  0.4569950000000 1.0
C      1  0.3459300000000  0.2955090000000  0.5484830000000 1.0
END
