TITL C-3036481-494-178 1.8870703420583e-08 3375 -358.232013980726 0 0 60 (C1) n - 1
REM
REM in /home/bkarasulu/work/CARBON/AIRSS/Generating-Clusters/REBO/Higher-Symm/Only-C60
REM
REM
REM
REM
REM
REM ./C.cell (a2850807a9bf4ad07a5b6933b78d9264)
REM AIRSS Version 0.9.1 bugfix July 2018 build 013d7b7c2542+ Fri, 06 Jul 2018 19:26:36 +0100
REM compiler GCC version 9.2.1 20190827 (Red Hat 9.2.1-1)
REM options -cpp -mtune=generic -march=x86-64 -g -O0 -fpre-include=/usr/include/finclude/math-vector-fortran.h
REM seed -2068231436 -1995445855 579503430 467927109 1959002551 1621871318 -2088966861 -1573044702 -2142403615 1045197770 281419524 1211941941 1530788275 -423432420 822377498 1368158571 1513705298 -556004059 1451725021 -1753876359 -1014519019 -246644824 650952124 -1416603302 -1692363356 -1454215599 756295806 854618987 486500600 1197749176 -1615460349 -1560652499 -924459005
REM
CELL 1.54180   15.00000   15.00000   15.00000   90.00000   90.00000   90.00000
LATT -1
SFAC C  
C      1  0.4149670000000  0.5540580000000  0.2712410000000 1.0
C      1  0.4503600000000  0.2725200000000  0.5639930000000 1.0
C      1  0.4185730000000  0.6795030000000  0.6565610000000 1.0
C      1  0.4341610000000  0.4441040000000  0.2548600000000 1.0
C      1  0.4416520000000  0.7422340000000  0.5667520000000 1.0
C      1  0.4268150000000  0.3363400000000  0.6521360000000 1.0
C      1  0.7157210000000  0.4403370000000  0.5894940000000 1.0
C      1  0.6994390000000  0.5847830000000  0.5165210000000 1.0
C      1  0.7104080000000  0.4503140000000  0.4180000000000 1.0
C      1  0.7013960000000  0.5398260000000  0.5972180000000 1.0
C      1  0.7207050000000  0.4012580000000  0.5067170000000 1.0
C      1  0.7019760000000  0.5443430000000  0.4235000000000 1.0
C      1  0.2950450000000  0.4649990000000  0.4260850000000 1.0
C      1  0.2604160000000  0.4594230000000  0.5887070000000 1.0
C      1  0.2739890000000  0.6068290000000  0.5144600000000 1.0
C      1  0.2725040000000  0.5626540000000  0.4332130000000 1.0
C      1  0.2541980000000  0.5514840000000  0.5956180000000 1.0
C      1  0.2934850000000  0.4154580000000  0.5041810000000 1.0
C      1  0.3417210000000  0.5655030000000  0.3533730000000 1.0
C      1  0.3717370000000  0.3474100000000  0.5312890000000 1.0
C      1  0.3363880000000  0.6095040000000  0.6314190000000 1.0
C      1  0.3650900000000  0.4544110000000  0.3443830000000 1.0
C      1  0.3577080000000  0.6713780000000  0.5381730000000 1.0
C      1  0.3433320000000  0.4036050000000  0.6263830000000 1.0
C      1  0.5767580000000  0.3833570000000  0.7176670000000 1.0
C      1  0.5887150000000  0.7353150000000  0.4816230000000 1.0
C      1  0.5888710000000  0.3707960000000  0.2694780000000 1.0
C      1  0.5706700000000  0.6317630000000  0.7199970000000 1.0
C      1  0.5991170000000  0.2537340000000  0.4818150000000 1.0
C      1  0.5714530000000  0.6180120000000  0.2807820000000 1.0
C      1  0.5379960000000  0.3114130000000  0.6559460000000 1.0
C      1  0.5556000000000  0.7527990000000  0.5773010000000 1.0
C      1  0.5431710000000  0.4470220000000  0.2183920000000 1.0
C      1  0.5298480000000  0.7036390000000  0.6585140000000 1.0
C      1  0.5630590000000  0.2569100000000  0.5774390000000 1.0
C      1  0.5220580000000  0.5415960000000  0.2345930000000 1.0
C      1  0.4711490000000  0.6124120000000  0.7330970000000 1.0
C      1  0.4753570000000  0.6486310000000  0.2954980000000 1.0
C      1  0.4989300000000  0.2561960000000  0.4623820000000 1.0
C      1  0.4786250000000  0.4054320000000  0.7269190000000 1.0
C      1  0.4893160000000  0.3503590000000  0.2892250000000 1.0
C      1  0.4892940000000  0.7517230000000  0.4637470000000 1.0
C      1  0.5785510000000  0.4347560000000  0.4254090000000 1.0
C      1  0.5787380000000  0.4220720000000  0.5904650000000 1.0
C      1  0.5671850000000  0.5667320000000  0.5184580000000 1.0
C      1  0.5703280000000  0.5268100000000  0.4290370000000 1.0
C      1  0.5698290000000  0.5200140000000  0.5961080000000 1.0
C      1  0.5815320000000  0.3827460000000  0.5098080000000 1.0
C      1  0.6232190000000  0.6445530000000  0.4621020000000 1.0
C      1  0.6433000000000  0.3894330000000  0.3493530000000 1.0
C      1  0.6469500000000  0.4498540000000  0.6785730000000 1.0
C      1  0.6591350000000  0.3307040000000  0.4451080000000 1.0
C      1  0.6236830000000  0.5954420000000  0.3598390000000 1.0
C      1  0.6262570000000  0.5616670000000  0.6793940000000 1.0
C      1  0.4078650000000  0.6456530000000  0.3677180000000 1.0
C      1  0.4280670000000  0.3234250000000  0.4432350000000 1.0
C      1  0.4011930000000  0.5531200000000  0.6943170000000 1.0
C      1  0.4247830000000  0.3676960000000  0.3632420000000 1.0
C      1  0.4129830000000  0.6904360000000  0.4476060000000 1.0
C      1  0.4046300000000  0.4614990000000  0.6915410000000 1.0
END
