TITL C-3036482-790-199 0.0274714274234361 3375 -340.784584684629 0 0 60 (C1) n - 1
REM
REM in /home/bkarasulu/work/CARBON/AIRSS/Generating-Clusters/REBO/Higher-Symm/Only-C60
REM
REM
REM
REM
REM
REM ./C.cell (a2850807a9bf4ad07a5b6933b78d9264)
REM AIRSS Version 0.9.1 bugfix July 2018 build 013d7b7c2542+ Fri, 06 Jul 2018 19:26:36 +0100
REM compiler GCC version 9.2.1 20190827 (Red Hat 9.2.1-1)
REM options -cpp -mtune=generic -march=x86-64 -g -O0 -fpre-include=/usr/include/finclude/math-vector-fortran.h
REM seed 40467330 -999490863 457982525 -321907475 982614034 893161816 399884195 -1803527975 -1684406859 193073384 -1973137437 -1551512327 -1764361448 -1346662283 1024108269 -1531960613 148683214 -1784513493 1436311012 951350774 -1384023145 -566070095 954044505 636569943 2096194550 1544752106 -1767200758 1433242588 1025608421 -326324490 -1351051498 -1473267013 476356199
REM
CELL 1.54180   15.00000   15.00000   15.00000   90.00000   90.00000   90.00000
LATT -1
SFAC C  
C      1  0.3871810000000  0.4787190000000  0.2544420000000 1.0
C      1  0.5249240000000  0.3490510000000  0.5830710000000 1.0
C      1  0.3925500000000  0.4643070000000  0.4826880000000 1.0
C      1  0.3767170000000  0.5160270000000  0.7306710000000 1.0
C      1  0.3265150000000  0.5384650000000  0.5374460000000 1.0
C      1  0.2695580000000  0.4528090000000  0.3454530000000 1.0
C      1  0.3776400000000  0.4259240000000  0.5834570000000 1.0
C      1  0.4862670000000  0.5003820000000  0.7578020000000 1.0
C      1  0.2719790000000  0.3624590000000  0.3593570000000 1.0
C      1  0.6531670000000  0.6588000000000  0.5404060000000 1.0
C      1  0.3558700000000  0.6173090000000  0.6880700000000 1.0
C      1  0.6259410000000  0.3514180000000  0.5281930000000 1.0
C      1  0.5914600000000  0.3754680000000  0.4216020000000 1.0
C      1  0.3210070000000  0.6521400000000  0.6067070000000 1.0
C      1  0.4274990000000  0.4168900000000  0.7063690000000 1.0
C      1  0.3847480000000  0.6762860000000  0.5400500000000 1.0
C      1  0.6884170000000  0.6055920000000  0.3902500000000 1.0
C      1  0.3935920000000  0.2593300000000  0.4817180000000 1.0
C      1  0.4529460000000  0.6185500000000  0.6933170000000 1.0
C      1  0.7257780000000  0.4048240000000  0.5276460000000 1.0
C      1  0.3315820000000  0.3148010000000  0.4046170000000 1.0
C      1  0.6188830000000  0.5043770000000  0.4406770000000 1.0
C      1  0.4735570000000  0.3169580000000  0.3305060000000 1.0
C      1  0.5447510000000  0.4013190000000  0.3214440000000 1.0
C      1  0.4354850000000  0.4767210000000  0.3785690000000 1.0
C      1  0.7244710000000  0.4629940000000  0.6226450000000 1.0
C      1  0.7047210000000  0.3658650000000  0.4241110000000 1.0
C      1  0.4123470000000  0.3925540000000  0.3126020000000 1.0
C      1  0.5410500000000  0.5041380000000  0.3675350000000 1.0
C      1  0.3917930000000  0.2576230000000  0.5841570000000 1.0
C      1  0.5826750000000  0.7382360000000  0.4075030000000 1.0
C      1  0.4541820000000  0.6435580000000  0.3407340000000 1.0
C      1  0.5456110000000  0.6716320000000  0.3509290000000 1.0
C      1  0.6017930000000  0.7312060000000  0.5005740000000 1.0
C      1  0.5108030000000  0.4045530000000  0.4908750000000 1.0
C      1  0.5974240000000  0.5008860000000  0.7327280000000 1.0
C      1  0.6442830000000  0.5897770000000  0.7030610000000 1.0
C      1  0.5514170000000  0.5540900000000  0.4902750000000 1.0
C      1  0.5133260000000  0.4915260000000  0.5647790000000 1.0
C      1  0.4964040000000  0.4741080000000  0.2489620000000 1.0
C      1  0.3305800000000  0.4991820000000  0.6332180000000 1.0
C      1  0.3248160000000  0.5780870000000  0.4454690000000 1.0
C      1  0.4198030000000  0.3651180000000  0.4495320000000 1.0
C      1  0.5223900000000  0.4580770000000  0.6594370000000 1.0
C      1  0.7032880000000  0.5967930000000  0.4860940000000 1.0
C      1  0.6023370000000  0.5957150000000  0.3461510000000 1.0
C      1  0.3331230000000  0.5152460000000  0.3753760000000 1.0
C      1  0.4700480000000  0.6854600000000  0.5781580000000 1.0
C      1  0.5173700000000  0.5961030000000  0.6113070000000 1.0
C      1  0.6146930000000  0.3570840000000  0.6412970000000 1.0
C      1  0.6155640000000  0.6227840000000  0.6226920000000 1.0
C      1  0.4330540000000  0.3452130000000  0.6238060000000 1.0
C      1  0.4551140000000  0.2516890000000  0.3892310000000 1.0
C      1  0.7281850000000  0.5183180000000  0.5302570000000 1.0
C      1  0.4974090000000  0.6212580000000  0.4645020000000 1.0
C      1  0.6971360000000  0.4646320000000  0.4123650000000 1.0
C      1  0.4430900000000  0.5689080000000  0.2829890000000 1.0
C      1  0.5286710000000  0.7551450000000  0.5559790000000 1.0
C      1  0.3942740000000  0.6534730000000  0.4343070000000 1.0
C      1  0.6587390000000  0.4300400000000  0.6818350000000 1.0
END
