TITL C-3036481-494-550 0.000661276915033784 3375 -347.276803766171 0 0 60 (C1) n - 1
REM
REM in /home/bkarasulu/work/CARBON/AIRSS/Generating-Clusters/REBO/Higher-Symm/Only-C60
REM
REM
REM
REM
REM
REM ./C.cell (a2850807a9bf4ad07a5b6933b78d9264)
REM AIRSS Version 0.9.1 bugfix July 2018 build 013d7b7c2542+ Fri, 06 Jul 2018 19:26:36 +0100
REM compiler GCC version 9.2.1 20190827 (Red Hat 9.2.1-1)
REM options -cpp -mtune=generic -march=x86-64 -g -O0 -fpre-include=/usr/include/finclude/math-vector-fortran.h
REM seed -1579819646 396586852 -1004307845 -2119304785 -1635745226 -396517111 1150674901 -683422939 -2015748685 1199191970 406966019 -59566551 -1888525488 -830897623 340489340 1141129488 -1642550705 322322001 -1372064550 2127791196 281389895 -2025692331 1491013247 -500077596 -1964207091 -2060930708 1969160455 -277270218 457213811 875104477 1247938525 834218660 356469914
REM
CELL 1.54180   15.00000   15.00000   15.00000   90.00000   90.00000   90.00000
LATT -1
SFAC C  
C      1  0.5308650000000  0.5491340000000  0.5630330000000 1.0
C      1  0.7269770000000  0.4913540000000  0.6556980000000 1.0
C      1  0.6285740000000  0.7048300000000  0.4013630000000 1.0
C      1  0.6545430000000  0.3219460000000  0.5178180000000 1.0
C      1  0.5434500000000  0.3933170000000  0.2344010000000 1.0
C      1  0.6470700000000  0.5589950000000  0.4116410000000 1.0
C      1  0.4259110000000  0.3213310000000  0.6382280000000 1.0
C      1  0.3637210000000  0.6365160000000  0.6247890000000 1.0
C      1  0.6518510000000  0.6981930000000  0.4899610000000 1.0
C      1  0.6526700000000  0.4529560000000  0.4438250000000 1.0
C      1  0.2743390000000  0.5085220000000  0.5203440000000 1.0
C      1  0.3243900000000  0.2653890000000  0.4457030000000 1.0
C      1  0.5226640000000  0.2312420000000  0.5227420000000 1.0
C      1  0.3404250000000  0.4604710000000  0.3753790000000 1.0
C      1  0.4943270000000  0.7100370000000  0.5793230000000 1.0
C      1  0.4950650000000  0.6189070000000  0.6167440000000 1.0
C      1  0.2922420000000  0.5998040000000  0.4511520000000 1.0
C      1  0.2865390000000  0.6096320000000  0.5619300000000 1.0
C      1  0.5616010000000  0.5629440000000  0.2586770000000 1.0
C      1  0.4431380000000  0.4123530000000  0.3829690000000 1.0
C      1  0.3404080000000  0.6992380000000  0.4829560000000 1.0
C      1  0.2892940000000  0.4290720000000  0.4501420000000 1.0
C      1  0.7604920000000  0.5043290000000  0.5666370000000 1.0
C      1  0.6290010000000  0.5318880000000  0.5760100000000 1.0
C      1  0.4354810000000  0.4808410000000  0.4640240000000 1.0
C      1  0.5884350000000  0.3770750000000  0.3172840000000 1.0
C      1  0.5015290000000  0.3819250000000  0.6997120000000 1.0
C      1  0.6580100000000  0.6409520000000  0.5877750000000 1.0
C      1  0.4510350000000  0.5770570000000  0.4400740000000 1.0
C      1  0.4167280000000  0.6185170000000  0.3393140000000 1.0
C      1  0.6478630000000  0.5370020000000  0.3012740000000 1.0
C      1  0.3361470000000  0.1904600000000  0.4023510000000 1.0
C      1  0.7256140000000  0.5218750000000  0.4854860000000 1.0
C      1  0.5022630000000  0.4807060000000  0.2313900000000 1.0
C      1  0.4389880000000  0.4299440000000  0.6279400000000 1.0
C      1  0.5420580000000  0.5755350000000  0.3721640000000 1.0
C      1  0.3667830000000  0.4901070000000  0.6715130000000 1.0
C      1  0.3351350000000  0.3603540000000  0.5825340000000 1.0
C      1  0.5876390000000  0.7277770000000  0.5678690000000 1.0
C      1  0.4934720000000  0.5854340000000  0.7138640000000 1.0
C      1  0.3123320000000  0.3448610000000  0.4915780000000 1.0
C      1  0.4699590000000  0.4998000000000  0.3275070000000 1.0
C      1  0.4844030000000  0.4606650000000  0.5474770000000 1.0
C      1  0.6508530000000  0.4442730000000  0.3412710000000 1.0
C      1  0.5650930000000  0.4173230000000  0.4955740000000 1.0
C      1  0.5319340000000  0.3571550000000  0.4042550000000 1.0
C      1  0.6500680000000  0.4203970000000  0.5718120000000 1.0
C      1  0.4835920000000  0.6763840000000  0.3077250000000 1.0
C      1  0.3090650000000  0.4487690000000  0.6047870000000 1.0
C      1  0.4159230000000  0.7479820000000  0.5347610000000 1.0
C      1  0.5785810000000  0.4341550000000  0.7242560000000 1.0
C      1  0.6581380000000  0.5726900000000  0.6785400000000 1.0
C      1  0.6618120000000  0.4129560000000  0.6777970000000 1.0
C      1  0.5725970000000  0.5333490000000  0.7309920000000 1.0
C      1  0.5657060000000  0.7018670000000  0.3367330000000 1.0
C      1  0.4660850000000  0.2401420000000  0.5922610000000 1.0
C      1  0.3398480000000  0.5575050000000  0.3700460000000 1.0
C      1  0.3939280000000  0.5770150000000  0.6923790000000 1.0
C      1  0.4034780000000  0.6174480000000  0.5202980000000 1.0
C      1  0.5798700000000  0.2873020000000  0.4739210000000 1.0
END
