TITL C-3036479-9801-531 2.03488711227911e-05 3375 -358.898459349251 0 0 60 (Td) n - 1
REM
REM in /home/bkarasulu/work/CARBON/AIRSS/Generating-Clusters/REBO/Higher-Symm/Only-C60
REM
REM
REM
REM
REM
REM ./C.cell (a2850807a9bf4ad07a5b6933b78d9264)
REM AIRSS Version 0.9.1 bugfix July 2018 build 013d7b7c2542+ Fri, 06 Jul 2018 19:26:36 +0100
REM compiler GCC version 9.2.1 20190827 (Red Hat 9.2.1-1)
REM options -cpp -mtune=generic -march=x86-64 -g -O0 -fpre-include=/usr/include/finclude/math-vector-fortran.h
REM seed -1349689358 498485402 1245010994 1050346820 -1589314690 766129566 46297637 1525687314 111495622 -1233782258 463383219 -500084666 173496715 -1594536376 1602965744 881726090 2011969070 -1812079175 -121607562 1542919183 351995264 -1591497470 -1591410949 701014012 1040704197 -519671933 2136997936 1372919857 675808616 1245119399 1651606592 427481706 -920325706
REM
CELL 1.54180   15.00000   15.00000   15.00000   90.00000   90.00000   90.00000
LATT -1
SFAC C  
C      1  0.6973560000000  0.6243540000000  0.4529790000000 1.0
C      1  0.4529800000000  0.6973560000000  0.6243540000000 1.0
C      1  0.6243530000000  0.4529800000000  0.6973560000000 1.0
C      1  0.6973560000000  0.3756460000000  0.5470210000000 1.0
C      1  0.3026440000000  0.3756470000000  0.4529800000000 1.0
C      1  0.3026440000000  0.6243530000000  0.5470210000000 1.0
C      1  0.4529800000000  0.3026440000000  0.3756460000000 1.0
C      1  0.5470200000000  0.3026450000000  0.6243540000000 1.0
C      1  0.5470200000000  0.6973550000000  0.3756460000000 1.0
C      1  0.6243530000000  0.5470200000000  0.3026430000000 1.0
C      1  0.3756470000000  0.5470200000000  0.6973560000000 1.0
C      1  0.3756470000000  0.4529800000000  0.3026450000000 1.0
C      1  0.6973550000000  0.4529790000000  0.6243540000000 1.0
C      1  0.4529800000000  0.6243530000000  0.6973560000000 1.0
C      1  0.6243540000000  0.6973560000000  0.4529790000000 1.0
C      1  0.6973550000000  0.5470210000000  0.3756460000000 1.0
C      1  0.3026440000000  0.4529800000000  0.3756460000000 1.0
C      1  0.3026450000000  0.5470200000000  0.6243540000000 1.0
C      1  0.4529800000000  0.3756470000000  0.3026450000000 1.0
C      1  0.5470200000000  0.6243540000000  0.3026430000000 1.0
C      1  0.5470200000000  0.3756470000000  0.6973560000000 1.0
C      1  0.6243540000000  0.3026440000000  0.5470210000000 1.0
C      1  0.3756460000000  0.6973560000000  0.5470210000000 1.0
C      1  0.3756470000000  0.3026450000000  0.4529800000000 1.0
C      1  0.4606020000000  0.2551450000000  0.5978940000000 1.0
C      1  0.5978930000000  0.4606020000000  0.2551430000000 1.0
C      1  0.2551440000000  0.5978930000000  0.4606020000000 1.0
C      1  0.4606020000000  0.7448550000000  0.4021070000000 1.0
C      1  0.5393980000000  0.7448560000000  0.5978930000000 1.0
C      1  0.5393980000000  0.2551440000000  0.4021070000000 1.0
C      1  0.5978930000000  0.5393980000000  0.7448560000000 1.0
C      1  0.4021070000000  0.5393980000000  0.2551440000000 1.0
C      1  0.4021060000000  0.4606020000000  0.7448570000000 1.0
C      1  0.2551440000000  0.4021060000000  0.5393980000000 1.0
C      1  0.7448550000000  0.4021070000000  0.4606020000000 1.0
C      1  0.7448550000000  0.5978930000000  0.5393970000000 1.0
C      1  0.4606020000000  0.5978940000000  0.2551430000000 1.0
C      1  0.5978930000000  0.2551440000000  0.4606020000000 1.0
C      1  0.2551440000000  0.4606020000000  0.5978930000000 1.0
C      1  0.4606020000000  0.4021060000000  0.7448570000000 1.0
C      1  0.5393980000000  0.5978930000000  0.7448560000000 1.0
C      1  0.5393980000000  0.4021070000000  0.2551440000000 1.0
C      1  0.5978930000000  0.7448560000000  0.5393970000000 1.0
C      1  0.4021060000000  0.2551440000000  0.5393980000000 1.0
C      1  0.4021070000000  0.7448550000000  0.4606020000000 1.0
C      1  0.2551440000000  0.5393980000000  0.4021070000000 1.0
C      1  0.7448550000000  0.4606020000000  0.4021070000000 1.0
C      1  0.7448550000000  0.5393980000000  0.5978930000000 1.0
C      1  0.5335810000000  0.5335810000000  0.3820000000000 1.0
C      1  0.5335800000000  0.4664190000000  0.6180000000000 1.0
C      1  0.4664200000000  0.5335800000000  0.6180000000000 1.0
C      1  0.5335810000000  0.3819990000000  0.5335790000000 1.0
C      1  0.4664200000000  0.6180010000000  0.5335810000000 1.0
C      1  0.3820000000000  0.5335800000000  0.5335800000000 1.0
C      1  0.3820000000000  0.4664200000000  0.4664190000000 1.0
C      1  0.6180010000000  0.4664200000000  0.5335800000000 1.0
C      1  0.6180010000000  0.5335800000000  0.4664200000000 1.0
C      1  0.5335810000000  0.6180010000000  0.4664210000000 1.0
C      1  0.4664200000000  0.3820000000000  0.4664190000000 1.0
C      1  0.4664210000000  0.4664210000000  0.3819990000000 1.0
END
