TITL C-3036483-1610-946 -1.55965108381254e-05 3375 -337.730704750169 0 0 60 (D2) n - 1
REM
REM in /home/bkarasulu/work/CARBON/AIRSS/Generating-Clusters/REBO/Higher-Symm/Only-C60
REM
REM
REM
REM
REM
REM ./C.cell (a2850807a9bf4ad07a5b6933b78d9264)
REM AIRSS Version 0.9.1 bugfix July 2018 build 013d7b7c2542+ Fri, 06 Jul 2018 19:26:36 +0100
REM compiler GCC version 9.2.1 20190827 (Red Hat 9.2.1-1)
REM options -cpp -mtune=generic -march=x86-64 -g -O0 -fpre-include=/usr/include/finclude/math-vector-fortran.h
REM seed -1343115723 152010994 -1814591449 956547301 670477750 -1882454812 818399990 1880810727 -151655664 -848851168 958181728 -1538188853 -720435000 -1341838017 -1450434689 -1351746872 494317769 78512242 -2074143817 -2117371997 738227159 328617200 -2013147625 815136585 -279154607 148536995 -2122997130 367911901 -1962008344 96767765 -1322173815 -1624110362 1431322628
REM
CELL 1.54180   15.00000   15.00000   15.00000   90.00000   90.00000   90.00000
LATT -1
SFAC C  
C      1  0.4649770000000  0.6391670000000  0.6900130000000 1.0
C      1  0.5350230000000  0.6391670000000  0.3099870000000 1.0
C      1  0.4649770000000  0.3608330000000  0.3099870000000 1.0
C      1  0.5350230000000  0.3608330000000  0.6900130000000 1.0
C      1  0.5280920000000  0.4194870000000  0.5954410000000 1.0
C      1  0.4719080000000  0.4194870000000  0.4045590000000 1.0
C      1  0.5280920000000  0.5805130000000  0.4045590000000 1.0
C      1  0.4719080000000  0.5805130000000  0.5954410000000 1.0
C      1  0.7500360000000  0.5488100000000  0.5250450000000 1.0
C      1  0.2499640000000  0.5488100000000  0.4749550000000 1.0
C      1  0.7500360000000  0.4511900000000  0.4749550000000 1.0
C      1  0.2499640000000  0.4511900000000  0.5250450000000 1.0
C      1  0.5742470000000  0.5045330000000  0.5566180000000 1.0
C      1  0.4257530000000  0.5045330000000  0.4433820000000 1.0
C      1  0.5742470000000  0.4954670000000  0.4433820000000 1.0
C      1  0.4257530000000  0.4954670000000  0.5566180000000 1.0
C      1  0.5334440000000  0.6659050000000  0.4682380000000 1.0
C      1  0.4665560000000  0.6659050000000  0.5317620000000 1.0
C      1  0.5334440000000  0.3340950000000  0.5317620000000 1.0
C      1  0.4665560000000  0.3340950000000  0.4682380000000 1.0
C      1  0.3222440000000  0.4129450000000  0.6493700000000 1.0
C      1  0.6777560000000  0.4129450000000  0.3506300000000 1.0
C      1  0.3222440000000  0.5870550000000  0.3506300000000 1.0
C      1  0.6777560000000  0.5870550000000  0.6493700000000 1.0
C      1  0.4658730000000  0.5880230000000  0.2487130000000 1.0
C      1  0.5341270000000  0.5880230000000  0.7512870000000 1.0
C      1  0.4658730000000  0.4119770000000  0.7512870000000 1.0
C      1  0.5341270000000  0.4119770000000  0.2487130000000 1.0
C      1  0.7162060000000  0.5024410000000  0.6754500000000 1.0
C      1  0.2837940000000  0.5024410000000  0.3245500000000 1.0
C      1  0.7162060000000  0.4975590000000  0.3245500000000 1.0
C      1  0.2837940000000  0.4975590000000  0.6754500000000 1.0
C      1  0.3697920000000  0.3582180000000  0.4632070000000 1.0
C      1  0.6302080000000  0.3582180000000  0.5367930000000 1.0
C      1  0.3697920000000  0.6417820000000  0.5367930000000 1.0
C      1  0.6302080000000  0.6417820000000  0.4632070000000 1.0
C      1  0.6722860000000  0.3930570000000  0.6156860000000 1.0
C      1  0.3277140000000  0.3930570000000  0.3843140000000 1.0
C      1  0.6722860000000  0.6069430000000  0.3843140000000 1.0
C      1  0.3277140000000  0.6069430000000  0.6156860000000 1.0
C      1  0.3607930000000  0.4412540000000  0.2948060000000 1.0
C      1  0.6392070000000  0.4412540000000  0.7051940000000 1.0
C      1  0.3607930000000  0.5587460000000  0.7051940000000 1.0
C      1  0.6392070000000  0.5587460000000  0.2948060000000 1.0
C      1  0.4278360000000  0.4245750000000  0.6458930000000 1.0
C      1  0.5721640000000  0.4245750000000  0.3541070000000 1.0
C      1  0.4278360000000  0.5754250000000  0.3541070000000 1.0
C      1  0.5721640000000  0.5754250000000  0.6458930000000 1.0
C      1  0.2367720000000  0.5450690000000  0.5876910000000 1.0
C      1  0.7632280000000  0.5450690000000  0.4123090000000 1.0
C      1  0.2367720000000  0.4549310000000  0.4123090000000 1.0
C      1  0.7632280000000  0.4549310000000  0.5876910000000 1.0
C      1  0.5558670000000  0.5212810000000  0.2521070000000 1.0
C      1  0.4441330000000  0.5212810000000  0.7478930000000 1.0
C      1  0.5558670000000  0.4787190000000  0.7478930000000 1.0
C      1  0.4441330000000  0.4787190000000  0.2521070000000 1.0
C      1  0.6546110000000  0.5856280000000  0.5424670000000 1.0
C      1  0.3453890000000  0.5856280000000  0.4575330000000 1.0
C      1  0.6546110000000  0.4143720000000  0.4575330000000 1.0
C      1  0.3453890000000  0.4143720000000  0.5424670000000 1.0
END
