TITL C-3036483-1610-23 -4.08120339120208e-07 3375 -328.533518384957 0 0 60 (C1) n - 1
REM
REM in /home/bkarasulu/work/CARBON/AIRSS/Generating-Clusters/REBO/Higher-Symm/Only-C60
REM
REM
REM
REM
REM
REM ./C.cell (a2850807a9bf4ad07a5b6933b78d9264)
REM AIRSS Version 0.9.1 bugfix July 2018 build 013d7b7c2542+ Fri, 06 Jul 2018 19:26:36 +0100
REM compiler GCC version 9.2.1 20190827 (Red Hat 9.2.1-1)
REM options -cpp -mtune=generic -march=x86-64 -g -O0 -fpre-include=/usr/include/finclude/math-vector-fortran.h
REM seed 1522473727 351691532 -1926398900 1694216633 -2143186535 1778230937 -982635924 -2070139457 -1610334438 1138775598 558611088 -350956409 17363291 -1100740553 -7393429 -1833101020 2076842533 85261304 260344547 -1692154677 1272315900 346334952 -177812806 1054806020 298912459 1900174303 -1492845433 1530703507 -2021440742 271231002 -86180733 1006580505 -463822099
REM
CELL 1.54180   15.00000   15.00000   15.00000   90.00000   90.00000   90.00000
LATT -1
SFAC C  
C      1  0.3581780000000  0.5798740000000  0.3410600000000 1.0
C      1  0.3539960000000  0.4166340000000  0.6580020000000 1.0
C      1  0.3529080000000  0.5803100000000  0.6568470000000 1.0
C      1  0.3528430000000  0.4162410000000  0.3420410000000 1.0
C      1  0.6543420000000  0.5896710000000  0.4146510000000 1.0
C      1  0.6496380000000  0.3995040000000  0.5877580000000 1.0
C      1  0.6570490000000  0.5909730000000  0.5853550000000 1.0
C      1  0.6552620000000  0.3969000000000  0.4174470000000 1.0
C      1  0.7226210000000  0.5471820000000  0.3692950000000 1.0
C      1  0.7200530000000  0.4426150000000  0.6267950000000 1.0
C      1  0.7308350000000  0.5451290000000  0.6179550000000 1.0
C      1  0.7269130000000  0.4433310000000  0.3839370000000 1.0
C      1  0.5029510000000  0.5746070000000  0.6773900000000 1.0
C      1  0.5024220000000  0.4172970000000  0.3234070000000 1.0
C      1  0.4994920000000  0.5758720000000  0.3244240000000 1.0
C      1  0.4941980000000  0.4162420000000  0.6765120000000 1.0
C      1  0.8250230000000  0.5702220000000  0.3581810000000 1.0
C      1  0.8253910000000  0.4524610000000  0.6067840000000 1.0
C      1  0.8322160000000  0.5621160000000  0.5855440000000 1.0
C      1  0.8274980000000  0.4800350000000  0.4141090000000 1.0
C      1  0.2699130000000  0.4516370000000  0.6910150000000 1.0
C      1  0.2736600000000  0.5471050000000  0.3069720000000 1.0
C      1  0.2706000000000  0.4535420000000  0.3080710000000 1.0
C      1  0.2692880000000  0.5452430000000  0.6897190000000 1.0
C      1  0.4905310000000  0.6700260000000  0.5861220000000 1.0
C      1  0.4865910000000  0.3223200000000  0.4146170000000 1.0
C      1  0.4916750000000  0.6727010000000  0.4147090000000 1.0
C      1  0.4853730000000  0.3196130000000  0.5860970000000 1.0
C      1  0.4491020000000  0.3158020000000  0.6882520000000 1.0
C      1  0.4576520000000  0.6776640000000  0.3118580000000 1.0
C      1  0.4605370000000  0.3153940000000  0.3095350000000 1.0
C      1  0.4641740000000  0.6778170000000  0.6910590000000 1.0
C      1  0.5483350000000  0.4174450000000  0.4228700000000 1.0
C      1  0.5499940000000  0.5733910000000  0.5784330000000 1.0
C      1  0.5441370000000  0.4166270000000  0.5787820000000 1.0
C      1  0.5480680000000  0.5743300000000  0.4228740000000 1.0
C      1  0.5667600000000  0.4552160000000  0.2510730000000 1.0
C      1  0.5650080000000  0.5344760000000  0.7504910000000 1.0
C      1  0.5597700000000  0.4491370000000  0.7507490000000 1.0
C      1  0.5648020000000  0.5406930000000  0.2510420000000 1.0
C      1  0.3622560000000  0.6341190000000  0.5821750000000 1.0
C      1  0.3595060000000  0.3622710000000  0.4168910000000 1.0
C      1  0.3646960000000  0.6333910000000  0.4163440000000 1.0
C      1  0.3597950000000  0.3630240000000  0.5827260000000 1.0
C      1  0.3236250000000  0.5980710000000  0.4987580000000 1.0
C      1  0.3209590000000  0.3995660000000  0.4997850000000 1.0
C      1  0.6315730000000  0.3507910000000  0.5027160000000 1.0
C      1  0.6360480000000  0.6381780000000  0.4999810000000 1.0
C      1  0.5545090000000  0.6828610000000  0.5008150000000 1.0
C      1  0.5490510000000  0.3079690000000  0.5008080000000 1.0
C      1  0.4268650000000  0.4944950000000  0.3318920000000 1.0
C      1  0.4247390000000  0.5004190000000  0.6680450000000 1.0
C      1  0.4166340000000  0.3083410000000  0.4998220000000 1.0
C      1  0.4221490000000  0.6861930000000  0.5000260000000 1.0
C      1  0.7846550000000  0.4917360000000  0.5083360000000 1.0
C      1  0.6909510000000  0.4929280000000  0.5021810000000 1.0
C      1  0.5176000000000  0.4958790000000  0.5005160000000 1.0
C      1  0.2948100000000  0.4991840000000  0.4990010000000 1.0
C      1  0.4101970000000  0.4976390000000  0.4997460000000 1.0
C      1  0.2003690000000  0.5004490000000  0.4981510000000 1.0
END
