TITL C-3036486-2224-891 0.00633137477214736 3375 -360.442315815991 0 0 60 (C2h) n - 1
REM
REM in /home/bkarasulu/work/CARBON/AIRSS/Generating-Clusters/REBO/Higher-Symm/Only-C60
REM
REM
REM
REM
REM
REM ./C.cell (a2850807a9bf4ad07a5b6933b78d9264)
REM AIRSS Version 0.9.1 bugfix July 2018 build 013d7b7c2542+ Fri, 06 Jul 2018 19:26:36 +0100
REM compiler GCC version 9.2.1 20190827 (Red Hat 9.2.1-1)
REM options -cpp -mtune=generic -march=x86-64 -g -O0 -fpre-include=/usr/include/finclude/math-vector-fortran.h
REM seed -307070664 1722702479 -753901140 -726713947 1899600791 1289711760 -1355047236 1951606412 1954835678 -273948361 303635062 2094706789 1050788133 -1134913476 -410706224 -1210871122 -1725131001 -1033032839 1140376479 -999954394 1051508927 1545179509 432133549 -1978140426 -1324620946 -271127447 808072591 -1258101760 1059817314 1581374184 1974454657 699564874 -1970922448
REM
CELL 1.54180   15.00000   15.00000   15.00000   90.00000   90.00000   90.00000
LATT -1
SFAC C  
C      1  0.4126940000000  0.5474790000000  0.2786500000000 1.0
C      1  0.5021850000000  0.4053230000000  0.2647800000000 1.0
C      1  0.5839200000000  0.5504610000000  0.2622540000000 1.0
C      1  0.5873200000000  0.5474800000000  0.7213460000000 1.0
C      1  0.4978060000000  0.4053300000000  0.7352100000000 1.0
C      1  0.4160950000000  0.5504740000000  0.7377700000000 1.0
C      1  0.5873000000000  0.4525290000000  0.7213820000000 1.0
C      1  0.4978880000000  0.5947540000000  0.7352720000000 1.0
C      1  0.4160180000000  0.4496790000000  0.7376420000000 1.0
C      1  0.4127150000000  0.4525010000000  0.2786250000000 1.0
C      1  0.5021280000000  0.5947420000000  0.2647340000000 1.0
C      1  0.5839740000000  0.4496560000000  0.2623390000000 1.0
C      1  0.2915450000000  0.6263110000000  0.4314500000000 1.0
C      1  0.4947460000000  0.2922520000000  0.4339980000000 1.0
C      1  0.6932550000000  0.6016400000000  0.4392470000000 1.0
C      1  0.7084590000000  0.6263130000000  0.5685520000000 1.0
C      1  0.5052550000000  0.2922610000000  0.5660110000000 1.0
C      1  0.3067520000000  0.6016270000000  0.5607770000000 1.0
C      1  0.7084590000000  0.3736770000000  0.5685800000000 1.0
C      1  0.5052690000000  0.7077480000000  0.5660000000000 1.0
C      1  0.3067320000000  0.3983280000000  0.5607240000000 1.0
C      1  0.2915390000000  0.3736740000000  0.4314040000000 1.0
C      1  0.4947360000000  0.7077490000000  0.4340060000000 1.0
C      1  0.6932640000000  0.3983320000000  0.4392820000000 1.0
C      1  0.6710220000000  0.3081710000000  0.4985180000000 1.0
C      1  0.5860330000000  0.7310630000000  0.4948700000000 1.0
C      1  0.2518260000000  0.4540650000000  0.4819100000000 1.0
C      1  0.3289780000000  0.3081660000000  0.5014820000000 1.0
C      1  0.4139700000000  0.7310630000000  0.5051290000000 1.0
C      1  0.7481740000000  0.4540650000000  0.5180880000000 1.0
C      1  0.3289820000000  0.6918140000000  0.5015160000000 1.0
C      1  0.4139690000000  0.2689340000000  0.5051140000000 1.0
C      1  0.7481730000000  0.5459210000000  0.5180680000000 1.0
C      1  0.6710180000000  0.6918130000000  0.4984840000000 1.0
C      1  0.5860300000000  0.2689360000000  0.4948840000000 1.0
C      1  0.2518280000000  0.5459200000000  0.4819280000000 1.0
C      1  0.4570410000000  0.3447210000000  0.3426010000000 1.0
C      1  0.6596070000000  0.5570260000000  0.3406540000000 1.0
C      1  0.3574710000000  0.6032630000000  0.3605830000000 1.0
C      1  0.5428770000000  0.3446840000000  0.6573490000000 1.0
C      1  0.3403980000000  0.5570030000000  0.6593270000000 1.0
C      1  0.6425440000000  0.6032470000000  0.6394110000000 1.0
C      1  0.5428970000000  0.6553170000000  0.6573320000000 1.0
C      1  0.3403010000000  0.4428000000000  0.6593340000000 1.0
C      1  0.6425150000000  0.3967510000000  0.6394380000000 1.0
C      1  0.4570700000000  0.6553330000000  0.3426260000000 1.0
C      1  0.6596820000000  0.4428320000000  0.3406700000000 1.0
C      1  0.3575270000000  0.3967240000000  0.3605500000000 1.0
C      1  0.4329330000000  0.5432690000000  0.4100100000000 1.0
C      1  0.5130640000000  0.4006550000000  0.4338170000000 1.0
C      1  0.5960480000000  0.5520950000000  0.4332910000000 1.0
C      1  0.5670540000000  0.5433050000000  0.5899950000000 1.0
C      1  0.4869720000000  0.4006320000000  0.5662300000000 1.0
C      1  0.4039480000000  0.5521000000000  0.5667130000000 1.0
C      1  0.5670390000000  0.4567110000000  0.5899390000000 1.0
C      1  0.4869900000000  0.5993750000000  0.5662210000000 1.0
C      1  0.4039150000000  0.4479140000000  0.5667550000000 1.0
C      1  0.4329460000000  0.4567260000000  0.4100550000000 1.0
C      1  0.5130370000000  0.5993560000000  0.4338140000000 1.0
C      1  0.5960690000000  0.4479070000000  0.4332590000000 1.0
END
