TITL C-3036481-494-786 -0.014140772091846 3375 -355.417875547387 0 0 60 (Ci) n - 1
REM
REM in /home/bkarasulu/work/CARBON/AIRSS/Generating-Clusters/REBO/Higher-Symm/Only-C60
REM
REM
REM
REM
REM
REM ./C.cell (a2850807a9bf4ad07a5b6933b78d9264)
REM AIRSS Version 0.9.1 bugfix July 2018 build 013d7b7c2542+ Fri, 06 Jul 2018 19:26:36 +0100
REM compiler GCC version 9.2.1 20190827 (Red Hat 9.2.1-1)
REM options -cpp -mtune=generic -march=x86-64 -g -O0 -fpre-include=/usr/include/finclude/math-vector-fortran.h
REM seed 615615596 -1289775247 778233473 -1807880727 -1848936179 -876986228 1499072430 1467139421 100105604 1714726888 680111608 -1610333104 -674300443 2135615536 347762964 394538154 338993333 -1656092028 15467600 -1019617853 -1570051193 135853026 1172962979 1801542052 1201162475 -1842244483 -830055667 -366618607 -1293817860 870874121 -186784999 -396739807 -1236436221
REM
CELL 1.54180   15.00000   15.00000   15.00000   90.00000   90.00000   90.00000
LATT -1
SFAC C  
C      1  0.2435520000000  0.3594590000000  0.5572200000000 1.0
C      1  0.7564150000000  0.6405840000000  0.4428080000000 1.0
C      1  0.3145220000000  0.4503870000000  0.6969780000000 1.0
C      1  0.6854840000000  0.5496190000000  0.3030250000000 1.0
C      1  0.4185820000000  0.6093530000000  0.6435960000000 1.0
C      1  0.5814110000000  0.3906470000000  0.3564060000000 1.0
C      1  0.6219390000000  0.3947490000000  0.2764610000000 1.0
C      1  0.3780430000000  0.6052520000000  0.7235430000000 1.0
C      1  0.4488500000000  0.3410210000000  0.6715450000000 1.0
C      1  0.5511640000000  0.6589580000000  0.3284910000000 1.0
C      1  0.4387990000000  0.7050750000000  0.4340940000000 1.0
C      1  0.5612320000000  0.2949590000000  0.5659100000000 1.0
C      1  0.6021860000000  0.6178430000000  0.6242120000000 1.0
C      1  0.3978250000000  0.3821540000000  0.3757850000000 1.0
C      1  0.5297430000000  0.4592090000000  0.5067180000000 1.0
C      1  0.4702640000000  0.5408070000000  0.4932930000000 1.0
C      1  0.6705390000000  0.3865510000000  0.4763430000000 1.0
C      1  0.3294630000000  0.6134630000000  0.5236490000000 1.0
C      1  0.4194490000000  0.5688350000000  0.3233860000000 1.0
C      1  0.5805200000000  0.4311700000000  0.6765980000000 1.0
C      1  0.4575880000000  0.5035660000000  0.2585550000000 1.0
C      1  0.5424080000000  0.4964280000000  0.7414490000000 1.0
C      1  0.4730810000000  0.2790940000000  0.5960820000000 1.0
C      1  0.5269520000000  0.7208940000000  0.4039190000000 1.0
C      1  0.3001460000000  0.6146690000000  0.4315190000000 1.0
C      1  0.6998660000000  0.3853270000000  0.5684830000000 1.0
C      1  0.4111150000000  0.2871050000000  0.4360170000000 1.0
C      1  0.5889110000000  0.7128690000000  0.5639620000000 1.0
C      1  0.5003600000000  0.3368940000000  0.3971310000000 1.0
C      1  0.4996430000000  0.6631330000000  0.6028610000000 1.0
C      1  0.4000650000000  0.3937660000000  0.7318580000000 1.0
C      1  0.5999300000000  0.6062220000000  0.2681680000000 1.0
C      1  0.5995790000000  0.7197370000000  0.4704670000000 1.0
C      1  0.4004370000000  0.2802580000000  0.5295070000000 1.0
C      1  0.4940840000000  0.5894800000000  0.3983930000000 1.0
C      1  0.5058680000000  0.4105260000000  0.6015910000000 1.0
C      1  0.6333140000000  0.4810310000000  0.2407640000000 1.0
C      1  0.3666910000000  0.5189710000000  0.7592410000000 1.0
C      1  0.3333320000000  0.5350930000000  0.3778410000000 1.0
C      1  0.6666560000000  0.4649130000000  0.6221720000000 1.0
C      1  0.6237610000000  0.3394570000000  0.6253750000000 1.0
C      1  0.3762400000000  0.6605490000000  0.3746370000000 1.0
C      1  0.7168970000000  0.5541150000000  0.5008180000000 1.0
C      1  0.2831020000000  0.4458960000000  0.4991720000000 1.0
C      1  0.4365230000000  0.6470880000000  0.5182190000000 1.0
C      1  0.5634490000000  0.3529030000000  0.4817860000000 1.0
C      1  0.7295740000000  0.5478600000000  0.3874940000000 1.0
C      1  0.2704790000000  0.4521320000000  0.6124550000000 1.0
C      1  0.3997630000000  0.4321690000000  0.5879420000000 1.0
C      1  0.6002450000000  0.5678690000000  0.4120760000000 1.0
C      1  0.4299010000000  0.4181080000000  0.2787680000000 1.0
C      1  0.5700950000000  0.5818820000000  0.7212390000000 1.0
C      1  0.3324590000000  0.4509580000000  0.4184900000000 1.0
C      1  0.6675440000000  0.5490410000000  0.5814790000000 1.0
C      1  0.6091230000000  0.4657370000000  0.4286060000000 1.0
C      1  0.3908710000000  0.5342460000000  0.5713890000000 1.0
C      1  0.4575690000000  0.4703170000000  0.7785400000000 1.0
C      1  0.5424370000000  0.5296890000000  0.2214530000000 1.0
C      1  0.6515560000000  0.6464350000000  0.4311400000000 1.0
C      1  0.3484050000000  0.3534810000000  0.5688810000000 1.0
END
