TITL C-3036483-1610-570 -4.14023017523551e-06 3375 -329.74987018346 0 0 60 (C1) n - 1
REM
REM in /home/bkarasulu/work/CARBON/AIRSS/Generating-Clusters/REBO/Higher-Symm/Only-C60
REM
REM
REM
REM
REM
REM ./C.cell (a2850807a9bf4ad07a5b6933b78d9264)
REM AIRSS Version 0.9.1 bugfix July 2018 build 013d7b7c2542+ Fri, 06 Jul 2018 19:26:36 +0100
REM compiler GCC version 9.2.1 20190827 (Red Hat 9.2.1-1)
REM options -cpp -mtune=generic -march=x86-64 -g -O0 -fpre-include=/usr/include/finclude/math-vector-fortran.h
REM seed -1996908615 -658918478 341425173 -582902951 -1502739104 867249882 -1317847348 -1249853333 -917293030 498488713 1376304497 -1391469928 -1775345918 -1076357041 -1827089634 1157063197 1100992900 -2013821087 -715201850 1552778768 667200951 1904058664 -1407827694 -495150376 -2022769412 -340106664 1946663279 1438652124 -385150677 934076511 2012757136 509040518 -1736019186
REM
CELL 1.54180   15.00000   15.00000   15.00000   90.00000   90.00000   90.00000
LATT -1
SFAC C  
C      1  0.5231050000000  0.6418060000000  0.6926380000000 1.0
C      1  0.4834470000000  0.3638800000000  0.6804610000000 1.0
C      1  0.5105700000000  0.6378020000000  0.3212000000000 1.0
C      1  0.4818860000000  0.3566380000000  0.3085540000000 1.0
C      1  0.4126140000000  0.3035150000000  0.3491520000000 1.0
C      1  0.5765150000000  0.6947710000000  0.3630300000000 1.0
C      1  0.4156770000000  0.3079290000000  0.6403520000000 1.0
C      1  0.5929820000000  0.6946360000000  0.6530820000000 1.0
C      1  0.7124160000000  0.3633360000000  0.5710350000000 1.0
C      1  0.3055770000000  0.6357720000000  0.5481210000000 1.0
C      1  0.6973670000000  0.3831240000000  0.4656280000000 1.0
C      1  0.2862360000000  0.6167900000000  0.4419450000000 1.0
C      1  0.7449520000000  0.4856210000000  0.4488250000000 1.0
C      1  0.2422310000000  0.5115660000000  0.4389320000000 1.0
C      1  0.7491070000000  0.4698320000000  0.5524940000000 1.0
C      1  0.2632130000000  0.5297950000000  0.5400890000000 1.0
C      1  0.6838240000000  0.5490980000000  0.3790850000000 1.0
C      1  0.2959120000000  0.4467560000000  0.3636030000000 1.0
C      1  0.7083060000000  0.5443280000000  0.6278550000000 1.0
C      1  0.3123370000000  0.4576760000000  0.6128680000000 1.0
C      1  0.6142340000000  0.6829500000000  0.5542770000000 1.0
C      1  0.3949660000000  0.3173600000000  0.5395870000000 1.0
C      1  0.6033730000000  0.6837600000000  0.4622740000000 1.0
C      1  0.3882200000000  0.3164980000000  0.4472470000000 1.0
C      1  0.5912350000000  0.3551830000000  0.4463250000000 1.0
C      1  0.3889300000000  0.6491190000000  0.4458650000000 1.0
C      1  0.6082930000000  0.3436930000000  0.5560680000000 1.0
C      1  0.4138240000000  0.6544410000000  0.5558560000000 1.0
C      1  0.3995850000000  0.4206470000000  0.5722430000000 1.0
C      1  0.6161250000000  0.5786860000000  0.5922870000000 1.0
C      1  0.3854880000000  0.4197970000000  0.4076830000000 1.0
C      1  0.6006870000000  0.5813210000000  0.4274470000000 1.0
C      1  0.5663980000000  0.3415900000000  0.6530270000000 1.0
C      1  0.4410680000000  0.6628020000000  0.6594540000000 1.0
C      1  0.5641930000000  0.3385420000000  0.3438380000000 1.0
C      1  0.4261240000000  0.6579610000000  0.3474080000000 1.0
C      1  0.5279760000000  0.5408120000000  0.2877430000000 1.0
C      1  0.4574920000000  0.4524720000000  0.2754640000000 1.0
C      1  0.5459300000000  0.5447990000000  0.7243030000000 1.0
C      1  0.4685020000000  0.4624040000000  0.7124250000000 1.0
C      1  0.5122650000000  0.5983420000000  0.5671390000000 1.0
C      1  0.5060640000000  0.3938550000000  0.5428880000000 1.0
C      1  0.4944030000000  0.6070900000000  0.4576610000000 1.0
C      1  0.4888670000000  0.4025080000000  0.4333480000000 1.0
C      1  0.4458870000000  0.5125940000000  0.5369710000000 1.0
C      1  0.5708570000000  0.4787620000000  0.5672020000000 1.0
C      1  0.4293180000000  0.5214130000000  0.4328490000000 1.0
C      1  0.5545420000000  0.4885560000000  0.4636220000000 1.0
C      1  0.6057830000000  0.4682110000000  0.6655640000000 1.0
C      1  0.4182730000000  0.5333570000000  0.6402390000000 1.0
C      1  0.5791770000000  0.4694070000000  0.3591050000000 1.0
C      1  0.3958830000000  0.5290970000000  0.3328220000000 1.0
C      1  0.2903260000000  0.5596800000000  0.3470050000000 1.0
C      1  0.6834390000000  0.4349290000000  0.3669740000000 1.0
C      1  0.3140180000000  0.5696430000000  0.6350420000000 1.0
C      1  0.7100510000000  0.4336460000000  0.6545080000000 1.0
C      1  0.6397810000000  0.5242830000000  0.2786720000000 1.0
C      1  0.3449690000000  0.4560000000000  0.2618060000000 1.0
C      1  0.6593720000000  0.5443760000000  0.7304580000000 1.0
C      1  0.3558080000000  0.4747410000000  0.7163600000000 1.0
END
