TITL C-3036486-2224-874 4.28697135964909e-06 3375 -328.330613675817 0 0 60 (C2) n - 1
REM
REM in /home/bkarasulu/work/CARBON/AIRSS/Generating-Clusters/REBO/Higher-Symm/Only-C60
REM
REM
REM
REM
REM
REM ./C.cell (a2850807a9bf4ad07a5b6933b78d9264)
REM AIRSS Version 0.9.1 bugfix July 2018 build 013d7b7c2542+ Fri, 06 Jul 2018 19:26:36 +0100
REM compiler GCC version 9.2.1 20190827 (Red Hat 9.2.1-1)
REM options -cpp -mtune=generic -march=x86-64 -g -O0 -fpre-include=/usr/include/finclude/math-vector-fortran.h
REM seed 2091004901 -1057884629 2124848691 2121732251 889320194 1607563067 -1826120925 958006859 334249630 977051621 -1425376135 1019646993 1366547262 -697181659 -88780204 -1790319991 -102230289 553163240 -1314994555 -109757627 -313532310 784990323 -1966297651 -2037471366 -459840223 -1198185526 1764979611 1165444905 507561407 2036213910 -1048806831 -492142958 -1795978547
REM
CELL 1.54180   15.00000   15.00000   15.00000   90.00000   90.00000   90.00000
LATT -1
SFAC C  
C      1  0.7565320000000  0.5666270000000  0.5560660000000 1.0
C      1  0.4425850000000  0.5655780000000  0.7560170000000 1.0
C      1  0.2434680000000  0.5666240000000  0.4439350000000 1.0
C      1  0.5574160000000  0.5655780000000  0.2439830000000 1.0
C      1  0.7510280000000  0.5682270000000  0.4432910000000 1.0
C      1  0.4442590000000  0.5646640000000  0.2500660000000 1.0
C      1  0.2489720000000  0.5682260000000  0.5567090000000 1.0
C      1  0.5557410000000  0.5646630000000  0.7499340000000 1.0
C      1  0.6977890000000  0.4932190000000  0.3754400000000 1.0
C      1  0.6275780000000  0.4899220000000  0.7018200000000 1.0
C      1  0.3022100000000  0.4932190000000  0.6245620000000 1.0
C      1  0.3724230000000  0.4899250000000  0.2981820000000 1.0
C      1  0.7108410000000  0.4870790000000  0.6239570000000 1.0
C      1  0.6256720000000  0.4856630000000  0.2878640000000 1.0
C      1  0.2891560000000  0.4870760000000  0.3760430000000 1.0
C      1  0.3743270000000  0.4856620000000  0.7121380000000 1.0
C      1  0.6279640000000  0.3414800000000  0.5551310000000 1.0
C      1  0.4453960000000  0.3415720000000  0.6287940000000 1.0
C      1  0.3720340000000  0.3414800000000  0.4448700000000 1.0
C      1  0.5546040000000  0.3415720000000  0.3712080000000 1.0
C      1  0.6246790000000  0.3425100000000  0.4417180000000 1.0
C      1  0.4411400000000  0.3416980000000  0.3734610000000 1.0
C      1  0.3753200000000  0.3425100000000  0.5582840000000 1.0
C      1  0.5588590000000  0.3416970000000  0.6265410000000 1.0
C      1  0.6418330000000  0.5643600000000  0.4399490000000 1.0
C      1  0.5709980000000  0.5633480000000  0.6423030000000 1.0
C      1  0.3581660000000  0.5643570000000  0.5600530000000 1.0
C      1  0.4290040000000  0.5633510000000  0.3576960000000 1.0
C      1  0.6501670000000  0.5657460000000  0.5776970000000 1.0
C      1  0.5951950000000  0.5730750000000  0.3467010000000 1.0
C      1  0.3498320000000  0.5657450000000  0.4222970000000 1.0
C      1  0.4048050000000  0.5730730000000  0.6532990000000 1.0
C      1  0.3800050000000  0.6956670000000  0.5525870000000 1.0
C      1  0.4507300000000  0.6916220000000  0.3865110000000 1.0
C      1  0.6199980000000  0.6956700000000  0.4474100000000 1.0
C      1  0.5492730000000  0.6916190000000  0.6134870000000 1.0
C      1  0.3851450000000  0.6917820000000  0.4469540000000 1.0
C      1  0.4428290000000  0.6967210000000  0.6168370000000 1.0
C      1  0.6148560000000  0.6917850000000  0.5530430000000 1.0
C      1  0.5571730000000  0.6967240000000  0.3831600000000 1.0
C      1  0.5869050000000  0.3981880000000  0.2893730000000 1.0
C      1  0.7101290000000  0.3986990000000  0.5858260000000 1.0
C      1  0.4130940000000  0.3981870000000  0.7106290000000 1.0
C      1  0.2898700000000  0.3986970000000  0.4141730000000 1.0
C      1  0.5925340000000  0.3999320000000  0.7061870000000 1.0
C      1  0.7037200000000  0.4028850000000  0.4101330000000 1.0
C      1  0.4074670000000  0.3999340000000  0.2938160000000 1.0
C      1  0.2962780000000  0.4028840000000  0.5898690000000 1.0
C      1  0.5654990000000  0.5755690000000  0.5103540000000 1.0
C      1  0.4870510000000  0.5746680000000  0.5878780000000 1.0
C      1  0.4344980000000  0.5755650000000  0.4896450000000 1.0
C      1  0.5129490000000  0.5746720000000  0.4121220000000 1.0
C      1  0.5030360000000  0.6528480000000  0.2933900000000 1.0
C      1  0.7113490000000  0.6574520000000  0.5034130000000 1.0
C      1  0.4969650000000  0.6528460000000  0.7066080000000 1.0
C      1  0.2886530000000  0.6574490000000  0.4965850000000 1.0
C      1  0.5026430000000  0.2457260000000  0.6487710000000 1.0
C      1  0.3524250000000  0.2461240000000  0.5030430000000 1.0
C      1  0.4973550000000  0.2457260000000  0.3512300000000 1.0
C      1  0.6475740000000  0.2461240000000  0.4969590000000 1.0
END
