TITL C-3036485-3770-833 -6.43676024660208e-06 3375 -350.425111756984 0 0 60 (D2) n - 1
REM
REM in /home/bkarasulu/work/CARBON/AIRSS/Generating-Clusters/REBO/Higher-Symm/Only-C60
REM
REM
REM
REM
REM
REM ./C.cell (a2850807a9bf4ad07a5b6933b78d9264)
REM AIRSS Version 0.9.1 bugfix July 2018 build 013d7b7c2542+ Fri, 06 Jul 2018 19:26:36 +0100
REM compiler GCC version 9.2.1 20190827 (Red Hat 9.2.1-1)
REM options -cpp -mtune=generic -march=x86-64 -g -O0 -fpre-include=/usr/include/finclude/math-vector-fortran.h
REM seed 2059562129 -793982701 -438078760 -1266119610 1470577237 2042846540 -2089057279 -1225113778 1555256164 1495386673 -1686743678 -1720940949 49605534 489930894 1708592981 -75814258 -1607374340 1833570391 1726715455 1894683144 -339677260 -1723864347 -1120388337 -1512226006 2115540598 803508195 1898433660 1667286451 -1952604672 811204527 1670461861 99383589 196007540
REM
CELL 1.54180   15.00000   15.00000   15.00000   90.00000   90.00000   90.00000
LATT -1
SFAC C  
C      1  0.6164200000000  0.3100670000000  0.5977200000000 1.0
C      1  0.6135290000000  0.6023000000000  0.6955370000000 1.0
C      1  0.6164200000000  0.6899330000000  0.4022800000000 1.0
C      1  0.6135290000000  0.3977000000000  0.3044630000000 1.0
C      1  0.3761780000000  0.3044640000000  0.3976970000000 1.0
C      1  0.3732870000000  0.5977230000000  0.3100680000000 1.0
C      1  0.3761780000000  0.6955360000000  0.6023030000000 1.0
C      1  0.3732870000000  0.4022770000000  0.6899320000000 1.0
C      1  0.6166650000000  0.4265040000000  0.4780110000000 1.0
C      1  0.6149870000000  0.4809370000000  0.5634060000000 1.0
C      1  0.6166650000000  0.5734960000000  0.5219890000000 1.0
C      1  0.6149870000000  0.5190630000000  0.4365940000000 1.0
C      1  0.3747210000000  0.4365930000000  0.5190620000000 1.0
C      1  0.3730420000000  0.4780120000000  0.4265040000000 1.0
C      1  0.3747210000000  0.5634070000000  0.4809380000000 1.0
C      1  0.3730420000000  0.5219880000000  0.5734960000000 1.0
C      1  0.4669800000000  0.6135440000000  0.4532010000000 1.0
C      1  0.4682610000000  0.4494820000000  0.3815280000000 1.0
C      1  0.4669800000000  0.3864560000000  0.5467990000000 1.0
C      1  0.4682610000000  0.5505180000000  0.6184720000000 1.0
C      1  0.5214470000000  0.6184710000000  0.5505190000000 1.0
C      1  0.5227280000000  0.4531990000000  0.6135430000000 1.0
C      1  0.5214470000000  0.3815290000000  0.4494810000000 1.0
C      1  0.5227280000000  0.5468010000000  0.3864570000000 1.0
C      1  0.5999200000000  0.3396440000000  0.3807510000000 1.0
C      1  0.6025460000000  0.3869450000000  0.6550030000000 1.0
C      1  0.5999200000000  0.6603560000000  0.6192490000000 1.0
C      1  0.6025460000000  0.6130550000000  0.3449970000000 1.0
C      1  0.3871610000000  0.3449960000000  0.6130530000000 1.0
C      1  0.3897870000000  0.3807530000000  0.3396420000000 1.0
C      1  0.3871610000000  0.6550040000000  0.3869470000000 1.0
C      1  0.3897870000000  0.6192470000000  0.6603580000000 1.0
C      1  0.5390920000000  0.5762630000000  0.7479810000000 1.0
C      1  0.5421680000000  0.7442260000000  0.4251260000000 1.0
C      1  0.5390920000000  0.4237370000000  0.2520190000000 1.0
C      1  0.5421680000000  0.2557740000000  0.5748740000000 1.0
C      1  0.4475400000000  0.5748780000000  0.2557750000000 1.0
C      1  0.4506160000000  0.7479800000000  0.5762670000000 1.0
C      1  0.4475400000000  0.4251220000000  0.7442250000000 1.0
C      1  0.4506160000000  0.2520200000000  0.4237330000000 1.0
C      1  0.3188520000000  0.4363280000000  0.3065820000000 1.0
C      1  0.3184750000000  0.3085980000000  0.5576100000000 1.0
C      1  0.3188520000000  0.5636720000000  0.6934180000000 1.0
C      1  0.3184750000000  0.6914020000000  0.4423900000000 1.0
C      1  0.6712320000000  0.4423870000000  0.6914010000000 1.0
C      1  0.6708560000000  0.3065830000000  0.4363260000000 1.0
C      1  0.6712320000000  0.5576130000000  0.3085990000000 1.0
C      1  0.6708560000000  0.6934170000000  0.5636740000000 1.0
C      1  0.3090910000000  0.3060060000000  0.4659620000000 1.0
C      1  0.3077230000000  0.4720880000000  0.6902140000000 1.0
C      1  0.3090910000000  0.6939940000000  0.5340380000000 1.0
C      1  0.3077230000000  0.5279120000000  0.3097860000000 1.0
C      1  0.6819850000000  0.3097860000000  0.5279090000000 1.0
C      1  0.6806170000000  0.4659640000000  0.3060060000000 1.0
C      1  0.6819850000000  0.6902140000000  0.4720910000000 1.0
C      1  0.6806170000000  0.5340360000000  0.6939940000000 1.0
C      1  0.4963690000000  0.2356700000000  0.4997600000000 1.0
C      1  0.4933390000000  0.5002360000000  0.7643300000000 1.0
C      1  0.4963690000000  0.7643300000000  0.5002400000000 1.0
C      1  0.4933390000000  0.4997640000000  0.2356700000000 1.0
END
