TITL C-3036484-3770-690 -0.307187114187331 3375 -313.090902889423 0 0 60 (D4) n - 1
REM
REM in /home/bkarasulu/work/CARBON/AIRSS/Generating-Clusters/REBO/Higher-Symm/Only-C60
REM
REM
REM
REM
REM
REM ./C.cell (a2850807a9bf4ad07a5b6933b78d9264)
REM AIRSS Version 0.9.1 bugfix July 2018 build 013d7b7c2542+ Fri, 06 Jul 2018 19:26:36 +0100
REM compiler GCC version 9.2.1 20190827 (Red Hat 9.2.1-1)
REM options -cpp -mtune=generic -march=x86-64 -g -O0 -fpre-include=/usr/include/finclude/math-vector-fortran.h
REM seed -2099195521 1582016510 1339275295 920245351 -641854223 836052472 1312473188 971509745 376311075 1522851834 1224721497 1430349270 -1635770444 -920558514 2004005096 1705714492 292588828 1815537214 1687973835 615925038 1717584621 1210721658 -1373395225 -895071547 1220083989 -1806489666 -537538480 1545410256 -2063645052 1096055799 2035377381 1692048531 -1572011762
REM
CELL 1.54180   15.00000   15.00000   15.00000   90.00000   90.00000   90.00000
LATT -1
SFAC C  
C      1  0.4724080000000  0.4324070000000  0.3931920000000 1.0
C      1  0.4324060000000  0.5275920000000  0.3931910000000 1.0
C      1  0.5275920000000  0.5675940000000  0.3931920000000 1.0
C      1  0.5675930000000  0.4724080000000  0.3931930000000 1.0
C      1  0.4722150000000  0.5675880000000  0.6029660000000 1.0
C      1  0.4324120000000  0.4722140000000  0.6029680000000 1.0
C      1  0.5277860000000  0.4324110000000  0.6029680000000 1.0
C      1  0.5675880000000  0.5277850000000  0.6029670000000 1.0
C      1  0.3495390000000  0.4222090000000  0.6512260000000 1.0
C      1  0.4222080000000  0.6504610000000  0.6512250000000 1.0
C      1  0.6504600000000  0.5777920000000  0.6512250000000 1.0
C      1  0.5777910000000  0.3495400000000  0.6512250000000 1.0
C      1  0.3496240000000  0.5777720000000  0.3450870000000 1.0
C      1  0.4222290000000  0.3496250000000  0.3450830000000 1.0
C      1  0.6503750000000  0.4222290000000  0.3450820000000 1.0
C      1  0.5777720000000  0.6503760000000  0.3450850000000 1.0
C      1  0.6048190000000  0.6665270000000  0.6239060000000 1.0
C      1  0.6665260000000  0.3951800000000  0.6239060000000 1.0
C      1  0.3951790000000  0.3334740000000  0.6239070000000 1.0
C      1  0.3334730000000  0.6048210000000  0.6239060000000 1.0
C      1  0.6050260000000  0.3334480000000  0.3722840000000 1.0
C      1  0.6665520000000  0.6050260000000  0.3722830000000 1.0
C      1  0.3949720000000  0.6665520000000  0.3722830000000 1.0
C      1  0.3334480000000  0.3949720000000  0.3722830000000 1.0
C      1  0.6013810000000  0.2862730000000  0.5434030000000 1.0
C      1  0.2862740000000  0.3986190000000  0.5434030000000 1.0
C      1  0.3986200000000  0.7137250000000  0.5434040000000 1.0
C      1  0.7137260000000  0.6013810000000  0.5434040000000 1.0
C      1  0.6017080000000  0.7138950000000  0.4530220000000 1.0
C      1  0.2861060000000  0.6017080000000  0.4530220000000 1.0
C      1  0.3982900000000  0.2861060000000  0.4530230000000 1.0
C      1  0.7138950000000  0.3982900000000  0.4530230000000 1.0
C      1  0.4450910000000  0.6283500000000  0.4895370000000 1.0
C      1  0.6283510000000  0.5549080000000  0.4895380000000 1.0
C      1  0.5549080000000  0.3716470000000  0.4895400000000 1.0
C      1  0.3716480000000  0.4450920000000  0.4895380000000 1.0
C      1  0.4452250000000  0.3712450000000  0.5066600000000 1.0
C      1  0.6287550000000  0.4452250000000  0.5066590000000 1.0
C      1  0.5547770000000  0.6287530000000  0.5066600000000 1.0
C      1  0.3712470000000  0.5547770000000  0.5066620000000 1.0
C      1  0.4245920000000  0.4725860000000  0.7199820000000 1.0
C      1  0.4725860000000  0.5754080000000  0.7199830000000 1.0
C      1  0.5754070000000  0.5274150000000  0.7199820000000 1.0
C      1  0.5274150000000  0.4245920000000  0.7199820000000 1.0
C      1  0.4245150000000  0.5274350000000  0.2762330000000 1.0
C      1  0.4725660000000  0.4245150000000  0.2762340000000 1.0
C      1  0.5754840000000  0.4725640000000  0.2762340000000 1.0
C      1  0.5274370000000  0.5754840000000  0.2762330000000 1.0
C      1  0.6941200000000  0.4934070000000  0.5879810000000 1.0
C      1  0.4934090000000  0.3058820000000  0.5879780000000 1.0
C      1  0.3058810000000  0.5065910000000  0.5879790000000 1.0
C      1  0.5065930000000  0.6941210000000  0.5879820000000 1.0
C      1  0.6942090000000  0.5065080000000  0.4085160000000 1.0
C      1  0.4934940000000  0.6942110000000  0.4085150000000 1.0
C      1  0.3057890000000  0.4934950000000  0.4085140000000 1.0
C      1  0.5065070000000  0.3057910000000  0.4085150000000 1.0
C      1  0.3178480000000  0.6822510000000  0.4981920000000 1.0
C      1  0.6822510000000  0.6821520000000  0.4981920000000 1.0
C      1  0.6821510000000  0.3177490000000  0.4981920000000 1.0
C      1  0.3177490000000  0.3178490000000  0.4981920000000 1.0
END
