TITL C-3036482-790-201 0.162763952079812 3375 -325.927359690904 0 0 60 (C3v) n - 1
REM
REM in /home/bkarasulu/work/CARBON/AIRSS/Generating-Clusters/REBO/Higher-Symm/Only-C60
REM
REM
REM
REM
REM
REM ./C.cell (a2850807a9bf4ad07a5b6933b78d9264)
REM AIRSS Version 0.9.1 bugfix July 2018 build 013d7b7c2542+ Fri, 06 Jul 2018 19:26:36 +0100
REM compiler GCC version 9.2.1 20190827 (Red Hat 9.2.1-1)
REM options -cpp -mtune=generic -march=x86-64 -g -O0 -fpre-include=/usr/include/finclude/math-vector-fortran.h
REM seed 1262054871 456095653 -767261541 -1169005134 -1033386793 439683472 -1783871077 -2137076472 -108018148 687460113 527242405 -1906793880 2614660 -1444926146 -1954650958 1846269640 -1911756827 -109628516 -575614234 -304448261 1021480444 1579401385 85987390 122375269 2022943739 1247062809 -1779528958 1043491022 -1212995571 -659208737 -969683538 -873207812 2011471738
REM
CELL 1.54180   15.00000   15.00000   15.00000   90.00000   90.00000   90.00000
LATT -1
SFAC C  
C      1  0.3756980000000  0.2896270000000  0.4442010000000 1.0
C      1  0.3757020000000  0.5568870000000  0.7100720000000 1.0
C      1  0.3757040000000  0.6534860000000  0.3457100000000 1.0
C      1  0.3756980000000  0.7103730000000  0.4442010000000 1.0
C      1  0.3757020000000  0.4431130000000  0.7100720000000 1.0
C      1  0.3757040000000  0.3465140000000  0.3457100000000 1.0
C      1  0.5634960000000  0.2909120000000  0.5551890000000 1.0
C      1  0.5634960000000  0.6523400000000  0.6534810000000 1.0
C      1  0.5634960000000  0.5567480000000  0.2913290000000 1.0
C      1  0.5634960000000  0.7090880000000  0.5551890000000 1.0
C      1  0.5634960000000  0.3476600000000  0.6534810000000 1.0
C      1  0.5634960000000  0.4432520000000  0.2913290000000 1.0
C      1  0.4070510000000  0.4519110000000  0.4159490000000 1.0
C      1  0.4070690000000  0.4512590000000  0.5836640000000 1.0
C      1  0.4070860000000  0.5968100000000  0.5003800000000 1.0
C      1  0.4070510000000  0.5480890000000  0.4159490000000 1.0
C      1  0.4070690000000  0.5487410000000  0.5836640000000 1.0
C      1  0.4070860000000  0.4031900000000  0.5003800000000 1.0
C      1  0.4727850000000  0.4098480000000  0.6598680000000 1.0
C      1  0.4727940000000  0.6835240000000  0.4981420000000 1.0
C      1  0.4727800000000  0.4066250000000  0.3419910000000 1.0
C      1  0.4727850000000  0.5901520000000  0.6598680000000 1.0
C      1  0.4727940000000  0.3164760000000  0.4981420000000 1.0
C      1  0.4727800000000  0.5933750000000  0.3419910000000 1.0
C      1  0.7335690000000  0.4509930000000  0.4189080000000 1.0
C      1  0.7335670000000  0.4542760000000  0.5829860000000 1.0
C      1  0.7335680000000  0.5947310000000  0.4981040000000 1.0
C      1  0.7335690000000  0.5490070000000  0.4189080000000 1.0
C      1  0.7335670000000  0.5457240000000  0.5829860000000 1.0
C      1  0.7335680000000  0.4052690000000  0.4981040000000 1.0
C      1  0.5982770000000  0.6966100000000  0.4441810000000 1.0
C      1  0.5982760000000  0.3533530000000  0.3576410000000 1.0
C      1  0.5982760000000  0.4500360000000  0.6981790000000 1.0
C      1  0.5982770000000  0.3033900000000  0.4441810000000 1.0
C      1  0.5982760000000  0.6466470000000  0.3576410000000 1.0
C      1  0.5982760000000  0.5499640000000  0.6981790000000 1.0
C      1  0.5396430000000  0.4541620000000  0.4209460000000 1.0
C      1  0.5396320000000  0.4544540000000  0.5792280000000 1.0
C      1  0.5396260000000  0.5913900000000  0.4998300000000 1.0
C      1  0.5396430000000  0.5458380000000  0.4209460000000 1.0
C      1  0.5396320000000  0.5455460000000  0.5792280000000 1.0
C      1  0.5396260000000  0.4086100000000  0.4998300000000 1.0
C      1  0.3543130000000  0.7038240000000  0.5561720000000 1.0
C      1  0.3543250000000  0.4467210000000  0.2954130000000 1.0
C      1  0.3543210000000  0.3494570000000  0.6484360000000 1.0
C      1  0.3543130000000  0.2961760000000  0.5561720000000 1.0
C      1  0.3543250000000  0.5532790000000  0.2954130000000 1.0
C      1  0.3543210000000  0.6505430000000  0.6484360000000 1.0
C      1  0.2902000000000  0.4486440000000  0.4113330000000 1.0
C      1  0.2901960000000  0.4488910000000  0.5888090000000 1.0
C      1  0.2901910000000  0.6024660000000  0.4998570000000 1.0
C      1  0.2902000000000  0.5513560000000  0.4113330000000 1.0
C      1  0.2901960000000  0.5511090000000  0.5888090000000 1.0
C      1  0.2901910000000  0.3975340000000  0.4998570000000 1.0
C      1  0.6649540000000  0.5574120000000  0.3394110000000 1.0
C      1  0.6649550000000  0.3322200000000  0.5305740000000 1.0
C      1  0.6649540000000  0.6103680000000  0.6300150000000 1.0
C      1  0.6649540000000  0.4425880000000  0.3394110000000 1.0
C      1  0.6649550000000  0.6677800000000  0.5305740000000 1.0
C      1  0.6649540000000  0.3896320000000  0.6300150000000 1.0
END
