TITL C-3036483-1610-797 3.53838617674016e-06 3375 -352.844547627974 0 0 60 (C1) n - 1
REM
REM in /home/bkarasulu/work/CARBON/AIRSS/Generating-Clusters/REBO/Higher-Symm/Only-C60
REM
REM
REM
REM
REM
REM ./C.cell (a2850807a9bf4ad07a5b6933b78d9264)
REM AIRSS Version 0.9.1 bugfix July 2018 build 013d7b7c2542+ Fri, 06 Jul 2018 19:26:36 +0100
REM compiler GCC version 9.2.1 20190827 (Red Hat 9.2.1-1)
REM options -cpp -mtune=generic -march=x86-64 -g -O0 -fpre-include=/usr/include/finclude/math-vector-fortran.h
REM seed 1654439771 1238390884 1661351470 -1387366091 -300282594 -1817241766 -714134476 1379366334 -860752340 -2092656867 -348782593 -106020315 759930908 1346024387 -462705999 -2084363322 -1728957617 1271580337 -1990054124 1759353881 304388401 -1197121767 -1527503188 -1974493931 -1264134646 51057460 1881709588 43013420 -1434226601 -1224687322 -330684748 1425834314 -962876420
REM
CELL 1.54180   15.00000   15.00000   15.00000   90.00000   90.00000   90.00000
LATT -1
SFAC C  
C      1  0.7054800000000  0.4326780000000  0.3805240000000 1.0
C      1  0.5510520000000  0.4863240000000  0.3300570000000 1.0
C      1  0.4668020000000  0.4773010000000  0.6860710000000 1.0
C      1  0.3974220000000  0.6545230000000  0.5849540000000 1.0
C      1  0.6265670000000  0.6472450000000  0.6088700000000 1.0
C      1  0.5757790000000  0.5903460000000  0.7631750000000 1.0
C      1  0.3806050000000  0.5933900000000  0.3475950000000 1.0
C      1  0.3915050000000  0.3199640000000  0.6311490000000 1.0
C      1  0.4248340000000  0.3533360000000  0.3479510000000 1.0
C      1  0.5835720000000  0.7085040000000  0.4101940000000 1.0
C      1  0.6649090000000  0.3112520000000  0.5518990000000 1.0
C      1  0.7393620000000  0.5119420000000  0.4203800000000 1.0
C      1  0.2846340000000  0.4710400000000  0.3892490000000 1.0
C      1  0.3488050000000  0.6733910000000  0.4967430000000 1.0
C      1  0.5682090000000  0.4858170000000  0.7203640000000 1.0
C      1  0.5308780000000  0.6563750000000  0.3399230000000 1.0
C      1  0.3120980000000  0.3608330000000  0.6008860000000 1.0
C      1  0.2940880000000  0.5660900000000  0.3902920000000 1.0
C      1  0.3601990000000  0.5539600000000  0.5748460000000 1.0
C      1  0.5022970000000  0.6602660000000  0.5642370000000 1.0
C      1  0.3461690000000  0.2943590000000  0.4592240000000 1.0
C      1  0.4821860000000  0.3237400000000  0.6062720000000 1.0
C      1  0.7198900000000  0.5949470000000  0.3781020000000 1.0
C      1  0.5336120000000  0.6359610000000  0.6705210000000 1.0
C      1  0.2966220000000  0.4507860000000  0.6295600000000 1.0
C      1  0.5511030000000  0.5784530000000  0.5186090000000 1.0
C      1  0.4363920000000  0.6674710000000  0.3573160000000 1.0
C      1  0.3630000000000  0.4801360000000  0.4965570000000 1.0
C      1  0.6800910000000  0.4154190000000  0.5218320000000 1.0
C      1  0.6425690000000  0.5600040000000  0.6764630000000 1.0
C      1  0.6792070000000  0.6628490000000  0.4426120000000 1.0
C      1  0.5401820000000  0.3963750000000  0.6551230000000 1.0
C      1  0.7263670000000  0.5135610000000  0.5259390000000 1.0
C      1  0.3597250000000  0.4794800000000  0.6889430000000 1.0
C      1  0.2574640000000  0.4387850000000  0.4826460000000 1.0
C      1  0.4425500000000  0.4204500000000  0.5210240000000 1.0
C      1  0.4509670000000  0.2828270000000  0.4333470000000 1.0
C      1  0.5078940000000  0.7363280000000  0.4885810000000 1.0
C      1  0.4140620000000  0.5106670000000  0.4064440000000 1.0
C      1  0.5782470000000  0.5825560000000  0.3009890000000 1.0
C      1  0.5084360000000  0.2766680000000  0.5273270000000 1.0
C      1  0.2897130000000  0.3447140000000  0.5096320000000 1.0
C      1  0.3655890000000  0.4221790000000  0.3608560000000 1.0
C      1  0.5475990000000  0.3203730000000  0.3841500000000 1.0
C      1  0.2836800000000  0.6047070000000  0.4784110000000 1.0
C      1  0.6969270000000  0.4872430000000  0.6296220000000 1.0
C      1  0.5092390000000  0.3866000000000  0.2998920000000 1.0
C      1  0.6218470000000  0.4041520000000  0.3611100000000 1.0
C      1  0.5156760000000  0.5196470000000  0.4278230000000 1.0
C      1  0.5998420000000  0.4609030000000  0.4796710000000 1.0
C      1  0.4166930000000  0.7144100000000  0.4393980000000 1.0
C      1  0.4455660000000  0.5712270000000  0.6450960000000 1.0
C      1  0.6729250000000  0.5926790000000  0.2956210000000 1.0
C      1  0.5179260000000  0.4818820000000  0.5556760000000 1.0
C      1  0.6429930000000  0.3914340000000  0.6274040000000 1.0
C      1  0.6003850000000  0.2560290000000  0.5220880000000 1.0
C      1  0.6581510000000  0.5916470000000  0.5193180000000 1.0
C      1  0.6150250000000  0.7165800000000  0.5210470000000 1.0
C      1  0.5206410000000  0.3912990000000  0.4610540000000 1.0
C      1  0.2537500000000  0.5258980000000  0.5553380000000 1.0
END
