TITL C-3036480-97-155 8.51268363062383e-06 3375 -356.568315581698 0 0 60 (C1) n - 1
REM
REM in /home/bkarasulu/work/CARBON/AIRSS/Generating-Clusters/REBO/Higher-Symm/Only-C60
REM
REM
REM
REM
REM
REM ./C.cell (a2850807a9bf4ad07a5b6933b78d9264)
REM AIRSS Version 0.9.1 bugfix July 2018 build 013d7b7c2542+ Fri, 06 Jul 2018 19:26:36 +0100
REM compiler GCC version 9.2.1 20190827 (Red Hat 9.2.1-1)
REM options -cpp -mtune=generic -march=x86-64 -g -O0 -fpre-include=/usr/include/finclude/math-vector-fortran.h
REM seed -452490327 -960060425 -915929932 -1891520070 162235389 1868532929 -1385641070 986703220 -512752295 -831918655 -913223148 -2099820130 -1246406941 -1203143885 -1093819294 -561011161 -439109863 1353910562 -394077101 872578281 1170533690 1639888576 319410007 1389061705 -1069477468 -1546326796 -1459615994 1254772770 -1212867812 1194438822 1577236957 -378500356 1374569858
REM
CELL 1.54180   15.00000   15.00000   15.00000   90.00000   90.00000   90.00000
LATT -1
SFAC C  
C      1  0.4674870000000  0.7137680000000  0.4513310000000 1.0
C      1  0.4753800000000  0.4213580000000  0.7101560000000 1.0
C      1  0.4746390000000  0.3617760000000  0.3290670000000 1.0
C      1  0.6633820000000  0.5236250000000  0.7068800000000 1.0
C      1  0.6559960000000  0.3080590000000  0.4167580000000 1.0
C      1  0.6553620000000  0.6741180000000  0.3793390000000 1.0
C      1  0.6289130000000  0.5826200000000  0.3849840000000 1.0
C      1  0.6328780000000  0.5683360000000  0.6285110000000 1.0
C      1  0.6236670000000  0.3566060000000  0.4923280000000 1.0
C      1  0.4588120000000  0.2985070000000  0.4013920000000 1.0
C      1  0.4492630000000  0.6893510000000  0.3581000000000 1.0
C      1  0.4646780000000  0.5163630000000  0.7299210000000 1.0
C      1  0.6024650000000  0.7184780000000  0.3136800000000 1.0
C      1  0.6114400000000  0.5534790000000  0.7809880000000 1.0
C      1  0.6026730000000  0.2298600000000  0.4060210000000 1.0
C      1  0.5263490000000  0.5832570000000  0.7513670000000 1.0
C      1  0.5180500000000  0.2426170000000  0.4471990000000 1.0
C      1  0.5204930000000  0.6733940000000  0.2974590000000 1.0
C      1  0.3888350000000  0.3933300000000  0.2921220000000 1.0
C      1  0.3844760000000  0.7395210000000  0.5068600000000 1.0
C      1  0.3878520000000  0.3753900000000  0.7011280000000 1.0
C      1  0.4571870000000  0.7250990000000  0.6669330000000 1.0
C      1  0.4530500000000  0.2391270000000  0.6122630000000 1.0
C      1  0.4640540000000  0.5286930000000  0.2200470000000 1.0
C      1  0.5255110000000  0.2697430000000  0.5452580000000 1.0
C      1  0.5320620000000  0.5741150000000  0.2822680000000 1.0
C      1  0.5322480000000  0.6529100000000  0.6769870000000 1.0
C      1  0.6862380000000  0.3550960000000  0.3406230000000 1.0
C      1  0.6774870000000  0.7183830000000  0.4602040000000 1.0
C      1  0.6880450000000  0.4324090000000  0.7029630000000 1.0
C      1  0.3582680000000  0.3561670000000  0.5562640000000 1.0
C      1  0.3639690000000  0.5347570000000  0.3452490000000 1.0
C      1  0.3662440000000  0.6153920000000  0.5954110000000 1.0
C      1  0.5285030000000  0.5285130000000  0.3871590000000 1.0
C      1  0.5314440000000  0.5916030000000  0.5814000000000 1.0
C      1  0.5229280000000  0.3832680000000  0.5392300000000 1.0
C      1  0.3210930000000  0.3744760000000  0.3691670000000 1.0
C      1  0.3450960000000  0.6616360000000  0.4449920000000 1.0
C      1  0.3232340000000  0.4565770000000  0.6822280000000 1.0
C      1  0.3847010000000  0.5464900000000  0.6696430000000 1.0
C      1  0.3762910000000  0.3369330000000  0.4557730000000 1.0
C      1  0.3673510000000  0.6306390000000  0.3535700000000 1.0
C      1  0.6318010000000  0.3680790000000  0.6650900000000 1.0
C      1  0.6341640000000  0.4244730000000  0.3060970000000 1.0
C      1  0.6184600000000  0.7046450000000  0.5322050000000 1.0
C      1  0.4621270000000  0.5312170000000  0.4665770000000 1.0
C      1  0.4532850000000  0.5162210000000  0.5789670000000 1.0
C      1  0.4459610000000  0.4239740000000  0.4830170000000 1.0
C      1  0.3641850000000  0.4463780000000  0.5856800000000 1.0
C      1  0.3631060000000  0.4616130000000  0.4128560000000 1.0
C      1  0.3715920000000  0.5887180000000  0.5041610000000 1.0
C      1  0.5405840000000  0.4310850000000  0.3408100000000 1.0
C      1  0.5321510000000  0.6664540000000  0.5032580000000 1.0
C      1  0.5390750000000  0.3978490000000  0.6429130000000 1.0
C      1  0.6284770000000  0.5226050000000  0.2993660000000 1.0
C      1  0.6289510000000  0.6729700000000  0.6214560000000 1.0
C      1  0.6229380000000  0.3092190000000  0.5862450000000 1.0
C      1  0.3851110000000  0.3023510000000  0.6322470000000 1.0
C      1  0.3909390000000  0.4874380000000  0.2637690000000 1.0
C      1  0.3889990000000  0.7088700000000  0.6020650000000 1.0
END
