TITL C-3036479-9801-3 -4.49997718971022e-05 3375 -337.407814732748 0 0 60 (T23) n - 1
REM
REM in /home/bkarasulu/work/CARBON/AIRSS/Generating-Clusters/REBO/Higher-Symm/Only-C60
REM
REM
REM
REM
REM
REM ./C.cell (a2850807a9bf4ad07a5b6933b78d9264)
REM AIRSS Version 0.9.1 bugfix July 2018 build 013d7b7c2542+ Fri, 06 Jul 2018 19:26:36 +0100
REM compiler GCC version 9.2.1 20190827 (Red Hat 9.2.1-1)
REM options -cpp -mtune=generic -march=x86-64 -g -O0 -fpre-include=/usr/include/finclude/math-vector-fortran.h
REM seed -1198121386 1446639360 -754595348 1954352226 -2040118427 -1505457702 -808738677 496740275 -2122252587 -697217444 1649891661 -1466423553 -255845815 -810767084 -805209993 1238941851 223676181 -1679612424 1925354171 474879873 -1904409678 -1242346428 2021813638 252626649 -964165306 1051818477 897068208 -1789656307 -1415135993 2101587580 -955751990 1287202953 -1972041632
REM
CELL 1.54180   15.00000   15.00000   15.00000   90.00000   90.00000   90.00000
LATT -1
SFAC C  
C      1  0.5197610000000  0.4122610000000  0.2693850000000 1.0
C      1  0.2693850000000  0.5197610000000  0.4122610000000 1.0
C      1  0.4122610000000  0.2693850000000  0.5197610000000 1.0
C      1  0.4802390000000  0.5877390000000  0.2693850000000 1.0
C      1  0.4802390000000  0.4122610000000  0.7306150000000 1.0
C      1  0.5197610000000  0.5877390000000  0.7306150000000 1.0
C      1  0.7306150000000  0.4802390000000  0.4122610000000 1.0
C      1  0.7306150000000  0.5197610000000  0.5877390000000 1.0
C      1  0.2693850000000  0.4802400000000  0.5877390000000 1.0
C      1  0.5877390000000  0.7306150000000  0.5197610000000 1.0
C      1  0.5877390000000  0.2693850000000  0.4802390000000 1.0
C      1  0.4122610000000  0.7306150000000  0.4802390000000 1.0
C      1  0.5120420000000  0.2745770000000  0.5649350000000 1.0
C      1  0.5649350000000  0.5120420000000  0.2745770000000 1.0
C      1  0.2745770000000  0.5649350000000  0.5120420000000 1.0
C      1  0.4879580000000  0.7254230000000  0.5649350000000 1.0
C      1  0.4879570000000  0.2745770000000  0.4350650000000 1.0
C      1  0.5120430000000  0.7254230000000  0.4350650000000 1.0
C      1  0.4350650000000  0.4879580000000  0.2745770000000 1.0
C      1  0.4350650000000  0.5120430000000  0.7254230000000 1.0
C      1  0.5649350000000  0.4879580000000  0.7254230000000 1.0
C      1  0.7254230000000  0.4350650000000  0.5120420000000 1.0
C      1  0.7254230000000  0.5649350000000  0.4879580000000 1.0
C      1  0.2745770000000  0.4350650000000  0.4879580000000 1.0
C      1  0.4619180000000  0.3765440000000  0.4123790000000 1.0
C      1  0.4123790000000  0.4619190000000  0.3765440000000 1.0
C      1  0.3765440000000  0.4123790000000  0.4619190000000 1.0
C      1  0.5380820000000  0.6234560000000  0.4123790000000 1.0
C      1  0.5380810000000  0.3765440000000  0.5876210000000 1.0
C      1  0.4619190000000  0.6234560000000  0.5876210000000 1.0
C      1  0.5876210000000  0.5380810000000  0.3765440000000 1.0
C      1  0.5876210000000  0.4619190000000  0.6234560000000 1.0
C      1  0.4123790000000  0.5380820000000  0.6234560000000 1.0
C      1  0.6234560000000  0.5876210000000  0.4619190000000 1.0
C      1  0.6234560000000  0.4123790000000  0.5380810000000 1.0
C      1  0.3765440000000  0.5876210000000  0.5380810000000 1.0
C      1  0.5007090000000  0.6815280000000  0.6690890000000 1.0
C      1  0.6690890000000  0.5007090000000  0.6815280000000 1.0
C      1  0.6815280000000  0.6690890000000  0.5007090000000 1.0
C      1  0.4992910000000  0.3184720000000  0.6690890000000 1.0
C      1  0.4992910000000  0.6815280000000  0.3309110000000 1.0
C      1  0.5007090000000  0.3184720000000  0.3309110000000 1.0
C      1  0.3309110000000  0.4992910000000  0.6815280000000 1.0
C      1  0.3309110000000  0.5007090000000  0.3184720000000 1.0
C      1  0.6690890000000  0.4992910000000  0.3184720000000 1.0
C      1  0.3184720000000  0.3309110000000  0.5007090000000 1.0
C      1  0.3184720000000  0.6690890000000  0.4992910000000 1.0
C      1  0.6815280000000  0.3309110000000  0.4992910000000 1.0
C      1  0.3068220000000  0.6026920000000  0.3437430000000 1.0
C      1  0.3437430000000  0.3068220000000  0.6026920000000 1.0
C      1  0.6026920000000  0.3437430000000  0.3068220000000 1.0
C      1  0.6931780000000  0.3973080000000  0.3437430000000 1.0
C      1  0.6931780000000  0.6026920000000  0.6562570000000 1.0
C      1  0.3068220000000  0.3973080000000  0.6562570000000 1.0
C      1  0.6562570000000  0.6931780000000  0.6026920000000 1.0
C      1  0.6562570000000  0.3068220000000  0.3973080000000 1.0
C      1  0.3437430000000  0.6931780000000  0.3973080000000 1.0
C      1  0.3973080000000  0.6562570000000  0.3068220000000 1.0
C      1  0.3973080000000  0.3437430000000  0.6931780000000 1.0
C      1  0.6026920000000  0.6562570000000  0.6931780000000 1.0
END
