TITL C-3036479-9801-118 -8.14965047946996e-06 3375 -330.457016920765 0 0 60 (Td) n - 1
REM
REM in /home/bkarasulu/work/CARBON/AIRSS/Generating-Clusters/REBO/Higher-Symm/Only-C60
REM
REM
REM
REM
REM
REM ./C.cell (a2850807a9bf4ad07a5b6933b78d9264)
REM AIRSS Version 0.9.1 bugfix July 2018 build 013d7b7c2542+ Fri, 06 Jul 2018 19:26:36 +0100
REM compiler GCC version 9.2.1 20190827 (Red Hat 9.2.1-1)
REM options -cpp -mtune=generic -march=x86-64 -g -O0 -fpre-include=/usr/include/finclude/math-vector-fortran.h
REM seed -1256886458 -987545369 -1218992479 297947855 -213204827 -2018264245 1372976975 1633376193 -1281520886 -1044694647 -1326823638 417359327 -531808267 1823998253 404226944 -1974087886 1467334478 -970073619 -136569706 1616351997 728141997 1141417219 1878728695 -1243684912 -845469928 -1565605470 696540948 -349011246 1608277293 -1648244207 1365112790 -1678683674 -1498941740
REM
CELL 1.54180   15.00000   15.00000   15.00000   90.00000   90.00000   90.00000
LATT -1
SFAC C  
C      1  0.2771780000000  0.4852200000000  0.3574970000000 1.0
C      1  0.3574970000000  0.2771780000000  0.4852200000000 1.0
C      1  0.4852200000000  0.3574970000000  0.2771780000000 1.0
C      1  0.7228220000000  0.5147800000000  0.3574970000000 1.0
C      1  0.7228220000000  0.4852200000000  0.6425030000000 1.0
C      1  0.2771780000000  0.5147800000000  0.6425030000000 1.0
C      1  0.6425030000000  0.7228220000000  0.4852200000000 1.0
C      1  0.6425030000000  0.2771780000000  0.5147800000000 1.0
C      1  0.3574970000000  0.7228220000000  0.5147800000000 1.0
C      1  0.5147800000000  0.6425030000000  0.2771780000000 1.0
C      1  0.5147800000000  0.3574970000000  0.7228220000000 1.0
C      1  0.4852200000000  0.6425030000000  0.7228220000000 1.0
C      1  0.4852200000000  0.2771780000000  0.3574970000000 1.0
C      1  0.2771780000000  0.3574970000000  0.4852200000000 1.0
C      1  0.3574970000000  0.4852200000000  0.2771780000000 1.0
C      1  0.5147800000000  0.7228220000000  0.3574970000000 1.0
C      1  0.4852200000000  0.7228220000000  0.6425030000000 1.0
C      1  0.5147800000000  0.2771780000000  0.6425030000000 1.0
C      1  0.7228220000000  0.6425030000000  0.4852200000000 1.0
C      1  0.2771780000000  0.6425030000000  0.5147800000000 1.0
C      1  0.7228220000000  0.3574970000000  0.5147800000000 1.0
C      1  0.6425030000000  0.5147800000000  0.2771780000000 1.0
C      1  0.3574970000000  0.5147800000000  0.7228220000000 1.0
C      1  0.6425030000000  0.4852200000000  0.7228220000000 1.0
C      1  0.4277030000000  0.3582140000000  0.5006880000000 1.0
C      1  0.5006880000000  0.4277030000000  0.3582140000000 1.0
C      1  0.3582140000000  0.5006880000000  0.4277030000000 1.0
C      1  0.5722970000000  0.6417860000000  0.5006880000000 1.0
C      1  0.5722970000000  0.3582140000000  0.4993120000000 1.0
C      1  0.4277030000000  0.6417860000000  0.4993120000000 1.0
C      1  0.4993120000000  0.5722970000000  0.3582140000000 1.0
C      1  0.4993120000000  0.4277030000000  0.6417860000000 1.0
C      1  0.5006880000000  0.5722970000000  0.6417860000000 1.0
C      1  0.6417860000000  0.4993120000000  0.4277030000000 1.0
C      1  0.6417860000000  0.5006880000000  0.5722970000000 1.0
C      1  0.3582140000000  0.4993120000000  0.5722970000000 1.0
C      1  0.3582140000000  0.4277030000000  0.5006880000000 1.0
C      1  0.4277030000000  0.5006880000000  0.3582140000000 1.0
C      1  0.5006880000000  0.3582140000000  0.4277030000000 1.0
C      1  0.6417860000000  0.5722970000000  0.5006880000000 1.0
C      1  0.3582140000000  0.5722970000000  0.4993120000000 1.0
C      1  0.6417860000000  0.4277030000000  0.4993120000000 1.0
C      1  0.5722970000000  0.4993120000000  0.3582140000000 1.0
C      1  0.4277030000000  0.4993120000000  0.6417860000000 1.0
C      1  0.5722970000000  0.5006880000000  0.6417860000000 1.0
C      1  0.4993120000000  0.6417860000000  0.4277030000000 1.0
C      1  0.5006880000000  0.6417860000000  0.5722970000000 1.0
C      1  0.4993120000000  0.3582140000000  0.5722970000000 1.0
C      1  0.5396090000000  0.5396090000000  0.2360940000000 1.0
C      1  0.2360940000000  0.5396090000000  0.5396090000000 1.0
C      1  0.5396090000000  0.2360940000000  0.5396090000000 1.0
C      1  0.4603910000000  0.5396090000000  0.7639060000000 1.0
C      1  0.5396090000000  0.4603910000000  0.7639060000000 1.0
C      1  0.7639060000000  0.4603910000000  0.5396090000000 1.0
C      1  0.7639060000000  0.5396090000000  0.4603910000000 1.0
C      1  0.2360940000000  0.4603910000000  0.4603910000000 1.0
C      1  0.4603910000000  0.7639060000000  0.5396090000000 1.0
C      1  0.4603910000000  0.2360940000000  0.4603910000000 1.0
C      1  0.5396090000000  0.7639060000000  0.4603910000000 1.0
C      1  0.4603910000000  0.4603910000000  0.2360940000000 1.0
END
