TITL C-3036484-3770-1082 -0.0162859197470623 3375 -334.164505517693 0 0 60 (C1) n - 1
REM
REM in /home/bkarasulu/work/CARBON/AIRSS/Generating-Clusters/REBO/Higher-Symm/Only-C60
REM
REM
REM
REM
REM
REM ./C.cell (a2850807a9bf4ad07a5b6933b78d9264)
REM AIRSS Version 0.9.1 bugfix July 2018 build 013d7b7c2542+ Fri, 06 Jul 2018 19:26:36 +0100
REM compiler GCC version 9.2.1 20190827 (Red Hat 9.2.1-1)
REM options -cpp -mtune=generic -march=x86-64 -g -O0 -fpre-include=/usr/include/finclude/math-vector-fortran.h
REM seed 1732942249 664562986 1800160068 -1082999464 -500867059 782445057 -1858672150 -1822603669 -1138781354 1739496577 1417008500 29337790 195939027 -464884665 -514161967 2142834564 699824176 -2114648351 501639269 -255945464 1438500149 -1590561108 -387231334 818824149 1983105582 1136004396 -89617783 -75670023 -1256257872 204562399 -290975895 85502325 -1403741887
REM
CELL 1.54180   15.00000   15.00000   15.00000   90.00000   90.00000   90.00000
LATT -1
SFAC C  
C      1  0.6202840000000  0.4826210000000  0.4333760000000 1.0
C      1  0.4090860000000  0.4501460000000  0.5799100000000 1.0
C      1  0.5796320000000  0.5632380000000  0.4145090000000 1.0
C      1  0.4201680000000  0.5612270000000  0.5996480000000 1.0
C      1  0.6021110000000  0.4607630000000  0.5624730000000 1.0
C      1  0.4167580000000  0.4383930000000  0.3999780000000 1.0
C      1  0.5913000000000  0.5527610000000  0.5540240000000 1.0
C      1  0.4123140000000  0.5487850000000  0.4272210000000 1.0
C      1  0.6816580000000  0.5436960000000  0.6506790000000 1.0
C      1  0.3008190000000  0.5522970000000  0.3550300000000 1.0
C      1  0.6662070000000  0.4340630000000  0.6756260000000 1.0
C      1  0.3062500000000  0.4433070000000  0.3260290000000 1.0
C      1  0.6827750000000  0.5432720000000  0.3324330000000 1.0
C      1  0.3121630000000  0.5580120000000  0.6775800000000 1.0
C      1  0.6683110000000  0.4362140000000  0.3129420000000 1.0
C      1  0.2952790000000  0.4496290000000  0.6485840000000 1.0
C      1  0.7019460000000  0.6488810000000  0.6137630000000 1.0
C      1  0.3005290000000  0.6538090000000  0.4021470000000 1.0
C      1  0.7099100000000  0.3391750000000  0.6307960000000 1.0
C      1  0.3103870000000  0.3414540000000  0.3758910000000 1.0
C      1  0.6933860000000  0.6390900000000  0.3840010000000 1.0
C      1  0.3114290000000  0.6592810000000  0.6272410000000 1.0
C      1  0.6997540000000  0.3860920000000  0.3884600000000 1.0
C      1  0.2969480000000  0.3471450000000  0.6013790000000 1.0
C      1  0.7333570000000  0.5525410000000  0.4356360000000 1.0
C      1  0.3110530000000  0.5666980000000  0.5634970000000 1.0
C      1  0.7225110000000  0.4507290000000  0.4740300000000 1.0
C      1  0.3049570000000  0.4377970000000  0.5349770000000 1.0
C      1  0.7047670000000  0.5649180000000  0.5396090000000 1.0
C      1  0.3071990000000  0.5628940000000  0.4687850000000 1.0
C      1  0.7146360000000  0.4360110000000  0.5718860000000 1.0
C      1  0.3090540000000  0.4337710000000  0.4401930000000 1.0
C      1  0.3981020000000  0.6586880000000  0.4565150000000 1.0
C      1  0.6156760000000  0.6635380000000  0.5449910000000 1.0
C      1  0.3986540000000  0.3358530000000  0.4459950000000 1.0
C      1  0.6155280000000  0.3484810000000  0.5698770000000 1.0
C      1  0.3999520000000  0.6651580000000  0.5580600000000 1.0
C      1  0.6107340000000  0.6645820000000  0.4404400000000 1.0
C      1  0.3949470000000  0.3411070000000  0.5469680000000 1.0
C      1  0.6181160000000  0.3696800000000  0.4583680000000 1.0
C      1  0.3858910000000  0.4527370000000  0.7105310000000 1.0
C      1  0.5666450000000  0.4265900000000  0.2861060000000 1.0
C      1  0.4072490000000  0.5488860000000  0.7314160000000 1.0
C      1  0.5796850000000  0.5293450000000  0.2868820000000 1.0
C      1  0.3981240000000  0.4428080000000  0.2681620000000 1.0
C      1  0.5564100000000  0.4300580000000  0.6855630000000 1.0
C      1  0.3934530000000  0.5395160000000  0.2973480000000 1.0
C      1  0.5743130000000  0.5293410000000  0.6838770000000 1.0
C      1  0.4618210000000  0.7247990000000  0.4124200000000 1.0
C      1  0.5503200000000  0.7295560000000  0.5856210000000 1.0
C      1  0.4759980000000  0.2780260000000  0.4137210000000 1.0
C      1  0.5430630000000  0.2856050000000  0.5990160000000 1.0
C      1  0.4682870000000  0.7328550000000  0.5903760000000 1.0
C      1  0.5438390000000  0.7324460000000  0.4058940000000 1.0
C      1  0.4616460000000  0.2797010000000  0.5917290000000 1.0
C      1  0.5549130000000  0.3011330000000  0.4164230000000 1.0
C      1  0.4673680000000  0.4082890000000  0.6682500000000 1.0
C      1  0.4910010000000  0.5629720000000  0.3490840000000 1.0
C      1  0.4923520000000  0.5763640000000  0.6824850000000 1.0
C      1  0.4789750000000  0.4031780000000  0.3115470000000 1.0
END
