TITL C-3036481-494-329 -0.118206388605657 3375 -349.391483176436 0 0 60 (C1) n - 1
REM
REM in /home/bkarasulu/work/CARBON/AIRSS/Generating-Clusters/REBO/Higher-Symm/Only-C60
REM
REM
REM
REM
REM
REM ./C.cell (a2850807a9bf4ad07a5b6933b78d9264)
REM AIRSS Version 0.9.1 bugfix July 2018 build 013d7b7c2542+ Fri, 06 Jul 2018 19:26:36 +0100
REM compiler GCC version 9.2.1 20190827 (Red Hat 9.2.1-1)
REM options -cpp -mtune=generic -march=x86-64 -g -O0 -fpre-include=/usr/include/finclude/math-vector-fortran.h
REM seed -1370502766 -372136713 -586910117 -1435220040 -1247160309 1038724978 335822238 -1369279229 -1734283576 1208743548 417189254 516978317 -577927780 -95201215 1468056479 264916357 -1049878452 -1211049174 532647788 119500156 -1306659570 -1978577753 -1421245255 1617095977 40805461 916185202 1688413623 -1382518585 823654955 1662102408 581435905 471564620 -685043416
REM
CELL 1.54180   15.00000   15.00000   15.00000   90.00000   90.00000   90.00000
LATT -1
SFAC C  
C      1  0.5851860000000  0.4209060000000  0.4761140000000 1.0
C      1  0.5215380000000  0.6020910000000  0.4747210000000 1.0
C      1  0.4005630000000  0.4587280000000  0.4572700000000 1.0
C      1  0.5058750000000  0.4090590000000  0.7443170000000 1.0
C      1  0.5673230000000  0.5556590000000  0.7425820000000 1.0
C      1  0.4061870000000  0.5369190000000  0.7372240000000 1.0
C      1  0.5849810000000  0.5152480000000  0.6584970000000 1.0
C      1  0.4374490000000  0.5693300000000  0.6536850000000 1.0
C      1  0.4645760000000  0.4130390000000  0.6591860000000 1.0
C      1  0.4243840000000  0.5751570000000  0.3606560000000 1.0
C      1  0.4762040000000  0.4024570000000  0.4030920000000 1.0
C      1  0.6150700000000  0.5427580000000  0.3824060000000 1.0
C      1  0.3362860000000  0.3910560000000  0.5760440000000 1.0
C      1  0.6725690000000  0.4102400000000  0.5862300000000 1.0
C      1  0.4873540000000  0.6972460000000  0.5826140000000 1.0
C      1  0.6233080000000  0.4931330000000  0.2826820000000 1.0
C      1  0.4242680000000  0.6297180000000  0.2611650000000 1.0
C      1  0.4293010000000  0.3893970000000  0.2475040000000 1.0
C      1  0.5142600000000  0.6525090000000  0.3001050000000 1.0
C      1  0.3582700000000  0.4444650000000  0.2798160000000 1.0
C      1  0.5999860000000  0.4031620000000  0.3000370000000 1.0
C      1  0.7364260000000  0.3784270000000  0.3930750000000 1.0
C      1  0.4528510000000  0.7537430000000  0.4164300000000 1.0
C      1  0.2855370000000  0.3418370000000  0.3898210000000 1.0
C      1  0.5836130000000  0.6448540000000  0.5553220000000 1.0
C      1  0.3378170000000  0.4978280000000  0.5365300000000 1.0
C      1  0.5828130000000  0.3464780000000  0.5561990000000 1.0
C      1  0.5862560000000  0.5941230000000  0.2866830000000 1.0
C      1  0.3681480000000  0.5383190000000  0.2700390000000 1.0
C      1  0.5061940000000  0.3836870000000  0.3027460000000 1.0
C      1  0.6647550000000  0.5764710000000  0.5416410000000 1.0
C      1  0.3606820000000  0.6027580000000  0.5254720000000 1.0
C      1  0.4816800000000  0.3096230000000  0.5474220000000 1.0
C      1  0.6143180000000  0.6883500000000  0.4335540000000 1.0
C      1  0.2879450000000  0.5152820000000  0.4142620000000 1.0
C      1  0.5894450000000  0.2953630000000  0.4299130000000 1.0
C      1  0.5114660000000  0.6843390000000  0.3973300000000 1.0
C      1  0.3281730000000  0.4229910000000  0.3764340000000 1.0
C      1  0.6438880000000  0.3770820000000  0.3894150000000 1.0
C      1  0.3212610000000  0.4960070000000  0.7249540000000 1.0
C      1  0.5858050000000  0.3580950000000  0.7410140000000 1.0
C      1  0.5751390000000  0.6499880000000  0.7383550000000 1.0
C      1  0.2970100000000  0.4680830000000  0.6382120000000 1.0
C      1  0.6292130000000  0.3441070000000  0.6587950000000 1.0
C      1  0.5659140000000  0.6929680000000  0.6554100000000 1.0
C      1  0.4141080000000  0.6382060000000  0.5928860000000 1.0
C      1  0.4192650000000  0.3532070000000  0.6017450000000 1.0
C      1  0.6595270000000  0.5031160000000  0.6000950000000 1.0
C      1  0.3516050000000  0.5799300000000  0.4313670000000 1.0
C      1  0.5037990000000  0.3181740000000  0.4527390000000 1.0
C      1  0.6519460000000  0.6049560000000  0.4481010000000 1.0
C      1  0.4866250000000  0.5050200000000  0.9830210000000 1.0
C      1  0.4874140000000  0.5053890000000  0.0723653000000 1.0
C      1  0.4901950000000  0.5020160000000  0.7931730000000 1.0
C      1  0.4899290000000  0.5054320000000  0.1616790000000 1.0
C      1  0.4961330000000  0.4972230000000  0.6085270000000 1.0
C      1  0.4871860000000  0.5041870000000  0.8945040000000 1.0
C      1  0.5013390000000  0.4944110000000  0.4969010000000 1.0
C      1  0.5103220000000  0.5030480000000  0.3615950000000 1.0
C      1  0.4951330000000  0.5051760000000  0.2501030000000 1.0
END
