TITL C-3036479-9801-252 -2.11653496126924e-06 3375 -347.829482099141 0 0 60 (Ci) n - 1
REM
REM in /home/bkarasulu/work/CARBON/AIRSS/Generating-Clusters/REBO/Higher-Symm/Only-C60
REM
REM
REM
REM
REM
REM ./C.cell (a2850807a9bf4ad07a5b6933b78d9264)
REM AIRSS Version 0.9.1 bugfix July 2018 build 013d7b7c2542+ Fri, 06 Jul 2018 19:26:36 +0100
REM compiler GCC version 9.2.1 20190827 (Red Hat 9.2.1-1)
REM options -cpp -mtune=generic -march=x86-64 -g -O0 -fpre-include=/usr/include/finclude/math-vector-fortran.h
REM seed -749017205 -1620978829 550434738 1432731793 -1068969978 -560281031 2055375917 29086598 -1058550537 1379460587 -188715204 1604120429 2028937268 -439669340 -909799727 -99048505 -1550671123 -1628737128 -1103418592 -1024307968 1104490016 406277603 -1415848121 1476792552 -1076437060 1285202731 -1160997183 609997465 -617062524 532120117 1170731528 -1859171702 1328921518
REM
CELL 1.54180   15.00000   15.00000   15.00000   90.00000   90.00000   90.00000
LATT -1
SFAC C  
C      1  0.6208620000000  0.5689640000000  0.5947000000000 1.0
C      1  0.3791380000000  0.4310360000000  0.4053000000000 1.0
C      1  0.3280020000000  0.6667690000000  0.4094120000000 1.0
C      1  0.6719980000000  0.3332310000000  0.5905880000000 1.0
C      1  0.2741380000000  0.4859000000000  0.3454440000000 1.0
C      1  0.7258620000000  0.5141000000000  0.6545560000000 1.0
C      1  0.5638940000000  0.6252630000000  0.4474780000000 1.0
C      1  0.4361060000000  0.3747370000000  0.5525220000000 1.0
C      1  0.4113630000000  0.7117780000000  0.5400530000000 1.0
C      1  0.5886370000000  0.2882220000000  0.4599470000000 1.0
C      1  0.6472880000000  0.5042970000000  0.7109310000000 1.0
C      1  0.3527120000000  0.4957030000000  0.2890690000000 1.0
C      1  0.5047320000000  0.5859730000000  0.7967860000000 1.0
C      1  0.4952680000000  0.4140270000000  0.2032140000000 1.0
C      1  0.4633560000000  0.7524650000000  0.3897140000000 1.0
C      1  0.5366440000000  0.2475350000000  0.6102860000000 1.0
C      1  0.5687190000000  0.5602260000000  0.7168830000000 1.0
C      1  0.4312810000000  0.4397740000000  0.2831170000000 1.0
C      1  0.5404150000000  0.7034310000000  0.3828070000000 1.0
C      1  0.4595850000000  0.2965690000000  0.6171930000000 1.0
C      1  0.3703750000000  0.5238260000000  0.6698620000000 1.0
C      1  0.6296250000000  0.4761740000000  0.3301380000000 1.0
C      1  0.7072130000000  0.4050820000000  0.3674280000000 1.0
C      1  0.2927870000000  0.5949180000000  0.6325720000000 1.0
C      1  0.2867690000000  0.4931300000000  0.5972600000000 1.0
C      1  0.7132310000000  0.5068700000000  0.4027400000000 1.0
C      1  0.3335810000000  0.6766080000000  0.6133550000000 1.0
C      1  0.6664190000000  0.3233920000000  0.3866450000000 1.0
C      1  0.3200300000000  0.6547350000000  0.3150090000000 1.0
C      1  0.6799700000000  0.3452650000000  0.6849910000000 1.0
C      1  0.4590160000000  0.5852520000000  0.6934180000000 1.0
C      1  0.5409840000000  0.4147480000000  0.3065820000000 1.0
C      1  0.5076880000000  0.4533250000000  0.6324660000000 1.0
C      1  0.4923120000000  0.5466750000000  0.3675340000000 1.0
C      1  0.3884610000000  0.7314710000000  0.4440760000000 1.0
C      1  0.6115390000000  0.2685290000000  0.5559240000000 1.0
C      1  0.5844260000000  0.4469630000000  0.4865580000000 1.0
C      1  0.4155740000000  0.5530370000000  0.5134420000000 1.0
C      1  0.3752870000000  0.5894740000000  0.2724600000000 1.0
C      1  0.6247130000000  0.4105260000000  0.7275400000000 1.0
C      1  0.5626360000000  0.3269590000000  0.3561240000000 1.0
C      1  0.4373640000000  0.6730410000000  0.6438760000000 1.0
C      1  0.5193140000000  0.3675490000000  0.4753260000000 1.0
C      1  0.4806860000000  0.6324510000000  0.5246740000000 1.0
C      1  0.7290550000000  0.4910390000000  0.5606970000000 1.0
C      1  0.2709450000000  0.5089610000000  0.4393030000000 1.0
C      1  0.4289790000000  0.3421980000000  0.4250230000000 1.0
C      1  0.5710210000000  0.6578020000000  0.5749770000000 1.0
C      1  0.4208130000000  0.5121290000000  0.4169020000000 1.0
C      1  0.5791870000000  0.4878710000000  0.5830980000000 1.0
C      1  0.2773550000000  0.4492340000000  0.5150640000000 1.0
C      1  0.7226450000000  0.5507660000000  0.4849360000000 1.0
C      1  0.3214190000000  0.5876420000000  0.4622160000000 1.0
C      1  0.6785810000000  0.4123580000000  0.5377840000000 1.0
C      1  0.5812830000000  0.5209480000000  0.4132610000000 1.0
C      1  0.4187170000000  0.4790520000000  0.5867390000000 1.0
C      1  0.3416900000000  0.3700380000000  0.4935800000000 1.0
C      1  0.6583100000000  0.6299620000000  0.5064200000000 1.0
C      1  0.5309970000000  0.4030170000000  0.7083750000000 1.0
C      1  0.4690030000000  0.5969830000000  0.2916250000000 1.0
END
