TITL C-3036484-3770-1067 -3.87891773976009e-06 3375 -344.455993332741 0 0 60 (C10) n - 1
REM
REM in /home/bkarasulu/work/CARBON/AIRSS/Generating-Clusters/REBO/Higher-Symm/Only-C60
REM
REM
REM
REM
REM
REM ./C.cell (a2850807a9bf4ad07a5b6933b78d9264)
REM AIRSS Version 0.9.1 bugfix July 2018 build 013d7b7c2542+ Fri, 06 Jul 2018 19:26:36 +0100
REM compiler GCC version 9.2.1 20190827 (Red Hat 9.2.1-1)
REM options -cpp -mtune=generic -march=x86-64 -g -O0 -fpre-include=/usr/include/finclude/math-vector-fortran.h
REM seed -2137384814 354212709 1844396706 -1039932562 884477993 988312934 -2014274094 416598509 39035778 -1656743810 1026217614 596852872 302653004 111672703 840274319 1250363866 1444587365 -1829482346 -304897242 1969358694 1323109593 -2133314042 377837086 714845928 -770370901 -919690612 -453851697 871096940 -487884902 497666463 -595901720 2124467856 -1849923797
REM
CELL 1.54180   15.00000   15.00000   15.00000   90.00000   90.00000   90.00000
LATT -1
SFAC C  
C      1  0.7293600000000  0.4219290000000  0.3871000000000 1.0
C      1  0.6396660000000  0.3020250000000  0.3871000000000 1.0
C      1  0.4966250000000  0.2577400000000  0.3871000000000 1.0
C      1  0.3548720000000  0.3059900000000  0.3871000000000 1.0
C      1  0.2685530000000  0.4283460000000  0.3871000000000 1.0
C      1  0.2706400000000  0.5780710000000  0.3871000000000 1.0
C      1  0.3603340000000  0.6979750000000  0.3871000000000 1.0
C      1  0.5033750000000  0.7422600000000  0.3871000000000 1.0
C      1  0.6451280000000  0.6940100000000  0.3871000000000 1.0
C      1  0.7314470000000  0.5716540000000  0.3871000000000 1.0
C      1  0.5733010000000  0.2632280000000  0.4405160000000 1.0
C      1  0.4201300000000  0.2653610000000  0.4405170000000 1.0
C      1  0.2974660000000  0.3571180000000  0.4405170000000 1.0
C      1  0.2521640000000  0.5034520000000  0.4405160000000 1.0
C      1  0.3015270000000  0.6484670000000  0.4405160000000 1.0
C      1  0.4266990000000  0.7367720000000  0.4405160000000 1.0
C      1  0.5798700000000  0.7346390000000  0.4405170000000 1.0
C      1  0.7025340000000  0.6428820000000  0.4405170000000 1.0
C      1  0.7478360000000  0.4965480000000  0.4405160000000 1.0
C      1  0.6984730000000  0.3515330000000  0.4405160000000 1.0
C      1  0.5999280000000  0.6335840000000  0.3157590000000 1.0
C      1  0.6593620000000  0.5493370000000  0.3157590000000 1.0
C      1  0.6579240000000  0.4462450000000  0.3157590000000 1.0
C      1  0.5961650000000  0.3636860000000  0.3157590000000 1.0
C      1  0.4976750000000  0.3331940000000  0.3157590000000 1.0
C      1  0.4000720000000  0.3664160000000  0.3157590000000 1.0
C      1  0.3406380000000  0.4506630000000  0.3157590000000 1.0
C      1  0.3420760000000  0.5537550000000  0.3157590000000 1.0
C      1  0.4038350000000  0.6363140000000  0.3157590000000 1.0
C      1  0.5023250000000  0.6668060000000  0.3157590000000 1.0
C      1  0.6482240000000  0.3893730000000  0.5275670000000 1.0
C      1  0.5548910000000  0.3233760000000  0.5275680000000 1.0
C      1  0.4405900000000  0.3248440000000  0.5275660000000 1.0
C      1  0.3489810000000  0.3932150000000  0.5275690000000 1.0
C      1  0.3150580000000  0.5023750000000  0.5275660000000 1.0
C      1  0.3517760000000  0.6106270000000  0.5275670000000 1.0
C      1  0.4451090000000  0.6766240000000  0.5275680000000 1.0
C      1  0.5594100000000  0.6751560000000  0.5275660000000 1.0
C      1  0.6510190000000  0.6067850000000  0.5275690000000 1.0
C      1  0.6849420000000  0.4976250000000  0.5275660000000 1.0
C      1  0.6695170000000  0.3546960000000  0.6276850000000 1.0
C      1  0.5517370000000  0.2828050000000  0.6276850000000 1.0
C      1  0.4141840000000  0.2938790000000  0.6276830000000 1.0
C      1  0.3094230000000  0.3836730000000  0.6276860000000 1.0
C      1  0.2774490000000  0.5179200000000  0.6276820000000 1.0
C      1  0.3304830000000  0.6453030000000  0.6276850000000 1.0
C      1  0.4482630000000  0.7171950000000  0.6276850000000 1.0
C      1  0.5858150000000  0.7061210000000  0.6276830000000 1.0
C      1  0.6905770000000  0.6163260000000  0.6276860000000 1.0
C      1  0.7225520000000  0.4820800000000  0.6276820000000 1.0
C      1  0.5615640000000  0.6442790000000  0.7013720000000 1.0
C      1  0.6346110000000  0.5805370000000  0.7013740000000 1.0
C      1  0.6562420000000  0.4860360000000  0.7013710000000 1.0
C      1  0.6181900000000  0.3968680000000  0.7013740000000 1.0
C      1  0.5349970000000  0.3470910000000  0.7013730000000 1.0
C      1  0.4384360000000  0.3557210000000  0.7013720000000 1.0
C      1  0.3653890000000  0.4194630000000  0.7013740000000 1.0
C      1  0.3437580000000  0.5139640000000  0.7013710000000 1.0
C      1  0.3818100000000  0.6031320000000  0.7013740000000 1.0
C      1  0.4650030000000  0.6529090000000  0.7013730000000 1.0
END
