TITL C-3036486-2224-38 -4.08019026303663e-06 3375 -380.161916022263 0 0 60 (C1) n - 1
REM
REM in /home/bkarasulu/work/CARBON/AIRSS/Generating-Clusters/REBO/Higher-Symm/Only-C60
REM
REM
REM
REM
REM
REM ./C.cell (a2850807a9bf4ad07a5b6933b78d9264)
REM AIRSS Version 0.9.1 bugfix July 2018 build 013d7b7c2542+ Fri, 06 Jul 2018 19:26:36 +0100
REM compiler GCC version 9.2.1 20190827 (Red Hat 9.2.1-1)
REM options -cpp -mtune=generic -march=x86-64 -g -O0 -fpre-include=/usr/include/finclude/math-vector-fortran.h
REM seed -1627830826 -1593286388 1737861913 1218712211 1129465444 830271472 -112841249 888105753 1000042181 -443734135 -2015637728 -135153151 -1011964150 -1735301401 1721727231 1660391863 1691485221 -1631075919 852649024 436975451 -1790377650 -771283876 -735196427 -1033635666 -1496704633 2031198416 1500905346 -636010372 -487112327 -962080537 1884858476 798154981 -910874644
REM
CELL 1.54180   15.00000   15.00000   15.00000   90.00000   90.00000   90.00000
LATT -1
SFAC C  
C      1  0.2033840000000  0.4645520000000  0.5757020000000 1.0
C      1  0.2073020000000  0.5665540000000  0.5548610000000 1.0
C      1  0.2142500000000  0.5763330000000  0.4530490000000 1.0
C      1  0.2124270000000  0.4814700000000  0.4107570000000 1.0
C      1  0.2074000000000  0.4121080000000  0.4874920000000 1.0
C      1  0.6691760000000  0.3422160000000  0.5544150000000 1.0
C      1  0.6776150000000  0.5087690000000  0.6562800000000 1.0
C      1  0.6743840000000  0.6567740000000  0.5506660000000 1.0
C      1  0.6693580000000  0.5976750000000  0.3547800000000 1.0
C      1  0.6672490000000  0.3949200000000  0.3582350000000 1.0
C      1  0.3214780000000  0.5552470000000  0.4294690000000 1.0
C      1  0.3191710000000  0.4461260000000  0.4241930000000 1.0
C      1  0.3137820000000  0.4075470000000  0.5273780000000 1.0
C      1  0.3091200000000  0.4921930000000  0.5962830000000 1.0
C      1  0.3181230000000  0.5853900000000  0.5360580000000 1.0
C      1  0.4433970000000  0.6958130000000  0.4964890000000 1.0
C      1  0.4379340000000  0.5515020000000  0.3039390000000 1.0
C      1  0.4376590000000  0.3269310000000  0.3911300000000 1.0
C      1  0.4397130000000  0.3516630000000  0.6306370000000 1.0
C      1  0.3818690000000  0.5732600000000  0.7185900000000 1.0
C      1  0.5210120000000  0.3273980000000  0.3371560000000 1.0
C      1  0.5234020000000  0.3014920000000  0.6142280000000 1.0
C      1  0.4896910000000  0.5835320000000  0.7357070000000 1.0
C      1  0.5276480000000  0.7232180000000  0.5374080000000 1.0
C      1  0.5216180000000  0.6022300000000  0.2875400000000 1.0
C      1  0.6018440000000  0.4583620000000  0.3033340000000 1.0
C      1  0.6031830000000  0.3057280000000  0.4788550000000 1.0
C      1  0.5992040000000  0.4351170000000  0.6714630000000 1.0
C      1  0.6074720000000  0.6232060000000  0.6314130000000 1.0
C      1  0.6063360000000  0.6692790000000  0.4022600000000 1.0
C      1  0.5901690000000  0.5719070000000  0.4582260000000 1.0
C      1  0.5901600000000  0.4886420000000  0.4121610000000 1.0
C      1  0.5918700000000  0.4188320000000  0.4784130000000 1.0
C      1  0.5932960000000  0.4610300000000  0.5647520000000 1.0
C      1  0.5905490000000  0.5539490000000  0.5500110000000 1.0
C      1  0.3847590000000  0.3427020000000  0.5504900000000 1.0
C      1  0.3609530000000  0.4889310000000  0.6795390000000 1.0
C      1  0.3887210000000  0.6515240000000  0.5618850000000 1.0
C      1  0.3876220000000  0.5989960000000  0.3717500000000 1.0
C      1  0.3851120000000  0.4039030000000  0.3646920000000 1.0
C      1  0.5200220000000  0.6785250000000  0.3500090000000 1.0
C      1  0.5170050000000  0.4082220000000  0.2811080000000 1.0
C      1  0.5196020000000  0.2690260000000  0.5218140000000 1.0
C      1  0.5168480000000  0.4748100000000  0.7201080000000 1.0
C      1  0.5288520000000  0.6893960000000  0.6277660000000 1.0
C      1  0.7210700000000  0.5801850000000  0.5139050000000 1.0
C      1  0.7165670000000  0.5447830000000  0.4204960000000 1.0
C      1  0.7151280000000  0.4443210000000  0.4260440000000 1.0
C      1  0.7180700000000  0.4194160000000  0.5227730000000 1.0
C      1  0.7232550000000  0.5029680000000  0.5748430000000 1.0
C      1  0.5954710000000  0.5601850000000  0.7153520000000 1.0
C      1  0.6135040000000  0.7086230000000  0.4954060000000 1.0
C      1  0.6083310000000  0.5585570000000  0.2903640000000 1.0
C      1  0.6084010000000  0.3206240000000  0.3789240000000 1.0
C      1  0.6092200000000  0.3423890000000  0.6314600000000 1.0
C      1  0.4323110000000  0.4279380000000  0.6860950000000 1.0
C      1  0.4365450000000  0.6461400000000  0.6560280000000 1.0
C      1  0.4393170000000  0.6738450000000  0.4033350000000 1.0
C      1  0.4349910000000  0.4558200000000  0.3003180000000 1.0
C      1  0.4360720000000  0.2972090000000  0.4821680000000 1.0
END
