TITL C-3036480-97-883 1.77840683388105e-05 3375 -326.079795465084 0 0 60 (C5) n - 1
REM
REM in /home/bkarasulu/work/CARBON/AIRSS/Generating-Clusters/REBO/Higher-Symm/Only-C60
REM
REM
REM
REM
REM
REM ./C.cell (a2850807a9bf4ad07a5b6933b78d9264)
REM AIRSS Version 0.9.1 bugfix July 2018 build 013d7b7c2542+ Fri, 06 Jul 2018 19:26:36 +0100
REM compiler GCC version 9.2.1 20190827 (Red Hat 9.2.1-1)
REM options -cpp -mtune=generic -march=x86-64 -g -O0 -fpre-include=/usr/include/finclude/math-vector-fortran.h
REM seed 96803196 765926789 -534382676 -2020047438 -1966882551 -674965714 -1092514344 1400728649 -1651341954 -1412493473 1055392723 1299515754 -1673015102 -619439711 1651690668 565495797 -1723106178 -1355899957 2057158895 2136306763 -1177856303 -764056706 -732229108 -311267228 -541290451 -900194056 -1358418272 -211707451 -1189253270 -1561078676 1128839519 258559120 1866963343
REM
CELL 1.54180   15.00000   15.00000   15.00000   90.00000   90.00000   90.00000
LATT -1
SFAC C  
C      1  0.6127420000000  0.4335410000000  0.5616090000000 1.0
C      1  0.6127420000000  0.4208690000000  0.4558320000000 1.0
C      1  0.6127420000000  0.5175540000000  0.4110930000000 1.0
C      1  0.6127420000000  0.5899800000000  0.4892210000000 1.0
C      1  0.6127420000000  0.5380570000000  0.5822450000000 1.0
C      1  0.3872580000000  0.4335410000000  0.5616090000000 1.0
C      1  0.3872580000000  0.4208690000000  0.4558320000000 1.0
C      1  0.3872580000000  0.5175540000000  0.4110930000000 1.0
C      1  0.3872580000000  0.5899800000000  0.4892210000000 1.0
C      1  0.3872580000000  0.5380570000000  0.5822450000000 1.0
C      1  0.6586290000000  0.6935640000000  0.6249780000000 1.0
C      1  0.6586290000000  0.4409540000000  0.7227110000000 1.0
C      1  0.6586290000000  0.2699430000000  0.5126650000000 1.0
C      1  0.6586290000000  0.4168630000000  0.2851170000000 1.0
C      1  0.6586290000000  0.6786750000000  0.3545300000000 1.0
C      1  0.3413710000000  0.6935640000000  0.6249780000000 1.0
C      1  0.3413710000000  0.4409540000000  0.7227110000000 1.0
C      1  0.3413710000000  0.2699430000000  0.5126650000000 1.0
C      1  0.3413710000000  0.4168630000000  0.2851170000000 1.0
C      1  0.3413710000000  0.6786750000000  0.3545300000000 1.0
C      1  0.4254410000000  0.6635050000000  0.6820820000000 1.0
C      1  0.4254410000000  0.3773550000000  0.7117690000000 1.0
C      1  0.4254410000000  0.2606960000000  0.4487980000000 1.0
C      1  0.4254410000000  0.4747470000000  0.2565860000000 1.0
C      1  0.4254410000000  0.7236970000000  0.4007640000000 1.0
C      1  0.5745590000000  0.6635050000000  0.6820820000000 1.0
C      1  0.5745590000000  0.3773550000000  0.7117690000000 1.0
C      1  0.5745590000000  0.2606960000000  0.4487980000000 1.0
C      1  0.5745590000000  0.4747470000000  0.2565860000000 1.0
C      1  0.5745590000000  0.7236970000000  0.4007640000000 1.0
C      1  0.5533740000000  0.3516590000000  0.4031500000000 1.0
C      1  0.5533740000000  0.5462700000000  0.3289910000000 1.0
C      1  0.5533740000000  0.6769380000000  0.4911610000000 1.0
C      1  0.5533740000000  0.5630840000000  0.6655460000000 1.0
C      1  0.5533740000000  0.3620500000000  0.6111530000000 1.0
C      1  0.4466260000000  0.3516590000000  0.4031500000000 1.0
C      1  0.4466260000000  0.5462700000000  0.3289910000000 1.0
C      1  0.4466260000000  0.6769380000000  0.4911610000000 1.0
C      1  0.4466260000000  0.5630840000000  0.6655460000000 1.0
C      1  0.4466260000000  0.3620500000000  0.6111530000000 1.0
C      1  0.3052310000000  0.6143270000000  0.5906030000000 1.0
C      1  0.3052310000000  0.4491610000000  0.6367300000000 1.0
C      1  0.3052310000000  0.3542520000000  0.4939010000000 1.0
C      1  0.3052310000000  0.4607620000000  0.3595010000000 1.0
C      1  0.3052310000000  0.6214970000000  0.4192660000000 1.0
C      1  0.6947690000000  0.6143270000000  0.5906030000000 1.0
C      1  0.6947690000000  0.4491610000000  0.6367300000000 1.0
C      1  0.6947690000000  0.3542520000000  0.4939010000000 1.0
C      1  0.6947690000000  0.4607620000000  0.3595010000000 1.0
C      1  0.6947690000000  0.6214970000000  0.4192660000000 1.0
C      1  0.5551840000000  0.6540270000000  0.3141560000000 1.0
C      1  0.5551840000000  0.7243450000000  0.5890590000000 1.0
C      1  0.5551840000000  0.4846260000000  0.7408860000000 1.0
C      1  0.5551840000000  0.2661530000000  0.5598160000000 1.0
C      1  0.5551840000000  0.3708490000000  0.2960830000000 1.0
C      1  0.4448160000000  0.6540270000000  0.3141560000000 1.0
C      1  0.4448160000000  0.7243450000000  0.5890590000000 1.0
C      1  0.4448160000000  0.4846260000000  0.7408860000000 1.0
C      1  0.4448160000000  0.2661530000000  0.5598160000000 1.0
C      1  0.4448160000000  0.3708490000000  0.2960830000000 1.0
END
