TITL C-3036483-1610-837 3.28693486946305e-06 3375 -365.364878002554 0 0 60 (D2d) n - 1
REM
REM in /home/bkarasulu/work/CARBON/AIRSS/Generating-Clusters/REBO/Higher-Symm/Only-C60
REM
REM
REM
REM
REM
REM ./C.cell (a2850807a9bf4ad07a5b6933b78d9264)
REM AIRSS Version 0.9.1 bugfix July 2018 build 013d7b7c2542+ Fri, 06 Jul 2018 19:26:36 +0100
REM compiler GCC version 9.2.1 20190827 (Red Hat 9.2.1-1)
REM options -cpp -mtune=generic -march=x86-64 -g -O0 -fpre-include=/usr/include/finclude/math-vector-fortran.h
REM seed 1186256169 -827482036 1319722507 1976806029 -395116224 -1325331385 1816795785 1771463740 1203533727 360412158 746927186 435126370 -1420590332 686965479 1278690821 -1672085076 -1581140056 -608043930 -1342924148 -73306070 -1166521406 -2144093459 -505077079 2124664834 -1599425991 -2070208711 2143883829 1125056503 2010352828 1843643499 -495711776 854217656 -921506155
REM
CELL 1.54180   15.00000   15.00000   15.00000   90.00000   90.00000   90.00000
LATT -1
SFAC C  
C      1  0.4296340000000  0.7098200000000  0.6442430000000 1.0
C      1  0.4296340000000  0.2901800000000  0.3557570000000 1.0
C      1  0.5703660000000  0.7098200000000  0.3557570000000 1.0
C      1  0.5703660000000  0.2901800000000  0.6442430000000 1.0
C      1  0.4296340000000  0.6442430000000  0.7098200000000 1.0
C      1  0.4296340000000  0.3557570000000  0.2901800000000 1.0
C      1  0.5703660000000  0.3557570000000  0.7098200000000 1.0
C      1  0.5703660000000  0.6442430000000  0.2901800000000 1.0
C      1  0.4080320000000  0.6051110000000  0.3284970000000 1.0
C      1  0.4080320000000  0.3948890000000  0.6715030000000 1.0
C      1  0.5919680000000  0.6051110000000  0.6715030000000 1.0
C      1  0.5919680000000  0.3948890000000  0.3284970000000 1.0
C      1  0.4080320000000  0.3284970000000  0.6051110000000 1.0
C      1  0.4080320000000  0.6715030000000  0.3948890000000 1.0
C      1  0.5919680000000  0.6715030000000  0.6051110000000 1.0
C      1  0.5919680000000  0.3284970000000  0.3948890000000 1.0
C      1  0.4550850000000  0.4798410000000  0.4148250000000 1.0
C      1  0.4550850000000  0.5201590000000  0.5851750000000 1.0
C      1  0.5449150000000  0.4798410000000  0.5851750000000 1.0
C      1  0.5449150000000  0.5201590000000  0.4148250000000 1.0
C      1  0.4550850000000  0.4148250000000  0.4798410000000 1.0
C      1  0.4550850000000  0.5851750000000  0.5201590000000 1.0
C      1  0.5449150000000  0.5851750000000  0.4798410000000 1.0
C      1  0.5449150000000  0.4148250000000  0.5201590000000 1.0
C      1  0.5877920000000  0.7312060000000  0.4543780000000 1.0
C      1  0.5877920000000  0.2687940000000  0.5456230000000 1.0
C      1  0.4122080000000  0.7312060000000  0.5456220000000 1.0
C      1  0.4122080000000  0.2687940000000  0.4543770000000 1.0
C      1  0.5877920000000  0.4543770000000  0.7312060000000 1.0
C      1  0.5877920000000  0.5456220000000  0.2687940000000 1.0
C      1  0.4122080000000  0.5456230000000  0.7312060000000 1.0
C      1  0.4122080000000  0.4543780000000  0.2687940000000 1.0
C      1  0.4745470000000  0.6081190000000  0.2415730000000 1.0
C      1  0.4745460000000  0.3918810000000  0.7584270000000 1.0
C      1  0.5254530000000  0.6081190000000  0.7584270000000 1.0
C      1  0.5254540000000  0.3918810000000  0.2415730000000 1.0
C      1  0.4745460000000  0.2415730000000  0.6081190000000 1.0
C      1  0.4745470000000  0.7584270000000  0.3918810000000 1.0
C      1  0.5254540000000  0.7584270000000  0.6081190000000 1.0
C      1  0.5254540000000  0.2415730000000  0.3918810000000 1.0
C      1  0.4207110000000  0.7616440000000  0.2975810000000 1.0
C      1  0.4207110000000  0.2383560000000  0.7024190000000 1.0
C      1  0.5792890000000  0.7616440000000  0.7024190000000 1.0
C      1  0.5792890000000  0.2383560000000  0.2975810000000 1.0
C      1  0.4207110000000  0.2975810000000  0.7616440000000 1.0
C      1  0.4207110000000  0.7024190000000  0.2383560000000 1.0
C      1  0.5792890000000  0.7024190000000  0.7616440000000 1.0
C      1  0.5792890000000  0.2975810000000  0.2383560000000 1.0
C      1  0.6023600000000  0.5105210000000  0.6543060000000 1.0
C      1  0.6023600000000  0.4894790000000  0.3456940000000 1.0
C      1  0.3976400000000  0.5105210000000  0.3456940000000 1.0
C      1  0.3976400000000  0.4894790000000  0.6543060000000 1.0
C      1  0.6023600000000  0.6543060000000  0.5105210000000 1.0
C      1  0.6023600000000  0.3456940000000  0.4894790000000 1.0
C      1  0.3976400000000  0.3456940000000  0.5105210000000 1.0
C      1  0.3976400000000  0.6543060000000  0.4894790000000 1.0
C      1  0.5000000000000  0.7844560000000  0.5000000000000 1.0
C      1  0.5000000000000  0.5000000000000  0.7844560000000 1.0
C      1  0.5000000000000  0.2155440000000  0.5000000000000 1.0
C      1  0.5000000000000  0.5000000000000  0.2155440000000 1.0
END
