TITL C-3036481-494-410 -0.0629396542709309 3375 -336.583724226534 0 0 60 (C2) n - 1
REM
REM in /home/bkarasulu/work/CARBON/AIRSS/Generating-Clusters/REBO/Higher-Symm/Only-C60
REM
REM
REM
REM
REM
REM ./C.cell (a2850807a9bf4ad07a5b6933b78d9264)
REM AIRSS Version 0.9.1 bugfix July 2018 build 013d7b7c2542+ Fri, 06 Jul 2018 19:26:36 +0100
REM compiler GCC version 9.2.1 20190827 (Red Hat 9.2.1-1)
REM options -cpp -mtune=generic -march=x86-64 -g -O0 -fpre-include=/usr/include/finclude/math-vector-fortran.h
REM seed 1312721513 -152480075 1715865424 933601796 -363183939 1466420170 -1188591767 1853612809 -171707707 1188737226 2142451668 999072674 1010631394 -1319599607 940235640 1948534000 233017572 -852578433 -98371371 -1534121978 133752571 670303622 -374417294 -68197254 -933238022 -1564888549 555967647 -1135939509 -323344681 774035337 766612793 1692909532 1485155577
REM
CELL 1.54180   15.00000   15.00000   15.00000   90.00000   90.00000   90.00000
LATT -1
SFAC C  
C      1  0.3614970000000  0.5672360000000  0.5522620000000 1.0
C      1  0.6384810000000  0.5671880000000  0.4476650000000 1.0
C      1  0.5940920000000  0.3093430000000  0.6690820000000 1.0
C      1  0.4059020000000  0.3093940000000  0.3308580000000 1.0
C      1  0.7329660000000  0.5591400000000  0.4260480000000 1.0
C      1  0.2670060000000  0.5591110000000  0.5739270000000 1.0
C      1  0.5444900000000  0.7192210000000  0.3591400000000 1.0
C      1  0.4555210000000  0.7191390000000  0.6408240000000 1.0
C      1  0.5354020000000  0.7515450000000  0.4679200000000 1.0
C      1  0.4645880000000  0.7515490000000  0.5320620000000 1.0
C      1  0.6437330000000  0.6356600000000  0.5610750000000 1.0
C      1  0.3562870000000  0.6356270000000  0.4389080000000 1.0
C      1  0.3473860000000  0.4401650000000  0.5890470000000 1.0
C      1  0.6526720000000  0.4401770000000  0.4109700000000 1.0
C      1  0.5624990000000  0.5034770000000  0.3922910000000 1.0
C      1  0.4375130000000  0.5034670000000  0.6077560000000 1.0
C      1  0.3041250000000  0.5150790000000  0.6602250000000 1.0
C      1  0.6958510000000  0.5150580000000  0.3398310000000 1.0
C      1  0.4815200000000  0.4439320000000  0.3857750000000 1.0
C      1  0.5185390000000  0.4438100000000  0.6143030000000 1.0
C      1  0.3736770000000  0.5599620000000  0.7102020000000 1.0
C      1  0.6263100000000  0.5599720000000  0.2898220000000 1.0
C      1  0.3585060000000  0.4979860000000  0.3240910000000 1.0
C      1  0.6414540000000  0.4979910000000  0.6759070000000 1.0
C      1  0.3692140000000  0.3583850000000  0.4815460000000 1.0
C      1  0.6307580000000  0.3584400000000  0.5184520000000 1.0
C      1  0.7427980000000  0.3611450000000  0.5378250000000 1.0
C      1  0.2572170000000  0.3611420000000  0.4621900000000 1.0
C      1  0.5801190000000  0.5620550000000  0.6142800000000 1.0
C      1  0.4199620000000  0.5620800000000  0.3857290000000 1.0
C      1  0.4096810000000  0.6604760000000  0.5307110000000 1.0
C      1  0.5903200000000  0.6605010000000  0.4692560000000 1.0
C      1  0.4128020000000  0.4790120000000  0.2277680000000 1.0
C      1  0.5871900000000  0.4789890000000  0.7722680000000 1.0
C      1  0.4195870000000  0.3537250000000  0.6047490000000 1.0
C      1  0.5803800000000  0.3537320000000  0.3952370000000 1.0
C      1  0.6780500000000  0.5272720000000  0.5722020000000 1.0
C      1  0.3219960000000  0.5273030000000  0.4277870000000 1.0
C      1  0.4781240000000  0.2946710000000  0.5530590000000 1.0
C      1  0.5218880000000  0.2946690000000  0.4468960000000 1.0
C      1  0.5052190000000  0.5047230000000  0.8004160000000 1.0
C      1  0.4947700000000  0.5047280000000  0.1995860000000 1.0
C      1  0.4244110000000  0.2937920000000  0.4199230000000 1.0
C      1  0.5755700000000  0.2939150000000  0.5801270000000 1.0
C      1  0.6935330000000  0.4526730000000  0.5088650000000 1.0
C      1  0.3064620000000  0.4526870000000  0.4911210000000 1.0
C      1  0.5698910000000  0.4889130000000  0.2554240000000 1.0
C      1  0.4301040000000  0.4889420000000  0.7445670000000 1.0
C      1  0.5954110000000  0.6496330000000  0.3130550000000 1.0
C      1  0.4044750000000  0.6497100000000  0.6870870000000 1.0
C      1  0.4208940000000  0.4048780000000  0.6956970000000 1.0
C      1  0.5790680000000  0.4048800000000  0.3043310000000 1.0
C      1  0.4830680000000  0.5991010000000  0.5916480000000 1.0
C      1  0.5169430000000  0.5990680000000  0.4082550000000 1.0
C      1  0.5376600000000  0.4110340000000  0.5287940000000 1.0
C      1  0.4623700000000  0.4111020000000  0.4711540000000 1.0
C      1  0.5541210000000  0.6890370000000  0.6062510000000 1.0
C      1  0.4459310000000  0.6889590000000  0.3937130000000 1.0
C      1  0.4179670000000  0.4067110000000  0.3088580000000 1.0
C      1  0.5820270000000  0.4066860000000  0.6911810000000 1.0
END
