TITL C-3036479-9801-367 9.74147930029116e-07 3375 -349.861698335514 0 0 60 (Td) n - 1
REM
REM in /home/bkarasulu/work/CARBON/AIRSS/Generating-Clusters/REBO/Higher-Symm/Only-C60
REM
REM
REM
REM
REM
REM ./C.cell (a2850807a9bf4ad07a5b6933b78d9264)
REM AIRSS Version 0.9.1 bugfix July 2018 build 013d7b7c2542+ Fri, 06 Jul 2018 19:26:36 +0100
REM compiler GCC version 9.2.1 20190827 (Red Hat 9.2.1-1)
REM options -cpp -mtune=generic -march=x86-64 -g -O0 -fpre-include=/usr/include/finclude/math-vector-fortran.h
REM seed -1255918634 -1259021279 -1678233378 -799496542 -820497448 -1119342179 -420825879 741126880 1420923283 1530298332 -1560883480 -2016704375 1903218351 2124301388 259639856 -747556502 280111206 1400836613 -584979869 1031045205 233736983 1260354667 239435733 -247543981 -1625826071 -834223220 -65733606 1406731331 1579013844 -706300284 -1560908740 186407342 -1904062525
REM
CELL 1.54180   15.00000   15.00000   15.00000   90.00000   90.00000   90.00000
LATT -1
SFAC C  
C      1  0.4968530000000  0.4224870000000  0.6493870000000 1.0
C      1  0.6493870000000  0.4968530000000  0.4224870000000 1.0
C      1  0.4224870000000  0.6493870000000  0.4968530000000 1.0
C      1  0.5031470000000  0.4224870000000  0.3506130000000 1.0
C      1  0.4968530000000  0.5775130000000  0.3506130000000 1.0
C      1  0.5031470000000  0.5775130000000  0.6493870000000 1.0
C      1  0.3506130000000  0.4968530000000  0.5775130000000 1.0
C      1  0.6493870000000  0.5031470000000  0.5775130000000 1.0
C      1  0.3506130000000  0.5031470000000  0.4224870000000 1.0
C      1  0.5775130000000  0.6493870000000  0.5031470000000 1.0
C      1  0.4224870000000  0.3506130000000  0.5031470000000 1.0
C      1  0.5775130000000  0.3506130000000  0.4968530000000 1.0
C      1  0.6493870000000  0.4224870000000  0.4968530000000 1.0
C      1  0.4224870000000  0.4968530000000  0.6493870000000 1.0
C      1  0.4968530000000  0.6493870000000  0.4224870000000 1.0
C      1  0.3506130000000  0.4224870000000  0.5031470000000 1.0
C      1  0.3506130000000  0.5775130000000  0.4968530000000 1.0
C      1  0.6493870000000  0.5775130000000  0.5031470000000 1.0
C      1  0.5775130000000  0.4968530000000  0.3506130000000 1.0
C      1  0.5775130000000  0.5031470000000  0.6493870000000 1.0
C      1  0.4224870000000  0.5031470000000  0.3506130000000 1.0
C      1  0.5031470000000  0.6493870000000  0.5775130000000 1.0
C      1  0.5031470000000  0.3506130000000  0.4224870000000 1.0
C      1  0.4968530000000  0.3506130000000  0.5775130000000 1.0
C      1  0.4491390000000  0.2665040000000  0.3787370000000 1.0
C      1  0.3787370000000  0.4491390000000  0.2665040000000 1.0
C      1  0.2665040000000  0.3787370000000  0.4491390000000 1.0
C      1  0.5508610000000  0.2665040000000  0.6212630000000 1.0
C      1  0.4491390000000  0.7334960000000  0.6212630000000 1.0
C      1  0.5508610000000  0.7334960000000  0.3787370000000 1.0
C      1  0.6212630000000  0.4491390000000  0.7334960000000 1.0
C      1  0.3787370000000  0.5508610000000  0.7334960000000 1.0
C      1  0.6212630000000  0.5508610000000  0.2665040000000 1.0
C      1  0.7334960000000  0.3787370000000  0.5508610000000 1.0
C      1  0.2665040000000  0.6212630000000  0.5508610000000 1.0
C      1  0.7334960000000  0.6212630000000  0.4491390000000 1.0
C      1  0.3787370000000  0.2665040000000  0.4491390000000 1.0
C      1  0.2665040000000  0.4491390000000  0.3787370000000 1.0
C      1  0.4491390000000  0.3787370000000  0.2665040000000 1.0
C      1  0.6212630000000  0.2665040000000  0.5508610000000 1.0
C      1  0.6212630000000  0.7334960000000  0.4491390000000 1.0
C      1  0.3787370000000  0.7334960000000  0.5508610000000 1.0
C      1  0.7334960000000  0.4491390000000  0.6212630000000 1.0
C      1  0.7334960000000  0.5508610000000  0.3787370000000 1.0
C      1  0.2665040000000  0.5508610000000  0.6212630000000 1.0
C      1  0.5508610000000  0.3787370000000  0.7334960000000 1.0
C      1  0.5508610000000  0.6212630000000  0.2665040000000 1.0
C      1  0.4491390000000  0.6212630000000  0.7334960000000 1.0
C      1  0.2854680000000  0.4373160000000  0.2854680000000 1.0
C      1  0.5626840000000  0.7145320000000  0.2854680000000 1.0
C      1  0.7145320000000  0.4373160000000  0.7145320000000 1.0
C      1  0.2854680000000  0.5626840000000  0.7145320000000 1.0
C      1  0.7145320000000  0.5626840000000  0.2854680000000 1.0
C      1  0.7145320000000  0.2854680000000  0.5626840000000 1.0
C      1  0.2854680000000  0.7145320000000  0.5626840000000 1.0
C      1  0.2854680000000  0.2854680000000  0.4373160000000 1.0
C      1  0.7145320000000  0.7145320000000  0.4373160000000 1.0
C      1  0.5626840000000  0.2854680000000  0.7145320000000 1.0
C      1  0.4373160000000  0.7145320000000  0.7145320000000 1.0
C      1  0.4373160000000  0.2854680000000  0.2854680000000 1.0
END
