TITL C-3036485-3770-1157 1.08189844448152e-05 3375 -342.84772967084 0 0 60 (C2) n - 1
REM
REM in /home/bkarasulu/work/CARBON/AIRSS/Generating-Clusters/REBO/Higher-Symm/Only-C60
REM
REM
REM
REM
REM
REM ./C.cell (a2850807a9bf4ad07a5b6933b78d9264)
REM AIRSS Version 0.9.1 bugfix July 2018 build 013d7b7c2542+ Fri, 06 Jul 2018 19:26:36 +0100
REM compiler GCC version 9.2.1 20190827 (Red Hat 9.2.1-1)
REM options -cpp -mtune=generic -march=x86-64 -g -O0 -fpre-include=/usr/include/finclude/math-vector-fortran.h
REM seed 1206639322 -1932784592 -1122278222 -1980749616 -1731873780 1172256998 -1556779033 -270409250 1719047324 61224779 27757877 1192641464 -1542730079 -1160212225 -204273848 -1316236156 1842721520 -1805123137 624058063 -1705407212 1637931915 -1844754842 -157961651 -124971062 845377921 -53193996 -450449587 -729991824 -173764443 357406052 1259952967 219812847 1621136205
REM
CELL 1.54180   15.00000   15.00000   15.00000   90.00000   90.00000   90.00000
LATT -1
SFAC C  
C      1  0.7238040000000  0.4757500000000  0.4730010000000 1.0
C      1  0.4667200000000  0.2851070000000  0.5289220000000 1.0
C      1  0.2761950000000  0.5242510000000  0.4730040000000 1.0
C      1  0.5332810000000  0.7148930000000  0.5289250000000 1.0
C      1  0.2957530000000  0.3007400000000  0.4387030000000 1.0
C      1  0.3064160000000  0.6852740000000  0.5581200000000 1.0
C      1  0.7042460000000  0.6992610000000  0.4387040000000 1.0
C      1  0.6935850000000  0.3147250000000  0.5581150000000 1.0
C      1  0.2778600000000  0.3941620000000  0.3903200000000 1.0
C      1  0.3964270000000  0.7044340000000  0.6107600000000 1.0
C      1  0.7221390000000  0.6058400000000  0.3903190000000 1.0
C      1  0.6035740000000  0.2955640000000  0.6107560000000 1.0
C      1  0.4138370000000  0.4116890000000  0.4214810000000 1.0
C      1  0.4204480000000  0.5751990000000  0.5824190000000 1.0
C      1  0.5861620000000  0.5883120000000  0.4214810000000 1.0
C      1  0.5795530000000  0.4248000000000  0.5824170000000 1.0
C      1  0.5941270000000  0.3466840000000  0.6893140000000 1.0
C      1  0.3331780000000  0.4086650000000  0.3154490000000 1.0
C      1  0.4058760000000  0.6533130000000  0.6893180000000 1.0
C      1  0.6668200000000  0.5913380000000  0.3154480000000 1.0
C      1  0.2736990000000  0.4152150000000  0.5022280000000 1.0
C      1  0.4240410000000  0.7067600000000  0.5002610000000 1.0
C      1  0.7263010000000  0.5847850000000  0.5022270000000 1.0
C      1  0.5759590000000  0.2932400000000  0.5002570000000 1.0
C      1  0.4147650000000  0.4138980000000  0.6661870000000 1.0
C      1  0.4262230000000  0.5739820000000  0.3309950000000 1.0
C      1  0.5852370000000  0.5860990000000  0.6661880000000 1.0
C      1  0.5737750000000  0.4260210000000  0.3309930000000 1.0
C      1  0.4706030000000  0.4166830000000  0.5080580000000 1.0
C      1  0.4371490000000  0.5213160000000  0.4925060000000 1.0
C      1  0.5293970000000  0.5833170000000  0.5080590000000 1.0
C      1  0.5628510000000  0.4786840000000  0.4925050000000 1.0
C      1  0.3272900000000  0.5922490000000  0.5915790000000 1.0
C      1  0.6132650000000  0.6818160000000  0.3992250000000 1.0
C      1  0.6727110000000  0.4077500000000  0.5915750000000 1.0
C      1  0.3867340000000  0.3181850000000  0.3992230000000 1.0
C      1  0.4982820000000  0.6350240000000  0.3330610000000 1.0
C      1  0.6462110000000  0.5138260000000  0.6673770000000 1.0
C      1  0.5017160000000  0.3649790000000  0.3330590000000 1.0
C      1  0.3537910000000  0.4861720000000  0.6673790000000 1.0
C      1  0.5981430000000  0.4922670000000  0.3912740000000 1.0
C      1  0.4862400000000  0.3913730000000  0.6106910000000 1.0
C      1  0.4018560000000  0.5077350000000  0.3912750000000 1.0
C      1  0.5137610000000  0.6086260000000  0.6106930000000 1.0
C      1  0.3819440000000  0.5668940000000  0.7102030000000 1.0
C      1  0.5806510000000  0.6120420000000  0.2905690000000 1.0
C      1  0.6180580000000  0.4331030000000  0.7102010000000 1.0
C      1  0.4193470000000  0.3879620000000  0.2905690000000 1.0
C      1  0.2817950000000  0.4945690000000  0.5827570000000 1.0
C      1  0.5043490000000  0.6965900000000  0.4207880000000 1.0
C      1  0.7182060000000  0.5054290000000  0.5827550000000 1.0
C      1  0.4956510000000  0.3034110000000  0.4207860000000 1.0
C      1  0.3034680000000  0.3150850000000  0.5391240000000 1.0
C      1  0.3234010000000  0.6806030000000  0.4582000000000 1.0
C      1  0.6965330000000  0.6849140000000  0.5391250000000 1.0
C      1  0.6765980000000  0.3193970000000  0.4581960000000 1.0
C      1  0.2927850000000  0.5974410000000  0.4254420000000 1.0
C      1  0.6111100000000  0.7090060000000  0.5709980000000 1.0
C      1  0.7072140000000  0.4025600000000  0.4254380000000 1.0
C      1  0.3888900000000  0.2909930000000  0.5709970000000 1.0
END
