TITL C-3036481-494-392 0.0240960967900784 3375 -360.378239233634 0 0 60 (C3) n - 1
REM
REM in /home/bkarasulu/work/CARBON/AIRSS/Generating-Clusters/REBO/Higher-Symm/Only-C60
REM
REM
REM
REM
REM
REM ./C.cell (a2850807a9bf4ad07a5b6933b78d9264)
REM AIRSS Version 0.9.1 bugfix July 2018 build 013d7b7c2542+ Fri, 06 Jul 2018 19:26:36 +0100
REM compiler GCC version 9.2.1 20190827 (Red Hat 9.2.1-1)
REM options -cpp -mtune=generic -march=x86-64 -g -O0 -fpre-include=/usr/include/finclude/math-vector-fortran.h
REM seed 47031599 -632077282 -611424583 383434293 5855243 -1538821389 1487485285 320937973 -1861222512 126379920 347152876 993828696 201535710 899797418 2040854457 2071396684 -837615614 443227701 -500704471 -611194164 45676784 928286815 -739891156 -1492902660 1879599696 -523972238 1537585511 -527038399 -284354434 -543740495 4531332 236609979 282602744
REM
CELL 1.54180   15.00000   15.00000   15.00000   90.00000   90.00000   90.00000
LATT -1
SFAC C  
C      1  0.5024580000000  0.6332810000000  0.6772850000000 1.0
C      1  0.6142160000000  0.4311840000000  0.6772570000000 1.0
C      1  0.3833590000000  0.4354680000000  0.6772510000000 1.0
C      1  0.6208340000000  0.3380300000000  0.6457060000000 1.0
C      1  0.2993490000000  0.4762580000000  0.6457260000000 1.0
C      1  0.5798110000000  0.6856000000000  0.6457350000000 1.0
C      1  0.1418650000000  0.4011020000000  0.6918350000000 1.0
C      1  0.5933200000000  0.8596020000000  0.6917380000000 1.0
C      1  0.7648330000000  0.2393860000000  0.6916260000000 1.0
C      1  0.6284140000000  0.4934450000000  0.6061540000000 1.0
C      1  0.4301950000000  0.3921080000000  0.6061310000000 1.0
C      1  0.4414610000000  0.6144040000000  0.6061750000000 1.0
C      1  0.4422480000000  0.4741580000000  0.7419590000000 1.0
C      1  0.5065350000000  0.5629270000000  0.7419890000000 1.0
C      1  0.5512660000000  0.4628660000000  0.7419530000000 1.0
C      1  0.3102580000000  0.5973690000000  0.4187990000000 1.0
C      1  0.6791410000000  0.6156390000000  0.4187850000000 1.0
C      1  0.5105570000000  0.2870370000000  0.4187800000000 1.0
C      1  0.3641670000000  0.3455030000000  0.4503260000000 1.0
C      1  0.4340510000000  0.6949000000000  0.4503830000000 1.0
C      1  0.7017750000000  0.4596310000000  0.4503130000000 1.0
C      1  0.5120790000000  0.3065040000000  0.3213400000000 1.0
C      1  0.3264410000000  0.5863450000000  0.3213430000000 1.0
C      1  0.6614870000000  0.6071900000000  0.3213250000000 1.0
C      1  0.4352040000000  0.2901600000000  0.4797230000000 1.0
C      1  0.3506220000000  0.6610380000000  0.4797910000000 1.0
C      1  0.7141580000000  0.5488410000000  0.4797400000000 1.0
C      1  0.4686880000000  0.3100080000000  0.5717350000000 1.0
C      1  0.3510980000000  0.6220620000000  0.5717860000000 1.0
C      1  0.6802240000000  0.5678780000000  0.5717550000000 1.0
C      1  0.4971430000000  0.7314640000000  0.3865260000000 1.0
C      1  0.7018580000000  0.3867140000000  0.3864740000000 1.0
C      1  0.3008940000000  0.3819580000000  0.3865520000000 1.0
C      1  0.3915110000000  0.4480200000000  0.4585450000000 1.0
C      1  0.5092030000000  0.6200030000000  0.4585650000000 1.0
C      1  0.5993310000000  0.4320240000000  0.4585450000000 1.0
C      1  0.6296570000000  0.6528260000000  0.5691550000000 1.0
C      1  0.5675330000000  0.3112700000000  0.5691200000000 1.0
C      1  0.3027960000000  0.5358020000000  0.5691390000000 1.0
C      1  0.5785850000000  0.6693240000000  0.3498240000000 1.0
C      1  0.6073110000000  0.3472720000000  0.3498010000000 1.0
C      1  0.3140900000000  0.4834830000000  0.3498150000000 1.0
C      1  0.5919180000000  0.3285540000000  0.4690940000000 1.0
C      1  0.3055890000000  0.5061310000000  0.4690690000000 1.0
C      1  0.6025160000000  0.6653140000000  0.4691350000000 1.0
C      1  0.5587020000000  0.4775900000000  0.5367050000000 1.0
C      1  0.4512910000000  0.4604150000000  0.5366960000000 1.0
C      1  0.4901010000000  0.5620120000000  0.5367270000000 1.0
C      1  0.4436050000000  0.4717790000000  0.3766620000000 1.0
C      1  0.5037350000000  0.5629540000000  0.3766860000000 1.0
C      1  0.5526530000000  0.4652800000000  0.3766860000000 1.0
C      1  0.6213850000000  0.4489180000000  0.3004670000000 1.0
C      1  0.3950180000000  0.4203170000000  0.3005130000000 1.0
C      1  0.4835650000000  0.6306860000000  0.3004660000000 1.0
C      1  0.6641870000000  0.5247170000000  0.2758400000000 1.0
C      1  0.4391700000000  0.3453700000000  0.2759240000000 1.0
C      1  0.3965130000000  0.6299510000000  0.2758540000000 1.0
C      1  0.6933640000000  0.2857620000000  0.6722540000000 1.0
C      1  0.2178350000000  0.4396320000000  0.6723960000000 1.0
C      1  0.5888260000000  0.7745340000000  0.6723210000000 1.0
END
