TITL C-3036486-2224-1161 0.0408047993684963 3375 -355.088131060182 0 0 60 (C6h) n - 1
REM
REM in /home/bkarasulu/work/CARBON/AIRSS/Generating-Clusters/REBO/Higher-Symm/Only-C60
REM
REM
REM
REM
REM
REM ./C.cell (a2850807a9bf4ad07a5b6933b78d9264)
REM AIRSS Version 0.9.1 bugfix July 2018 build 013d7b7c2542+ Fri, 06 Jul 2018 19:26:36 +0100
REM compiler GCC version 9.2.1 20190827 (Red Hat 9.2.1-1)
REM options -cpp -mtune=generic -march=x86-64 -g -O0 -fpre-include=/usr/include/finclude/math-vector-fortran.h
REM seed 1491852460 960126634 -833882382 -1509943783 -1534198795 -1814328384 2084422385 -1568649779 -1055732352 374190224 -1962203942 997143406 -1112631392 1734279341 929769806 -1413909286 -783258506 -840510711 348165719 899554399 1833167616 810782762 -2091022446 941698251 1884846221 -180782841 -322765565 1409073464 -127415035 1973722577 1005962839 -1659093919 -1178059696
REM
CELL 1.54180   15.00000   15.00000   15.00000   90.00000   90.00000   90.00000
LATT -1
SFAC C  
C      1  0.4166200000000  0.4518170000000  0.6862390000000 1.0
C      1  0.5833690000000  0.4518800000000  0.6862290000000 1.0
C      1  0.4999430000000  0.5963470000000  0.6863340000000 1.0
C      1  0.4166200000000  0.4518170000000  0.3137610000000 1.0
C      1  0.5833690000000  0.4518800000000  0.3137710000000 1.0
C      1  0.4999430000000  0.5963470000000  0.3136660000000 1.0
C      1  0.4166200000000  0.5481830000000  0.6862390000000 1.0
C      1  0.5833690000000  0.5481200000000  0.6862290000000 1.0
C      1  0.4999430000000  0.4036530000000  0.6863340000000 1.0
C      1  0.4166200000000  0.5481830000000  0.3137610000000 1.0
C      1  0.5833690000000  0.5481200000000  0.3137710000000 1.0
C      1  0.4999430000000  0.4036530000000  0.3136660000000 1.0
C      1  0.4285630000000  0.2756110000000  0.5513740000000 1.0
C      1  0.7292900000000  0.5505900000000  0.5513040000000 1.0
C      1  0.3410700000000  0.6735920000000  0.5513350000000 1.0
C      1  0.4285630000000  0.2756110000000  0.4486260000000 1.0
C      1  0.7292900000000  0.5505900000000  0.4486960000000 1.0
C      1  0.3410700000000  0.6735920000000  0.4486650000000 1.0
C      1  0.4285630000000  0.7243890000000  0.5513740000000 1.0
C      1  0.7292900000000  0.4494100000000  0.5513040000000 1.0
C      1  0.3410700000000  0.3264080000000  0.5513350000000 1.0
C      1  0.4285630000000  0.7243890000000  0.4486260000000 1.0
C      1  0.7292900000000  0.4494100000000  0.4486960000000 1.0
C      1  0.3410700000000  0.3264080000000  0.4486650000000 1.0
C      1  0.6629820000000  0.4043060000000  0.3779340000000 1.0
C      1  0.5013160000000  0.6889530000000  0.3788620000000 1.0
C      1  0.3357290000000  0.4066820000000  0.3782290000000 1.0
C      1  0.6629820000000  0.4043060000000  0.6220660000000 1.0
C      1  0.5013160000000  0.6889530000000  0.6211380000000 1.0
C      1  0.3357290000000  0.4066820000000  0.6217710000000 1.0
C      1  0.6629820000000  0.5956940000000  0.3779340000000 1.0
C      1  0.5013160000000  0.3110470000000  0.3788620000000 1.0
C      1  0.3357290000000  0.5933180000000  0.3782290000000 1.0
C      1  0.6629820000000  0.5956940000000  0.6220660000000 1.0
C      1  0.5013160000000  0.3110470000000  0.6211380000000 1.0
C      1  0.3357290000000  0.5933180000000  0.6217710000000 1.0
C      1  0.5736710000000  0.7288810000000  0.4480700000000 1.0
C      1  0.2653270000000  0.4491110000000  0.4481100000000 1.0
C      1  0.6616850000000  0.3222470000000  0.4480750000000 1.0
C      1  0.5736710000000  0.7288810000000  0.5519300000000 1.0
C      1  0.2653270000000  0.4491120000000  0.5518900000000 1.0
C      1  0.6616850000000  0.3222470000000  0.5519250000000 1.0
C      1  0.5736710000000  0.2711190000000  0.4480700000000 1.0
C      1  0.2653270000000  0.5508880000000  0.4481100000000 1.0
C      1  0.6616850000000  0.6777530000000  0.4480750000000 1.0
C      1  0.5736710000000  0.2711190000000  0.5519300000000 1.0
C      1  0.2653270000000  0.5508890000000  0.5518900000000 1.0
C      1  0.6616850000000  0.6777530000000  0.5519250000000 1.0
C      1  0.5000860000000  0.6043370000000  0.5536220000000 1.0
C      1  0.4092840000000  0.4476220000000  0.5537100000000 1.0
C      1  0.5910650000000  0.4476980000000  0.5537900000000 1.0
C      1  0.5000860000000  0.6043370000000  0.4463780000000 1.0
C      1  0.4092840000000  0.4476220000000  0.4462900000000 1.0
C      1  0.5910650000000  0.4476980000000  0.4462100000000 1.0
C      1  0.5000860000000  0.3956630000000  0.5536220000000 1.0
C      1  0.4092840000000  0.5523780000000  0.5537100000000 1.0
C      1  0.5910650000000  0.5523020000000  0.5537900000000 1.0
C      1  0.5000860000000  0.3956630000000  0.4463780000000 1.0
C      1  0.4092840000000  0.5523780000000  0.4462900000000 1.0
C      1  0.5910650000000  0.5523020000000  0.4462100000000 1.0
END
