TITL C-3036485-3770-1003 -1.54505788568386e-05 3375 -351.846308763814 0 0 60 (Ci) n - 1
REM
REM in /home/bkarasulu/work/CARBON/AIRSS/Generating-Clusters/REBO/Higher-Symm/Only-C60
REM
REM
REM
REM
REM
REM ./C.cell (a2850807a9bf4ad07a5b6933b78d9264)
REM AIRSS Version 0.9.1 bugfix July 2018 build 013d7b7c2542+ Fri, 06 Jul 2018 19:26:36 +0100
REM compiler GCC version 9.2.1 20190827 (Red Hat 9.2.1-1)
REM options -cpp -mtune=generic -march=x86-64 -g -O0 -fpre-include=/usr/include/finclude/math-vector-fortran.h
REM seed 58593397 -849638717 -838317248 368371099 525466059 -650250103 -606287147 1485312765 1709088673 797646889 1248281348 1741872922 -1440510484 -165402052 1703361298 -1576574637 -2129478196 1118795553 2013760310 -1904149007 1726740577 727478176 592110468 -269535417 -807608328 -585685065 2584133 1012056262 1370585625 -392546158 1374690348 658050659 1082228922
REM
CELL 1.54180   15.00000   15.00000   15.00000   90.00000   90.00000   90.00000
LATT -1
SFAC C  
C      1  0.3694870000000  0.5855650000000  0.7092280000000 1.0
C      1  0.3730170000000  0.3738450000000  0.6763710000000 1.0
C      1  0.3789550000000  0.3022040000000  0.4752490000000 1.0
C      1  0.3685110000000  0.4038760000000  0.2870910000000 1.0
C      1  0.3956780000000  0.6024090000000  0.3474480000000 1.0
C      1  0.3914120000000  0.7050360000000  0.5312220000000 1.0
C      1  0.6311030000000  0.5961620000000  0.7127900000000 1.0
C      1  0.6063950000000  0.3964580000000  0.6530780000000 1.0
C      1  0.6080690000000  0.2943880000000  0.4682550000000 1.0
C      1  0.6298360000000  0.4147990000000  0.2908470000000 1.0
C      1  0.6255840000000  0.6263460000000  0.3237840000000 1.0
C      1  0.6219000000000  0.6982070000000  0.5246940000000 1.0
C      1  0.6442810000000  0.6808250000000  0.4141370000000 1.0
C      1  0.6396290000000  0.6596770000000  0.6195850000000 1.0
C      1  0.6360030000000  0.4971870000000  0.6957830000000 1.0
C      1  0.6262830000000  0.3282860000000  0.5748730000000 1.0
C      1  0.6366320000000  0.3514760000000  0.3838280000000 1.0
C      1  0.6390010000000  0.5141530000000  0.3073520000000 1.0
C      1  0.3738920000000  0.6715860000000  0.4243000000000 1.0
C      1  0.3627200000000  0.6487440000000  0.6162140000000 1.0
C      1  0.3601640000000  0.4862710000000  0.6925660000000 1.0
C      1  0.3557330000000  0.3193750000000  0.5856740000000 1.0
C      1  0.3603310000000  0.3400890000000  0.3804080000000 1.0
C      1  0.3639080000000  0.5030950000000  0.3036860000000 1.0
C      1  0.4441820000000  0.3811950000000  0.5067550000000 1.0
C      1  0.4496990000000  0.4583660000000  0.4354590000000 1.0
C      1  0.4567910000000  0.5648320000000  0.4250510000000 1.0
C      1  0.4469600000000  0.6101620000000  0.5209130000000 1.0
C      1  0.4499030000000  0.5277980000000  0.5947220000000 1.0
C      1  0.4368120000000  0.4232920000000  0.6036900000000 1.0
C      1  0.5535060000000  0.3897790000000  0.4802270000000 1.0
C      1  0.5505000000000  0.4720910000000  0.4064470000000 1.0
C      1  0.5633410000000  0.5766040000000  0.3974530000000 1.0
C      1  0.5563770000000  0.6188570000000  0.4944520000000 1.0
C      1  0.5507050000000  0.5417080000000  0.5660030000000 1.0
C      1  0.5437280000000  0.4351190000000  0.5762850000000 1.0
C      1  0.3293230000000  0.5801890000000  0.4608940000000 1.0
C      1  0.3237810000000  0.5710340000000  0.5535160000000 1.0
C      1  0.3200680000000  0.4864450000000  0.5930590000000 1.0
C      1  0.3182950000000  0.4101540000000  0.5389680000000 1.0
C      1  0.3227150000000  0.4193500000000  0.4459440000000 1.0
C      1  0.3272320000000  0.5048280000000  0.4066090000000 1.0
C      1  0.6818850000000  0.5899490000000  0.4607070000000 1.0
C      1  0.6775050000000  0.5806900000000  0.5537620000000 1.0
C      1  0.6726430000000  0.4950560000000  0.5930280000000 1.0
C      1  0.6706860000000  0.4197980000000  0.5386720000000 1.0
C      1  0.6762230000000  0.4290590000000  0.4460610000000 1.0
C      1  0.6802580000000  0.5136090000000  0.4065040000000 1.0
C      1  0.4556600000000  0.3524360000000  0.3199260000000 1.0
C      1  0.4542840000000  0.5602240000000  0.2646110000000 1.0
C      1  0.4589250000000  0.7424900000000  0.4485320000000 1.0
C      1  0.4559420000000  0.6415510000000  0.6803690000000 1.0
C      1  0.4499390000000  0.4320440000000  0.7360590000000 1.0
C      1  0.4455390000000  0.2570640000000  0.5551770000000 1.0
C      1  0.5436470000000  0.3584180000000  0.3193170000000 1.0
C      1  0.5498480000000  0.5683580000000  0.2623520000000 1.0
C      1  0.5543990000000  0.7427010000000  0.4452480000000 1.0
C      1  0.5439470000000  0.6474100000000  0.6795790000000 1.0
C      1  0.5451420000000  0.4400660000000  0.7335410000000 1.0
C      1  0.5410820000000  0.2572160000000  0.5516450000000 1.0
END
