TITL C-3036484-3770-237 -2.59691403377645e-06 3375 -376.269535841978 0 0 60 (C5) n - 1
REM
REM in /home/bkarasulu/work/CARBON/AIRSS/Generating-Clusters/REBO/Higher-Symm/Only-C60
REM
REM
REM
REM
REM
REM ./C.cell (a2850807a9bf4ad07a5b6933b78d9264)
REM AIRSS Version 0.9.1 bugfix July 2018 build 013d7b7c2542+ Fri, 06 Jul 2018 19:26:36 +0100
REM compiler GCC version 9.2.1 20190827 (Red Hat 9.2.1-1)
REM options -cpp -mtune=generic -march=x86-64 -g -O0 -fpre-include=/usr/include/finclude/math-vector-fortran.h
REM seed 980584601 -479643129 403675718 766738804 1681237073 1758462817 -725006693 -399482472 -736834925 1074893440 1715692764 -2069781201 161812330 -1718539259 -1565679321 -1631944367 -1125405950 -1202708142 1849727280 1808280833 578042884 -1799976180 144369880 -1857687821 282196307 1957125885 1533681461 -1015346693 -750956872 930445139 217006087 1250701308 -1773278636
REM
CELL 1.54180   15.00000   15.00000   15.00000   90.00000   90.00000   90.00000
LATT -1
SFAC C  
C      1  0.3923810000000  0.7011080000000  0.4849010000000 1.0
C      1  0.3923810000000  0.5477860000000  0.3040690000000 1.0
C      1  0.3923810000000  0.3284250000000  0.3940070000000 1.0
C      1  0.3923810000000  0.3461760000000  0.6304240000000 1.0
C      1  0.3923810000000  0.5765060000000  0.6865990000000 1.0
C      1  0.6076190000000  0.7011080000000  0.4849010000000 1.0
C      1  0.6076190000000  0.5477860000000  0.3040690000000 1.0
C      1  0.6076190000000  0.3284250000000  0.3940070000000 1.0
C      1  0.6076190000000  0.3461760000000  0.6304240000000 1.0
C      1  0.6076190000000  0.5765060000000  0.6865990000000 1.0
C      1  0.5821820000000  0.4987030000000  0.5814400000000 1.0
C      1  0.5821820000000  0.5770530000000  0.5264000000000 1.0
C      1  0.5821820000000  0.5489180000000  0.4348760000000 1.0
C      1  0.5821820000000  0.4531800000000  0.4333520000000 1.0
C      1  0.5821820000000  0.4221450000000  0.5239330000000 1.0
C      1  0.4178180000000  0.4987030000000  0.5814400000000 1.0
C      1  0.4178180000000  0.5770530000000  0.5264000000000 1.0
C      1  0.4178180000000  0.5489180000000  0.4348760000000 1.0
C      1  0.4178180000000  0.4531800000000  0.4333520000000 1.0
C      1  0.4178180000000  0.4221450000000  0.5239330000000 1.0
C      1  0.4471580000000  0.4894910000000  0.6860950000000 1.0
C      1  0.4471580000000  0.6737390000000  0.5675010000000 1.0
C      1  0.4471580000000  0.6178860000000  0.3556230000000 1.0
C      1  0.4471580000000  0.3991180000000  0.3432690000000 1.0
C      1  0.4471580000000  0.3197660000000  0.5475120000000 1.0
C      1  0.5528420000000  0.4894910000000  0.6860950000000 1.0
C      1  0.5528420000000  0.6737390000000  0.5675010000000 1.0
C      1  0.5528420000000  0.6178860000000  0.3556230000000 1.0
C      1  0.5528420000000  0.3991180000000  0.3432690000000 1.0
C      1  0.5528420000000  0.3197660000000  0.5475120000000 1.0
C      1  0.5521740000000  0.4783040000000  0.2727330000000 1.0
C      1  0.5521740000000  0.2771520000000  0.4504050000000 1.0
C      1  0.5521740000000  0.3839690000000  0.6966160000000 1.0
C      1  0.5521740000000  0.6511370000000  0.6711100000000 1.0
C      1  0.5521740000000  0.7094390000000  0.4091360000000 1.0
C      1  0.4478260000000  0.4783040000000  0.2727330000000 1.0
C      1  0.4478260000000  0.2771520000000  0.4504050000000 1.0
C      1  0.4478260000000  0.3839690000000  0.6966160000000 1.0
C      1  0.4478260000000  0.6511370000000  0.6711100000000 1.0
C      1  0.4478260000000  0.7094390000000  0.4091360000000 1.0
C      1  0.7164400000000  0.6196260000000  0.5707130000000 1.0
C      1  0.7164400000000  0.6042190000000  0.4080800000000 1.0
C      1  0.7164400000000  0.4447850000000  0.3724770000000 1.0
C      1  0.7164400000000  0.3616560000000  0.5131060000000 1.0
C      1  0.7164400000000  0.4697140000000  0.6356230000000 1.0
C      1  0.2835600000000  0.6196260000000  0.5707130000000 1.0
C      1  0.2835600000000  0.6042190000000  0.4080800000000 1.0
C      1  0.2835600000000  0.4447850000000  0.3724770000000 1.0
C      1  0.2835600000000  0.3616560000000  0.5131060000000 1.0
C      1  0.2835600000000  0.4697140000000  0.6356230000000 1.0
C      1  0.3091560000000  0.3673990000000  0.4218610000000 1.0
C      1  0.3091560000000  0.3847100000000  0.6019650000000 1.0
C      1  0.3091560000000  0.5613480000000  0.6411560000000 1.0
C      1  0.3091560000000  0.6532050000000  0.4852750000000 1.0
C      1  0.3091560000000  0.5333380000000  0.3497430000000 1.0
C      1  0.6908440000000  0.3673990000000  0.4218610000000 1.0
C      1  0.6908440000000  0.3847100000000  0.6019650000000 1.0
C      1  0.6908440000000  0.5613480000000  0.6411560000000 1.0
C      1  0.6908440000000  0.6532050000000  0.4852750000000 1.0
C      1  0.6908440000000  0.5333380000000  0.3497430000000 1.0
END
