TITL C-3036484-3770-310 0.000606717830107251 3375 -345.484685881098 0 0 60 (C2) n - 1
REM
REM in /home/bkarasulu/work/CARBON/AIRSS/Generating-Clusters/REBO/Higher-Symm/Only-C60
REM
REM
REM
REM
REM
REM ./C.cell (a2850807a9bf4ad07a5b6933b78d9264)
REM AIRSS Version 0.9.1 bugfix July 2018 build 013d7b7c2542+ Fri, 06 Jul 2018 19:26:36 +0100
REM compiler GCC version 9.2.1 20190827 (Red Hat 9.2.1-1)
REM options -cpp -mtune=generic -march=x86-64 -g -O0 -fpre-include=/usr/include/finclude/math-vector-fortran.h
REM seed -1222178848 1314496772 -884511422 -962853149 -821899344 1868093998 -506920946 -951203557 1475223164 1952920459 -1690509652 -1511766351 -1496063596 1520725538 -74133352 1541062148 -264953125 -214898222 1266458579 314947740 -801709657 651709604 15938307 1812616018 -1419055881 -1888610632 -165467782 1695377477 154710964 -1208306346 1917048358 -995517798 1093518515
REM
CELL 1.54180   15.00000   15.00000   15.00000   90.00000   90.00000   90.00000
LATT -1
SFAC C  
C      1  0.4500120000000  0.5185100000000  0.7527440000000 1.0
C      1  0.4500270000000  0.4814680000000  0.2472580000000 1.0
C      1  0.4460730000000  0.3347830000000  0.3118300000000 1.0
C      1  0.4460590000000  0.6652010000000  0.6881880000000 1.0
C      1  0.4769510000000  0.7635440000000  0.4451850000000 1.0
C      1  0.4769520000000  0.2364500000000  0.5548090000000 1.0
C      1  0.4718850000000  0.2687820000000  0.4470540000000 1.0
C      1  0.4718870000000  0.7312170000000  0.5529390000000 1.0
C      1  0.5419190000000  0.6562790000000  0.5650770000000 1.0
C      1  0.5419100000000  0.3437310000000  0.4349140000000 1.0
C      1  0.5199070000000  0.5131430000000  0.3555600000000 1.0
C      1  0.5199030000000  0.4868680000000  0.6444560000000 1.0
C      1  0.3686970000000  0.5033980000000  0.6957530000000 1.0
C      1  0.3687120000000  0.4966060000000  0.3042500000000 1.0
C      1  0.5994040000000  0.6572050000000  0.4709100000000 1.0
C      1  0.5993990000000  0.3427960000000  0.5290890000000 1.0
C      1  0.6112570000000  0.5182730000000  0.5539480000000 1.0
C      1  0.6112540000000  0.4817240000000  0.4460570000000 1.0
C      1  0.3635760000000  0.6423200000000  0.4164280000000 1.0
C      1  0.3635820000000  0.3576860000000  0.5835760000000 1.0
C      1  0.4793950000000  0.6703950000000  0.3038130000000 1.0
C      1  0.4794050000000  0.3296040000000  0.6961830000000 1.0
C      1  0.3318760000000  0.3617380000000  0.4938450000000 1.0
C      1  0.3318680000000  0.6382780000000  0.5061620000000 1.0
C      1  0.5008740000000  0.4036980000000  0.2794170000000 1.0
C      1  0.5008600000000  0.5962800000000  0.7205860000000 1.0
C      1  0.7039690000000  0.6430410000000  0.4912130000000 1.0
C      1  0.7039670000000  0.3569640000000  0.5087840000000 1.0
C      1  0.5719960000000  0.7357860000000  0.4110230000000 1.0
C      1  0.5720010000000  0.2642020000000  0.5889740000000 1.0
C      1  0.3881140000000  0.6854760000000  0.5925100000000 1.0
C      1  0.3880970000000  0.3145220000000  0.4074930000000 1.0
C      1  0.3622500000000  0.5789730000000  0.6198990000000 1.0
C      1  0.3622440000000  0.4209960000000  0.3800840000000 1.0
C      1  0.5906040000000  0.5717130000000  0.6555210000000 1.0
C      1  0.5906120000000  0.4282940000000  0.3444780000000 1.0
C      1  0.7151110000000  0.5447510000000  0.5782400000000 1.0
C      1  0.7151040000000  0.4552520000000  0.4217520000000 1.0
C      1  0.4748700000000  0.5784540000000  0.5917100000000 1.0
C      1  0.4748800000000  0.4215590000000  0.4082840000000 1.0
C      1  0.5649440000000  0.7138200000000  0.3205450000000 1.0
C      1  0.5649460000000  0.2861590000000  0.6794560000000 1.0
C      1  0.6512880000000  0.3612720000000  0.4082840000000 1.0
C      1  0.6512930000000  0.6387260000000  0.5917140000000 1.0
C      1  0.3823700000000  0.5524050000000  0.3889470000000 1.0
C      1  0.3823650000000  0.4476220000000  0.6110610000000 1.0
C      1  0.5646870000000  0.4242530000000  0.5731530000000 1.0
C      1  0.5647110000000  0.5757480000000  0.4268430000000 1.0
C      1  0.4325610000000  0.5040110000000  0.4549930000000 1.0
C      1  0.4324930000000  0.4960240000000  0.5450100000000 1.0
C      1  0.4220960000000  0.2953650000000  0.6222280000000 1.0
C      1  0.4220900000000  0.7046390000000  0.3777690000000 1.0
C      1  0.4692180000000  0.1630340000000  0.4687960000000 1.0
C      1  0.4692090000000  0.8369620000000  0.5311950000000 1.0
C      1  0.3076930000000  0.5390680000000  0.5281020000000 1.0
C      1  0.3076530000000  0.4609360000000  0.4719070000000 1.0
C      1  0.4810120000000  0.4221810000000  0.7207930000000 1.0
C      1  0.4809950000000  0.5778150000000  0.2792170000000 1.0
C      1  0.7554570000000  0.5493970000000  0.4712350000000 1.0
C      1  0.7554540000000  0.4506040000000  0.5287560000000 1.0
END
