TITL C-3036485-3770-641 0.0241018555121766 3375 -355.780522424634 0 0 60 (C2) n - 1
REM
REM in /home/bkarasulu/work/CARBON/AIRSS/Generating-Clusters/REBO/Higher-Symm/Only-C60
REM
REM
REM
REM
REM
REM ./C.cell (a2850807a9bf4ad07a5b6933b78d9264)
REM AIRSS Version 0.9.1 bugfix July 2018 build 013d7b7c2542+ Fri, 06 Jul 2018 19:26:36 +0100
REM compiler GCC version 9.2.1 20190827 (Red Hat 9.2.1-1)
REM options -cpp -mtune=generic -march=x86-64 -g -O0 -fpre-include=/usr/include/finclude/math-vector-fortran.h
REM seed 2013387049 543727841 542409330 -811752043 -1489828917 -1600537976 888409044 304571212 2032870049 -1774230086 1033640264 352192818 -312216147 1411548607 1036529457 -1984846512 1399058871 1478930813 -39811686 188358597 267645340 303515495 -50028923 1088885829 -1066979432 -229500366 -126919950 1042066153 574674317 -1401363618 1213559552 -217963731 865328969
REM
CELL 1.54180   15.00000   15.00000   15.00000   90.00000   90.00000   90.00000
LATT -1
SFAC C  
C      1  0.7054750000000  0.3667220000000  0.3570850000000 1.0
C      1  0.2945320000000  0.3666850000000  0.6428880000000 1.0
C      1  0.7131490000000  0.3747980000000  0.6665110000000 1.0
C      1  0.2868510000000  0.3748210000000  0.3334800000000 1.0
C      1  0.3198400000000  0.2899660000000  0.4518810000000 1.0
C      1  0.6801310000000  0.2899340000000  0.5481270000000 1.0
C      1  0.3316660000000  0.2792570000000  0.5495650000000 1.0
C      1  0.6683300000000  0.2792510000000  0.4504150000000 1.0
C      1  0.5481400000000  0.8081540000000  0.3789610000000 1.0
C      1  0.4518440000000  0.8081150000000  0.6210850000000 1.0
C      1  0.5572040000000  0.8141900000000  0.6143110000000 1.0
C      1  0.4427640000000  0.8141960000000  0.3857250000000 1.0
C      1  0.4532770000000  0.4017610000000  0.5475070000000 1.0
C      1  0.5467360000000  0.4017650000000  0.4524740000000 1.0
C      1  0.4415170000000  0.4033000000000  0.4387000000000 1.0
C      1  0.5584930000000  0.4032900000000  0.5612920000000 1.0
C      1  0.3966640000000  0.8440270000000  0.4602650000000 1.0
C      1  0.6032980000000  0.8440460000000  0.5397750000000 1.0
C      1  0.4003660000000  0.8410330000000  0.5504310000000 1.0
C      1  0.5995950000000  0.8410650000000  0.4496080000000 1.0
C      1  0.3183720000000  0.5134830000000  0.5512490000000 1.0
C      1  0.6816340000000  0.5135000000000  0.4487580000000 1.0
C      1  0.3179940000000  0.5166780000000  0.4486780000000 1.0
C      1  0.6820200000000  0.5166640000000  0.5513340000000 1.0
C      1  0.5455540000000  0.5564480000000  0.3587180000000 1.0
C      1  0.4544510000000  0.5564230000000  0.6413020000000 1.0
C      1  0.5471300000000  0.5600750000000  0.6415790000000 1.0
C      1  0.4528790000000  0.5600900000000  0.3584240000000 1.0
C      1  0.5442890000000  0.3415240000000  0.3252570000000 1.0
C      1  0.4557240000000  0.3415010000000  0.6747420000000 1.0
C      1  0.5500910000000  0.3436410000000  0.6800940000000 1.0
C      1  0.4499250000000  0.3436540000000  0.3198930000000 1.0
C      1  0.7565120000000  0.3501330000000  0.4571230000000 1.0
C      1  0.2435280000000  0.3500590000000  0.5428260000000 1.0
C      1  0.7617420000000  0.3574820000000  0.5711020000000 1.0
C      1  0.2382780000000  0.3574930000000  0.4288860000000 1.0
C      1  0.3717700000000  0.4098210000000  0.3244360000000 1.0
C      1  0.6282330000000  0.4097980000000  0.6755430000000 1.0
C      1  0.3759970000000  0.4040680000000  0.6634480000000 1.0
C      1  0.6240070000000  0.4040970000000  0.3365240000000 1.0
C      1  0.4414760000000  0.7202810000000  0.6764190000000 1.0
C      1  0.5585120000000  0.7203100000000  0.3236120000000 1.0
C      1  0.4546800000000  0.7267970000000  0.3312840000000 1.0
C      1  0.5452920000000  0.7267910000000  0.6687290000000 1.0
C      1  0.4136040000000  0.3048660000000  0.5836810000000 1.0
C      1  0.5864140000000  0.3048990000000  0.4162910000000 1.0
C      1  0.3984520000000  0.3092850000000  0.4068920000000 1.0
C      1  0.6015460000000  0.3092620000000  0.5930820000000 1.0
C      1  0.7683820000000  0.4590570000000  0.4277210000000 1.0
C      1  0.2316210000000  0.4590690000000  0.5722760000000 1.0
C      1  0.7652950000000  0.4576040000000  0.5345120000000 1.0
C      1  0.2347050000000  0.4576210000000  0.4654610000000 1.0
C      1  0.5867620000000  0.6421480000000  0.6667230000000 1.0
C      1  0.4132430000000  0.6421610000000  0.3332840000000 1.0
C      1  0.5916130000000  0.6327230000000  0.3265930000000 1.0
C      1  0.4083830000000  0.6326900000000  0.6734380000000 1.0
C      1  0.3951220000000  0.4872910000000  0.3927350000000 1.0
C      1  0.6048910000000  0.4872770000000  0.6072700000000 1.0
C      1  0.4015200000000  0.4834210000000  0.5998590000000 1.0
C      1  0.5984870000000  0.4834380000000  0.4001330000000 1.0
END
