TITL C-3036482-790-269 1.89831630880289e-05 3375 -338.122501725359 0 0 60 (S4) n - 1
REM
REM in /home/bkarasulu/work/CARBON/AIRSS/Generating-Clusters/REBO/Higher-Symm/Only-C60
REM
REM
REM
REM
REM
REM ./C.cell (a2850807a9bf4ad07a5b6933b78d9264)
REM AIRSS Version 0.9.1 bugfix July 2018 build 013d7b7c2542+ Fri, 06 Jul 2018 19:26:36 +0100
REM compiler GCC version 9.2.1 20190827 (Red Hat 9.2.1-1)
REM options -cpp -mtune=generic -march=x86-64 -g -O0 -fpre-include=/usr/include/finclude/math-vector-fortran.h
REM seed -1664779562 -487313802 -219916156 -1671985433 2052346918 95565915 -2018675444 -1174577962 -1459374896 -717200963 -518500599 -2089161506 -1765682748 -1056313625 145244406 1173670842 1712033162 1603631625 -774283540 -1957593300 1367968057 642125349 1469005723 -1074339708 -2069172630 542561799 149126929 -2055153506 706157332 452884062 2026681184 -1154684861 -1349180443
REM
CELL 1.54180   15.00000   15.00000   15.00000   90.00000   90.00000   90.00000
LATT -1
SFAC C  
C      1  0.5547860000000  0.4835500000000  0.5842400000000 1.0
C      1  0.4452140000000  0.5842400000000  0.5164500000000 1.0
C      1  0.5547860000000  0.5164500000000  0.4157600000000 1.0
C      1  0.4452140000000  0.4157600000000  0.4835500000000 1.0
C      1  0.5229410000000  0.5447540000000  0.3199590000000 1.0
C      1  0.4770590000000  0.3199590000000  0.4552460000000 1.0
C      1  0.5229410000000  0.4552460000000  0.6800410000000 1.0
C      1  0.4770590000000  0.6800410000000  0.5447540000000 1.0
C      1  0.2956380000000  0.5686120000000  0.6174480000000 1.0
C      1  0.7043620000000  0.6174480000000  0.4313880000000 1.0
C      1  0.2956380000000  0.4313880000000  0.3825520000000 1.0
C      1  0.7043620000000  0.3825520000000  0.5686120000000 1.0
C      1  0.5698110000000  0.6326050000000  0.2995010000000 1.0
C      1  0.4301890000000  0.2995010000000  0.3673950000000 1.0
C      1  0.5698110000000  0.3673950000000  0.7004990000000 1.0
C      1  0.4301890000000  0.7004990000000  0.6326050000000 1.0
C      1  0.3817120000000  0.4548520000000  0.3239140000000 1.0
C      1  0.6182880000000  0.3239140000000  0.5451480000000 1.0
C      1  0.3817120000000  0.5451480000000  0.6760860000000 1.0
C      1  0.6182880000000  0.6760860000000  0.4548520000000 1.0
C      1  0.7193500000000  0.5847010000000  0.6272330000000 1.0
C      1  0.2806500000000  0.6272330000000  0.4152990000000 1.0
C      1  0.7193500000000  0.4152990000000  0.3727670000000 1.0
C      1  0.2806500000000  0.3727670000000  0.5847010000000 1.0
C      1  0.6758540000000  0.4542100000000  0.4921670000000 1.0
C      1  0.3241460000000  0.4921670000000  0.5457900000000 1.0
C      1  0.6758540000000  0.5457900000000  0.5078330000000 1.0
C      1  0.3241460000000  0.5078330000000  0.4542100000000 1.0
C      1  0.4264730000000  0.4520060000000  0.6623810000000 1.0
C      1  0.5735270000000  0.6623810000000  0.5479940000000 1.0
C      1  0.4264730000000  0.5479940000000  0.3376190000000 1.0
C      1  0.5735270000000  0.3376190000000  0.4520060000000 1.0
C      1  0.5361390000000  0.3787640000000  0.5723530000000 1.0
C      1  0.4638610000000  0.5723530000000  0.6212360000000 1.0
C      1  0.5361390000000  0.6212360000000  0.4276470000000 1.0
C      1  0.4638610000000  0.4276470000000  0.3787640000000 1.0
C      1  0.4946620000000  0.6719980000000  0.7028170000000 1.0
C      1  0.5053380000000  0.7028170000000  0.3280020000000 1.0
C      1  0.4946620000000  0.3280020000000  0.2971830000000 1.0
C      1  0.5053380000000  0.2971830000000  0.6719980000000 1.0
C      1  0.5908760000000  0.4349080000000  0.4475070000000 1.0
C      1  0.4091240000000  0.4475070000000  0.5650920000000 1.0
C      1  0.5908760000000  0.5650920000000  0.5524930000000 1.0
C      1  0.4091240000000  0.5524930000000  0.4349080000000 1.0
C      1  0.6460880000000  0.4684430000000  0.3314100000000 1.0
C      1  0.3539120000000  0.3314100000000  0.5315570000000 1.0
C      1  0.6460880000000  0.5315570000000  0.6685900000000 1.0
C      1  0.3539120000000  0.6685900000000  0.4684430000000 1.0
C      1  0.5564510000000  0.4159650000000  0.3203630000000 1.0
C      1  0.4435490000000  0.3203630000000  0.5840350000000 1.0
C      1  0.5564510000000  0.5840350000000  0.6796370000000 1.0
C      1  0.4435490000000  0.6796370000000  0.4159650000000 1.0
C      1  0.2469360000000  0.5354520000000  0.3843100000000 1.0
C      1  0.7530640000000  0.3843100000000  0.4645480000000 1.0
C      1  0.2469360000000  0.4645480000000  0.6156900000000 1.0
C      1  0.7530640000000  0.6156900000000  0.5354520000000 1.0
C      1  0.3484700000000  0.6578480000000  0.5709630000000 1.0
C      1  0.6515300000000  0.5709630000000  0.3421520000000 1.0
C      1  0.3484700000000  0.3421520000000  0.4290370000000 1.0
C      1  0.6515300000000  0.4290370000000  0.6578480000000 1.0
END
