TITL C-3036483-1610-135 1.01489556437055e-05 3375 -348.518873925509 0 0 60 (C1) n - 1
REM
REM in /home/bkarasulu/work/CARBON/AIRSS/Generating-Clusters/REBO/Higher-Symm/Only-C60
REM
REM
REM
REM
REM
REM ./C.cell (a2850807a9bf4ad07a5b6933b78d9264)
REM AIRSS Version 0.9.1 bugfix July 2018 build 013d7b7c2542+ Fri, 06 Jul 2018 19:26:36 +0100
REM compiler GCC version 9.2.1 20190827 (Red Hat 9.2.1-1)
REM options -cpp -mtune=generic -march=x86-64 -g -O0 -fpre-include=/usr/include/finclude/math-vector-fortran.h
REM seed -2073827791 -1877145174 783710645 1715075739 -841818482 2110800933 -2109902340 -1222899771 -1519856318 -33062811 468086741 770100958 -1477867833 80937438 1753305190 1205942318 -1498072174 33766271 1104976987 1896840802 1670441655 -1578451764 869931941 -1900800385 851320882 -1548827962 -336995253 -1725748088 -1372184239 1894541897 -150471274 1293178578 -1364952881
REM
CELL 1.54180   15.00000   15.00000   15.00000   90.00000   90.00000   90.00000
LATT -1
SFAC C  
C      1  0.5782320000000  0.5864050000000  0.6462410000000 1.0
C      1  0.3829680000000  0.6094380000000  0.6486800000000 1.0
C      1  0.5476200000000  0.6034560000000  0.3220320000000 1.0
C      1  0.4549790000000  0.6074510000000  0.3189340000000 1.0
C      1  0.5415430000000  0.4499950000000  0.6606200000000 1.0
C      1  0.4354540000000  0.4509770000000  0.6744750000000 1.0
C      1  0.6139000000000  0.4283220000000  0.3115590000000 1.0
C      1  0.3852950000000  0.4348920000000  0.3126020000000 1.0
C      1  0.6099420000000  0.3243910000000  0.5745930000000 1.0
C      1  0.4011400000000  0.3292080000000  0.5858520000000 1.0
C      1  0.4143100000000  0.2562880000000  0.5057560000000 1.0
C      1  0.5920670000000  0.2484360000000  0.4983770000000 1.0
C      1  0.4524370000000  0.5105860000000  0.4949530000000 1.0
C      1  0.5662950000000  0.5054830000000  0.4861460000000 1.0
C      1  0.5907760000000  0.6620510000000  0.4003940000000 1.0
C      1  0.4084740000000  0.6736010000000  0.3911580000000 1.0
C      1  0.6790070000000  0.4119940000000  0.4898310000000 1.0
C      1  0.3353630000000  0.4227790000000  0.5017450000000 1.0
C      1  0.4518920000000  0.4223380000000  0.5663470000000 1.0
C      1  0.5581880000000  0.4183660000000  0.5522850000000 1.0
C      1  0.6691800000000  0.5872830000000  0.3740180000000 1.0
C      1  0.3358640000000  0.5909080000000  0.3757780000000 1.0
C      1  0.3397960000000  0.3589650000000  0.6636300000000 1.0
C      1  0.6653220000000  0.3582830000000  0.6571440000000 1.0
C      1  0.3898250000000  0.5320590000000  0.3004660000000 1.0
C      1  0.6117620000000  0.5283870000000  0.2992830000000 1.0
C      1  0.6042720000000  0.3749700000000  0.4103260000000 1.0
C      1  0.4068600000000  0.3837790000000  0.4207370000000 1.0
C      1  0.3926360000000  0.7772470000000  0.4097400000000 1.0
C      1  0.6107530000000  0.7661230000000  0.4188270000000 1.0
C      1  0.3043440000000  0.4163700000000  0.3912020000000 1.0
C      1  0.7054330000000  0.4101960000000  0.3777740000000 1.0
C      1  0.3987250000000  0.7200010000000  0.5286280000000 1.0
C      1  0.5892660000000  0.7048710000000  0.5337100000000 1.0
C      1  0.7306100000000  0.6519080000000  0.4302300000000 1.0
C      1  0.2702080000000  0.6609170000000  0.4184540000000 1.0
C      1  0.4556590000000  0.3866410000000  0.2591540000000 1.0
C      1  0.5384080000000  0.3851360000000  0.2558160000000 1.0
C      1  0.4548470000000  0.8066750000000  0.4849780000000 1.0
C      1  0.5459870000000  0.7999680000000  0.4888270000000 1.0
C      1  0.5978050000000  0.3844550000000  0.7244160000000 1.0
C      1  0.3965920000000  0.3793310000000  0.7440370000000 1.0
C      1  0.5424710000000  0.6122770000000  0.4871820000000 1.0
C      1  0.4383700000000  0.6229400000000  0.4855400000000 1.0
C      1  0.3600310000000  0.5079870000000  0.4307640000000 1.0
C      1  0.6504890000000  0.4990740000000  0.4232540000000 1.0
C      1  0.5496180000000  0.3495220000000  0.7965480000000 1.0
C      1  0.4582100000000  0.3463590000000  0.8057580000000 1.0
C      1  0.3604520000000  0.5210290000000  0.6425060000000 1.0
C      1  0.6303460000000  0.5078590000000  0.6194020000000 1.0
C      1  0.4409830000000  0.6709320000000  0.6097660000000 1.0
C      1  0.5339840000000  0.6606030000000  0.6109110000000 1.0
C      1  0.5492840000000  0.2963620000000  0.4285700000000 1.0
C      1  0.4555350000000  0.3016330000000  0.4336620000000 1.0
C      1  0.5515830000000  0.2303450000000  0.5940320000000 1.0
C      1  0.4594690000000  0.2337720000000  0.5980460000000 1.0
C      1  0.3096960000000  0.7315670000000  0.4593650000000 1.0
C      1  0.6861500000000  0.7167840000000  0.4755010000000 1.0
C      1  0.6851280000000  0.4330940000000  0.5888230000000 1.0
C      1  0.3241670000000  0.4369320000000  0.6006180000000 1.0
END
