TITL C-3036482-790-792 0.00543436253371598 3375 -337.165869338285 0 0 60 (C2) n - 1
REM
REM in /home/bkarasulu/work/CARBON/AIRSS/Generating-Clusters/REBO/Higher-Symm/Only-C60
REM
REM
REM
REM
REM
REM ./C.cell (a2850807a9bf4ad07a5b6933b78d9264)
REM AIRSS Version 0.9.1 bugfix July 2018 build 013d7b7c2542+ Fri, 06 Jul 2018 19:26:36 +0100
REM compiler GCC version 9.2.1 20190827 (Red Hat 9.2.1-1)
REM options -cpp -mtune=generic -march=x86-64 -g -O0 -fpre-include=/usr/include/finclude/math-vector-fortran.h
REM seed 1285111288 589520819 -1730126478 -926328029 -1161889091 -634178185 -680833592 549228402 1005202443 922482993 101861017 1673340727 1558310942 -1325955293 -791902688 939939797 -43470875 2112753071 331016472 736355665 610550509 2093895272 -562520199 1563615876 771947735 1368005125 -34691670 -1814354538 -1638112766 721662209 -1394601746 2002310070 508405860
REM
CELL 1.54180   15.00000   15.00000   15.00000   90.00000   90.00000   90.00000
LATT -1
SFAC C  
C      1  0.3971120000000  0.4729260000000  0.3351270000000 1.0
C      1  0.6449920000000  0.4622100000000  0.4062710000000 1.0
C      1  0.6028880000000  0.4729310000000  0.6648720000000 1.0
C      1  0.3550040000000  0.4622070000000  0.5937260000000 1.0
C      1  0.4153750000000  0.6270610000000  0.3901380000000 1.0
C      1  0.6001080000000  0.6083830000000  0.4339840000000 1.0
C      1  0.5846310000000  0.6270560000000  0.6098580000000 1.0
C      1  0.3998940000000  0.6083880000000  0.5660150000000 1.0
C      1  0.5028880000000  0.2197690000000  0.5807650000000 1.0
C      1  0.4336770000000  0.2206680000000  0.5024520000000 1.0
C      1  0.4971120000000  0.2197650000000  0.4192330000000 1.0
C      1  0.5663240000000  0.2206660000000  0.4975470000000 1.0
C      1  0.5852500000000  0.6994840000000  0.5293370000000 1.0
C      1  0.4775010000000  0.6910560000000  0.5646490000000 1.0
C      1  0.4147470000000  0.6994800000000  0.4706620000000 1.0
C      1  0.5224990000000  0.6910570000000  0.4353510000000 1.0
C      1  0.4586310000000  0.4339180000000  0.4213560000000 1.0
C      1  0.5572880000000  0.4311120000000  0.4663820000000 1.0
C      1  0.5413710000000  0.4339180000000  0.5786430000000 1.0
C      1  0.4427110000000  0.4311130000000  0.5336160000000 1.0
C      1  0.3247660000000  0.6846960000000  0.5279350000000 1.0
C      1  0.4765330000000  0.6976100000000  0.3318330000000 1.0
C      1  0.6752340000000  0.6846970000000  0.4720670000000 1.0
C      1  0.5234730000000  0.6976100000000  0.6681690000000 1.0
C      1  0.6764720000000  0.5812490000000  0.6446600000000 1.0
C      1  0.3645610000000  0.5727810000000  0.6648390000000 1.0
C      1  0.3235300000000  0.5812480000000  0.3553420000000 1.0
C      1  0.6354380000000  0.5727850000000  0.3351590000000 1.0
C      1  0.5522930000000  0.4978490000000  0.3512570000000 1.0
C      1  0.6586080000000  0.4963820000000  0.5708630000000 1.0
C      1  0.4477080000000  0.4978460000000  0.6487450000000 1.0
C      1  0.3413890000000  0.4963810000000  0.4291390000000 1.0
C      1  0.5005210000000  0.3369830000000  0.7094350000000 1.0
C      1  0.2980280000000  0.3327140000000  0.4881500000000 1.0
C      1  0.4994790000000  0.3369830000000  0.2905680000000 1.0
C      1  0.7019690000000  0.3327140000000  0.5118530000000 1.0
C      1  0.3496050000000  0.2605440000000  0.5015510000000 1.0
C      1  0.4940070000000  0.2598400000000  0.3363140000000 1.0
C      1  0.6503950000000  0.2605430000000  0.4984490000000 1.0
C      1  0.5059930000000  0.2598430000000  0.6636840000000 1.0
C      1  0.7568620000000  0.5860580000000  0.5716500000000 1.0
C      1  0.4323670000000  0.5868690000000  0.7467180000000 1.0
C      1  0.2431380000000  0.5860590000000  0.4283500000000 1.0
C      1  0.5676350000000  0.5868670000000  0.2532790000000 1.0
C      1  0.5849630000000  0.5331910000000  0.5010680000000 1.0
C      1  0.5210030000000  0.5467200000000  0.5906950000000 1.0
C      1  0.4150370000000  0.5331850000000  0.4989300000000 1.0
C      1  0.4789920000000  0.5467210000000  0.4093050000000 1.0
C      1  0.5167660000000  0.4245590000000  0.2906280000000 1.0
C      1  0.7122030000000  0.4180400000000  0.5359400000000 1.0
C      1  0.4832310000000  0.4245590000000  0.7093740000000 1.0
C      1  0.2877940000000  0.4180400000000  0.4640620000000 1.0
C      1  0.2664250000000  0.6033310000000  0.5195100000000 1.0
C      1  0.4786460000000  0.6169490000000  0.2695760000000 1.0
C      1  0.7335760000000  0.6033320000000  0.4804900000000 1.0
C      1  0.5213550000000  0.6169510000000  0.7304230000000 1.0
C      1  0.7121990000000  0.5397140000000  0.4124900000000 1.0
C      1  0.5963390000000  0.5573390000000  0.7224340000000 1.0
C      1  0.2878010000000  0.5397110000000  0.5875100000000 1.0
C      1  0.4036640000000  0.5573400000000  0.2775720000000 1.0
END
