TITL C-3036481-494-850 -1.1896509757162e-06 3375 -346.601543133409 0 0 60 (Ci) n - 1
REM
REM in /home/bkarasulu/work/CARBON/AIRSS/Generating-Clusters/REBO/Higher-Symm/Only-C60
REM
REM
REM
REM
REM
REM ./C.cell (a2850807a9bf4ad07a5b6933b78d9264)
REM AIRSS Version 0.9.1 bugfix July 2018 build 013d7b7c2542+ Fri, 06 Jul 2018 19:26:36 +0100
REM compiler GCC version 9.2.1 20190827 (Red Hat 9.2.1-1)
REM options -cpp -mtune=generic -march=x86-64 -g -O0 -fpre-include=/usr/include/finclude/math-vector-fortran.h
REM seed 654160547 -25977878 -779669695 1269255124 762558587 -1934810895 -369543775 1901214975 -254317687 1531977329 1682511332 1344582541 1566832631 -83171788 1593023808 -1403682875 -2041707804 299840053 -369864211 1105030172 -503320424 153666629 1750049304 1223156922 -828529867 -2110765076 2110072522 -1953936630 1515159427 1349682370 1401485200 -1244058074 -105506060
REM
CELL 1.54180   15.00000   15.00000   15.00000   90.00000   90.00000   90.00000
LATT -1
SFAC C  
C      1  0.6870960000000  0.5050210000000  0.6318490000000 1.0
C      1  0.3129040000000  0.4949790000000  0.3681510000000 1.0
C      1  0.3409700000000  0.5946500000000  0.7225830000000 1.0
C      1  0.6590300000000  0.4053500000000  0.2774170000000 1.0
C      1  0.5655430000000  0.5499710000000  0.4875580000000 1.0
C      1  0.4344570000000  0.4500290000000  0.5124420000000 1.0
C      1  0.6109880000000  0.6488440000000  0.4049730000000 1.0
C      1  0.3890120000000  0.3511560000000  0.5950270000000 1.0
C      1  0.4000990000000  0.7341810000000  0.5699680000000 1.0
C      1  0.5999010000000  0.2658190000000  0.4300320000000 1.0
C      1  0.5528220000000  0.4428860000000  0.4520540000000 1.0
C      1  0.4471780000000  0.5571140000000  0.5479460000000 1.0
C      1  0.6622920000000  0.6402150000000  0.4789090000000 1.0
C      1  0.3377080000000  0.3597850000000  0.5210910000000 1.0
C      1  0.5349710000000  0.3762180000000  0.3133440000000 1.0
C      1  0.4650290000000  0.6237820000000  0.6866560000000 1.0
C      1  0.2697780000000  0.6929450000000  0.4776430000000 1.0
C      1  0.7302220000000  0.3070550000000  0.5223570000000 1.0
C      1  0.2898040000000  0.6036320000000  0.6216820000000 1.0
C      1  0.7101960000000  0.3963680000000  0.3783180000000 1.0
C      1  0.4576060000000  0.4354320000000  0.2575960000000 1.0
C      1  0.5423940000000  0.5645690000000  0.7424040000000 1.0
C      1  0.7677980000000  0.3700630000000  0.4692040000000 1.0
C      1  0.2322020000000  0.6299370000000  0.5307960000000 1.0
C      1  0.4883380000000  0.7291380000000  0.5212780000000 1.0
C      1  0.5116620000000  0.2708620000000  0.4787220000000 1.0
C      1  0.5838060000000  0.3791030000000  0.5399530000000 1.0
C      1  0.4161940000000  0.6208970000000  0.4600470000000 1.0
C      1  0.2931770000000  0.4516410000000  0.4710190000000 1.0
C      1  0.7068230000000  0.5483590000000  0.5289810000000 1.0
C      1  0.6382360000000  0.6193180000000  0.5874150000000 1.0
C      1  0.3617640000000  0.3806820000000  0.4125850000000 1.0
C      1  0.6565550000000  0.5045100000000  0.3191090000000 1.0
C      1  0.3434450000000  0.4954900000000  0.6808910000000 1.0
C      1  0.5296820000000  0.5934960000000  0.6079230000000 1.0
C      1  0.4703180000000  0.4065040000000  0.3920770000000 1.0
C      1  0.5645440000000  0.4561720000000  0.2378620000000 1.0
C      1  0.4354560000000  0.5438280000000  0.7621380000000 1.0
C      1  0.4112720000000  0.4393160000000  0.7267450000000 1.0
C      1  0.5887280000000  0.5606840000000  0.2732550000000 1.0
C      1  0.5969340000000  0.4850730000000  0.5695520000000 1.0
C      1  0.4030660000000  0.5149270000000  0.4304480000000 1.0
C      1  0.6005080000000  0.4773910000000  0.7015030000000 1.0
C      1  0.3994920000000  0.5226090000000  0.2984970000000 1.0
C      1  0.4659430000000  0.3484680000000  0.4864930000000 1.0
C      1  0.5340570000000  0.6515320000000  0.5135070000000 1.0
C      1  0.4500510000000  0.3829640000000  0.6620810000000 1.0
C      1  0.5499490000000  0.6170360000000  0.3379190000000 1.0
C      1  0.5419990000000  0.4104740000000  0.6374700000000 1.0
C      1  0.4580010000000  0.5895260000000  0.3625300000000 1.0
C      1  0.6364340000000  0.2991060000000  0.5161520000000 1.0
C      1  0.3635660000000  0.7008940000000  0.4838480000000 1.0
C      1  0.6222540000000  0.3284760000000  0.3534270000000 1.0
C      1  0.3777460000000  0.6715240000000  0.6465730000000 1.0
C      1  0.6385390000000  0.5859260000000  0.6944950000000 1.0
C      1  0.3614610000000  0.4140740000000  0.3055050000000 1.0
C      1  0.7308710000000  0.4732460000000  0.4616370000000 1.0
C      1  0.2691290000000  0.5267530000000  0.5383630000000 1.0
C      1  0.3592910000000  0.4968120000000  0.5832950000000 1.0
C      1  0.6407090000000  0.5031880000000  0.4167050000000 1.0
END
