TITL C-3036486-2224-497 -5.82638661472184e-06 3375 -350.516254315549 0 0 60 (C1) n - 1
REM
REM in /home/bkarasulu/work/CARBON/AIRSS/Generating-Clusters/REBO/Higher-Symm/Only-C60
REM
REM
REM
REM
REM
REM ./C.cell (a2850807a9bf4ad07a5b6933b78d9264)
REM AIRSS Version 0.9.1 bugfix July 2018 build 013d7b7c2542+ Fri, 06 Jul 2018 19:26:36 +0100
REM compiler GCC version 9.2.1 20190827 (Red Hat 9.2.1-1)
REM options -cpp -mtune=generic -march=x86-64 -g -O0 -fpre-include=/usr/include/finclude/math-vector-fortran.h
REM seed -346399597 -1641808199 1510533276 1183506840 -1703343398 437115161 -510320016 321516592 1321174079 -2143717199 -429541246 424583835 312216236 1812789472 589412824 -1442949210 -1881598950 -443565522 1067004872 -2082451817 455078426 2134930532 -1766659515 1681987448 1953602290 -1534105008 -151485416 1511574951 -1299309968 1712482790 -1227949796 -1373279778 1198963305
REM
CELL 1.54180   15.00000   15.00000   15.00000   90.00000   90.00000   90.00000
LATT -1
SFAC C  
C      1  0.4479300000000  0.5861090000000  0.3190330000000 1.0
C      1  0.3598550000000  0.5838150000000  0.6340040000000 1.0
C      1  0.6802800000000  0.5850720000000  0.5376680000000 1.0
C      1  0.5524390000000  0.5858470000000  0.3437270000000 1.0
C      1  0.6246340000000  0.5793620000000  0.6269090000000 1.0
C      1  0.3398810000000  0.5829120000000  0.5290240000000 1.0
C      1  0.5959720000000  0.5099880000000  0.5172490000000 1.0
C      1  0.4601690000000  0.5130550000000  0.4058900000000 1.0
C      1  0.4388590000000  0.5155420000000  0.5863260000000 1.0
C      1  0.4022750000000  0.4976010000000  0.4870310000000 1.0
C      1  0.5600240000000  0.5042470000000  0.4229240000000 1.0
C      1  0.5396310000000  0.5055020000000  0.6034880000000 1.0
C      1  0.6357220000000  0.3856640000000  0.6150820000000 1.0
C      1  0.5586450000000  0.3772810000000  0.3176520000000 1.0
C      1  0.3327780000000  0.3809770000000  0.5316560000000 1.0
C      1  0.3768880000000  0.3860360000000  0.6220550000000 1.0
C      1  0.4583790000000  0.3823780000000  0.3129760000000 1.0
C      1  0.6810200000000  0.3759800000000  0.5269780000000 1.0
C      1  0.2925800000000  0.4827220000000  0.4570440000000 1.0
C      1  0.5625460000000  0.5026590000000  0.7156210000000 1.0
C      1  0.6427930000000  0.4890090000000  0.3462580000000 1.0
C      1  0.6881700000000  0.4852590000000  0.4512510000000 1.0
C      1  0.4508370000000  0.5156120000000  0.7019470000000 1.0
C      1  0.3527850000000  0.5053540000000  0.3636660000000 1.0
C      1  0.4472520000000  0.7236420000000  0.5985610000000 1.0
C      1  0.5914230000000  0.7315450000000  0.5200640000000 1.0
C      1  0.4575710000000  0.7224520000000  0.4258240000000 1.0
C      1  0.5449280000000  0.7229040000000  0.6021520000000 1.0
C      1  0.4090790000000  0.7258980000000  0.5124500000000 1.0
C      1  0.5510460000000  0.7236000000000  0.4294260000000 1.0
C      1  0.5411150000000  0.4844170000000  0.2931400000000 1.0
C      1  0.3010970000000  0.4826520000000  0.5707540000000 1.0
C      1  0.6562410000000  0.4767840000000  0.6605730000000 1.0
C      1  0.4276010000000  0.4796550000000  0.2823660000000 1.0
C      1  0.7154560000000  0.4783230000000  0.5622010000000 1.0
C      1  0.3482200000000  0.4771440000000  0.6740470000000 1.0
C      1  0.5447600000000  0.2448240000000  0.5894770000000 1.0
C      1  0.5495690000000  0.2410750000000  0.4179040000000 1.0
C      1  0.3995310000000  0.2293680000000  0.5017570000000 1.0
C      1  0.4429390000000  0.2320360000000  0.5866600000000 1.0
C      1  0.4540620000000  0.2440440000000  0.4149820000000 1.0
C      1  0.5956450000000  0.2307530000000  0.5097060000000 1.0
C      1  0.2616850000000  0.5819710000000  0.4228750000000 1.0
C      1  0.5405810000000  0.6084200000000  0.7337950000000 1.0
C      1  0.6800640000000  0.5895210000000  0.3088210000000 1.0
C      1  0.7112820000000  0.5832370000000  0.4096270000000 1.0
C      1  0.4418170000000  0.6194280000000  0.7365600000000 1.0
C      1  0.3172560000000  0.6047120000000  0.3341970000000 1.0
C      1  0.3583910000000  0.3204050000000  0.4659770000000 1.0
C      1  0.5594950000000  0.3351170000000  0.6364260000000 1.0
C      1  0.6024820000000  0.3182560000000  0.3727690000000 1.0
C      1  0.6503420000000  0.3116200000000  0.4676830000000 1.0
C      1  0.4509250000000  0.3270530000000  0.6349500000000 1.0
C      1  0.4101750000000  0.3274800000000  0.3714500000000 1.0
C      1  0.5844970000000  0.6647730000000  0.6663050000000 1.0
C      1  0.6164030000000  0.6650680000000  0.3662810000000 1.0
C      1  0.3394610000000  0.6601850000000  0.4530220000000 1.0
C      1  0.4003260000000  0.6746410000000  0.6662420000000 1.0
C      1  0.3982490000000  0.6727760000000  0.3550160000000 1.0
C      1  0.6639410000000  0.6662380000000  0.4705000000000 1.0
END
