TITL C-3036480-97-190 0.0297955409907843 3375 -321.610273020076 0 0 60 (Ci) n - 1
REM
REM in /home/bkarasulu/work/CARBON/AIRSS/Generating-Clusters/REBO/Higher-Symm/Only-C60
REM
REM
REM
REM
REM
REM ./C.cell (a2850807a9bf4ad07a5b6933b78d9264)
REM AIRSS Version 0.9.1 bugfix July 2018 build 013d7b7c2542+ Fri, 06 Jul 2018 19:26:36 +0100
REM compiler GCC version 9.2.1 20190827 (Red Hat 9.2.1-1)
REM options -cpp -mtune=generic -march=x86-64 -g -O0 -fpre-include=/usr/include/finclude/math-vector-fortran.h
REM seed -399041740 1893078743 1052762872 1864077854 1880787464 -1649631832 1679452878 -1686940655 -1360256633 -1002904051 1871240807 788790149 49200670 443877344 1162705812 1391539355 459844400 2057940117 809246887 -138249814 -1768679175 1395329265 -1644024960 142858996 1913247702 1224060829 111528381 2138298931 2076764732 812397847 -1980107223 1921805064 713308089
REM
CELL 1.54180   15.00000   15.00000   15.00000   90.00000   90.00000   90.00000
LATT -1
SFAC C  
C      1  0.6381500000000  0.5830810000000  0.4708490000000 1.0
C      1  0.6763750000000  0.4682480000000  0.6169620000000 1.0
C      1  0.6799150000000  0.4030340000000  0.4407280000000 1.0
C      1  0.3417810000000  0.4305680000000  0.4268030000000 1.0
C      1  0.3380420000000  0.4986910000000  0.6008110000000 1.0
C      1  0.3029620000000  0.6168860000000  0.4488700000000 1.0
C      1  0.3618480000000  0.4169190000000  0.5291460000000 1.0
C      1  0.3236290000000  0.5317530000000  0.3830370000000 1.0
C      1  0.3200860000000  0.5969610000000  0.5592720000000 1.0
C      1  0.6582210000000  0.5694310000000  0.5731940000000 1.0
C      1  0.6619540000000  0.5013070000000  0.3991900000000 1.0
C      1  0.6970360000000  0.3831090000000  0.5511300000000 1.0
C      1  0.4055960000000  0.3026310000000  0.4401170000000 1.0
C      1  0.3940050000000  0.6542580000000  0.3421770000000 1.0
C      1  0.4147890000000  0.5708830000000  0.6940140000000 1.0
C      1  0.5840650000000  0.7021410000000  0.4470560000000 1.0
C      1  0.6026230000000  0.3276390000000  0.3536580000000 1.0
C      1  0.5962300000000  0.4313300000000  0.7202260000000 1.0
C      1  0.5944040000000  0.6973660000000  0.5598750000000 1.0
C      1  0.6059910000000  0.3457470000000  0.6578290000000 1.0
C      1  0.5852170000000  0.4291160000000  0.3059910000000 1.0
C      1  0.4159350000000  0.2978700000000  0.5529390000000 1.0
C      1  0.3973770000000  0.6723580000000  0.6463420000000 1.0
C      1  0.4037700000000  0.5686760000000  0.2797810000000 1.0
C      1  0.5036040000000  0.6443000000000  0.3456820000000 1.0
C      1  0.5251900000000  0.5588450000000  0.7036670000000 1.0
C      1  0.5165720000000  0.2956830000000  0.4502990000000 1.0
C      1  0.4921380000000  0.3386800000000  0.3456710000000 1.0
C      1  0.4861390000000  0.4514000000000  0.7184440000000 1.0
C      1  0.4713500000000  0.7101340000000  0.4350550000000 1.0
C      1  0.4963890000000  0.3557060000000  0.6543260000000 1.0
C      1  0.4748190000000  0.4411480000000  0.2963370000000 1.0
C      1  0.4834290000000  0.7043210000000  0.5496920000000 1.0
C      1  0.5078670000000  0.6613230000000  0.6543340000000 1.0
C      1  0.5138570000000  0.5486070000000  0.2815560000000 1.0
C      1  0.5286480000000  0.2898560000000  0.5649520000000 1.0
C      1  0.4096130000000  0.5963530000000  0.4610620000000 1.0
C      1  0.4518570000000  0.4868180000000  0.5975350000000 1.0
C      1  0.4551420000000  0.4249270000000  0.4353070000000 1.0
C      1  0.5665790000000  0.4173980000000  0.4369470000000 1.0
C      1  0.5636800000000  0.4809570000000  0.6035450000000 1.0
C      1  0.5223580000000  0.5917350000000  0.4655240000000 1.0
C      1  0.5903840000000  0.4036550000000  0.5389370000000 1.0
C      1  0.5481480000000  0.5131770000000  0.4024630000000 1.0
C      1  0.5448640000000  0.5750720000000  0.5646920000000 1.0
C      1  0.4334220000000  0.5826010000000  0.5630540000000 1.0
C      1  0.4363170000000  0.5190400000000  0.3964540000000 1.0
C      1  0.4776320000000  0.4082660000000  0.5344690000000 1.0
C      1  0.6419140000000  0.2861890000000  0.5728240000000 1.0
C      1  0.6253680000000  0.5353240000000  0.2977770000000 1.0
C      1  0.6192270000000  0.6387940000000  0.6539440000000 1.0
C      1  0.3705750000000  0.6970950000000  0.5386820000000 1.0
C      1  0.3637720000000  0.4641220000000  0.3001900000000 1.0
C      1  0.3878390000000  0.3758310000000  0.6316900000000 1.0
C      1  0.3580860000000  0.7138120000000  0.4271800000000 1.0
C      1  0.3746350000000  0.4646670000000  0.7022220000000 1.0
C      1  0.3807760000000  0.3612060000000  0.3460480000000 1.0
C      1  0.6294210000000  0.3029050000000  0.4613270000000 1.0
C      1  0.6362330000000  0.5358810000000  0.6998050000000 1.0
C      1  0.6121560000000  0.6241680000000  0.3683090000000 1.0
END
