TITL C-3036481-494-1036 -0.136048835763247 3375 -350.689124633932 0 0 60 (C1) n - 1
REM
REM in /home/bkarasulu/work/CARBON/AIRSS/Generating-Clusters/REBO/Higher-Symm/Only-C60
REM
REM
REM
REM
REM
REM ./C.cell (a2850807a9bf4ad07a5b6933b78d9264)
REM AIRSS Version 0.9.1 bugfix July 2018 build 013d7b7c2542+ Fri, 06 Jul 2018 19:26:36 +0100
REM compiler GCC version 9.2.1 20190827 (Red Hat 9.2.1-1)
REM options -cpp -mtune=generic -march=x86-64 -g -O0 -fpre-include=/usr/include/finclude/math-vector-fortran.h
REM seed 1593652308 -135938982 2084964728 -1524911286 399902200 316149797 448963724 527531198 -568144492 -244090743 -1936935427 -140997214 1357729334 -988058520 -381070778 -1847333366 -1383191583 -245601539 -497380797 -1374031464 -515017823 -536513253 -840094268 -1244997821 -1136624434 -796388638 478180013 794434253 10515462 -1409081031 1367053514 -1511253673 961065631
REM
CELL 1.54180   15.00000   15.00000   15.00000   90.00000   90.00000   90.00000
LATT -1
SFAC C  
C      1  0.3922030000000  0.4368620000000  0.3398200000000 1.0
C      1  0.7079350000000  0.4429130000000  0.5062180000000 1.0
C      1  0.4038050000000  0.4432880000000  0.6839130000000 1.0
C      1  0.5736850000000  0.3558970000000  0.3391110000000 1.0
C      1  0.6002400000000  0.3367060000000  0.6323240000000 1.0
C      1  0.3482390000000  0.3558290000000  0.5301100000000 1.0
C      1  0.2795310000000  0.6290440000000  0.3888210000000 1.0
C      1  0.6376840000000  0.6340470000000  0.4080300000000 1.0
C      1  0.5200840000000  0.6319350000000  0.6843910000000 1.0
C      1  0.6816960000000  0.7081720000000  0.4465110000000 1.0
C      1  0.4209560000000  0.6446270000000  0.6920250000000 1.0
C      1  0.3696410000000  0.6318340000000  0.3235460000000 1.0
C      1  0.3919350000000  0.3494680000000  0.6923900000000 1.0
C      1  0.4003430000000  0.3427200000000  0.3385900000000 1.0
C      1  0.7305220000000  0.3518610000000  0.5174380000000 1.0
C      1  0.4902140000000  0.5634830000000  0.6132970000000 1.0
C      1  0.3817930000000  0.5896510000000  0.4248270000000 1.0
C      1  0.6138460000000  0.5689610000000  0.4746410000000 1.0
C      1  0.6925890000000  0.7121070000000  0.5375360000000 1.0
C      1  0.3667470000000  0.6131620000000  0.6225190000000 1.0
C      1  0.4709600000000  0.6191540000000  0.3298660000000 1.0
C      1  0.3860110000000  0.4880450000000  0.4246170000000 1.0
C      1  0.6394480000000  0.4798100000000  0.4535550000000 1.0
C      1  0.4816550000000  0.4740940000000  0.6414110000000 1.0
C      1  0.3765190000000  0.2998440000000  0.6156440000000 1.0
C      1  0.4821700000000  0.2981460000000  0.3350080000000 1.0
C      1  0.6936600000000  0.3030970000000  0.5889070000000 1.0
C      1  0.4449680000000  0.4815360000000  0.2792720000000 1.0
C      1  0.7143980000000  0.4925900000000  0.5872400000000 1.0
C      1  0.3254750000000  0.4973200000000  0.6725040000000 1.0
C      1  0.5626630000000  0.4246590000000  0.6009790000000 1.0
C      1  0.3573720000000  0.4547650000000  0.5223800000000 1.0
C      1  0.5674550000000  0.4433270000000  0.3889940000000 1.0
C      1  0.6032580000000  0.6065820000000  0.3234700000000 1.0
C      1  0.6123240000000  0.6006030000000  0.6515520000000 1.0
C      1  0.2681230000000  0.6049150000000  0.4905640000000 1.0
C      1  0.6289670000000  0.5099670000000  0.6258750000000 1.0
C      1  0.3031520000000  0.5316000000000  0.5719190000000 1.0
C      1  0.5310260000000  0.5231470000000  0.3244120000000 1.0
C      1  0.6109640000000  0.2382770000000  0.5886900000000 1.0
C      1  0.4154480000000  0.2652990000000  0.5165210000000 1.0
C      1  0.5673750000000  0.2653750000000  0.4018860000000 1.0
C      1  0.6675290000000  0.6672740000000  0.6123430000000 1.0
C      1  0.3665780000000  0.6377850000000  0.5252800000000 1.0
C      1  0.5128840000000  0.6827600000000  0.3852340000000 1.0
C      1  0.4635680000000  0.4905620000000  0.5023770000000 1.0
C      1  0.5059990000000  0.3116280000000  0.4841320000000 1.0
C      1  0.5186680000000  0.5829870000000  0.5158290000000 1.0
C      1  0.5320560000000  0.4118940000000  0.4934460000000 1.0
C      1  0.4236650000000  0.1623800000000  0.5079980000000 1.0
C      1  0.5140420000000  0.1374410000000  0.4972830000000 1.0
C      1  0.5148410000000  0.8567160000000  0.5218540000000 1.0
C      1  0.5176810000000  0.6818140000000  0.4794260000000 1.0
C      1  0.4391950000000  0.9336040000000  0.5292440000000 1.0
C      1  0.5241300000000  0.7654410000000  0.5203430000000 1.0
C      1  0.3654060000000  0.0903965000000  0.5215020000000 1.0
C      1  0.5383230000000  0.9617610000000  0.5023650000000 1.0
C      1  0.5515280000000  0.0525120000000  0.4884960000000 1.0
C      1  0.3753570000000  0.0005952600000  0.5336040000000 1.0
C      1  0.5688030000000  0.2197830000000  0.5003970000000 1.0
END
