TITL C-3036481-494-886 -5.57235037084309e-06 3375 -336.709316397877 0 0 60 (C1) n - 1
REM
REM in /home/bkarasulu/work/CARBON/AIRSS/Generating-Clusters/REBO/Higher-Symm/Only-C60
REM
REM
REM
REM
REM
REM ./C.cell (a2850807a9bf4ad07a5b6933b78d9264)
REM AIRSS Version 0.9.1 bugfix July 2018 build 013d7b7c2542+ Fri, 06 Jul 2018 19:26:36 +0100
REM compiler GCC version 9.2.1 20190827 (Red Hat 9.2.1-1)
REM options -cpp -mtune=generic -march=x86-64 -g -O0 -fpre-include=/usr/include/finclude/math-vector-fortran.h
REM seed -841182357 776301652 -1662037724 -1455819392 248653215 -488229931 -20120367 2057147190 536032143 -476346212 1731161600 -2112728365 308471207 1322243053 865029010 -1335134938 1171092495 -2125948176 -954212575 -1589118414 1863531651 -963619129 -1029079424 -55184608 587679636 1401254850 1281803765 1423847608 -2072201115 -1440945221 1044134529 1993087305 -1350982482
REM
CELL 1.54180   15.00000   15.00000   15.00000   90.00000   90.00000   90.00000
LATT -1
SFAC C  
C      1  0.5189270000000  0.4972990000000  0.2818360000000 1.0
C      1  0.5375750000000  0.3164320000000  0.4566880000000 1.0
C      1  0.5353530000000  0.6250990000000  0.5749160000000 1.0
C      1  0.3440820000000  0.6116270000000  0.6155750000000 1.0
C      1  0.3937900000000  0.5879160000000  0.3390380000000 1.0
C      1  0.5648820000000  0.7138930000000  0.4146330000000 1.0
C      1  0.6884350000000  0.5704650000000  0.6590400000000 1.0
C      1  0.3580950000000  0.4580910000000  0.5077570000000 1.0
C      1  0.7244620000000  0.4039980000000  0.5103080000000 1.0
C      1  0.4864040000000  0.5445330000000  0.7127130000000 1.0
C      1  0.2821810000000  0.6437500000000  0.5425590000000 1.0
C      1  0.5152800000000  0.2549120000000  0.5770240000000 1.0
C      1  0.6512310000000  0.5869970000000  0.3850330000000 1.0
C      1  0.5006150000000  0.5299360000000  0.5811190000000 1.0
C      1  0.7064390000000  0.3125800000000  0.5325440000000 1.0
C      1  0.5882810000000  0.5471570000000  0.6847900000000 1.0
C      1  0.6334360000000  0.4621260000000  0.3464880000000 1.0
C      1  0.5512730000000  0.4505530000000  0.6456760000000 1.0
C      1  0.5809390000000  0.3537370000000  0.6355820000000 1.0
C      1  0.2799380000000  0.5541610000000  0.3996690000000 1.0
C      1  0.1923200000000  0.4764400000000  0.5107170000000 1.0
C      1  0.4255160000000  0.2972080000000  0.5245480000000 1.0
C      1  0.4887370000000  0.6025510000000  0.3993270000000 1.0
C      1  0.6015770000000  0.3648420000000  0.3024410000000 1.0
C      1  0.2721620000000  0.4987140000000  0.4703250000000 1.0
C      1  0.4935440000000  0.6742490000000  0.4856480000000 1.0
C      1  0.6496360000000  0.6723370000000  0.4243460000000 1.0
C      1  0.7218360000000  0.5176830000000  0.3954150000000 1.0
C      1  0.6370120000000  0.4343060000000  0.4552570000000 1.0
C      1  0.2751670000000  0.6697410000000  0.4652860000000 1.0
C      1  0.5045590000000  0.3237280000000  0.3277230000000 1.0
C      1  0.6903910000000  0.6682690000000  0.5103820000000 1.0
C      1  0.7268570000000  0.5711680000000  0.5521270000000 1.0
C      1  0.3469740000000  0.4470960000000  0.6673660000000 1.0
C      1  0.4761840000000  0.5694560000000  0.2709050000000 1.0
C      1  0.4752100000000  0.7065220000000  0.3579950000000 1.0
C      1  0.3731860000000  0.4833410000000  0.3361720000000 1.0
C      1  0.6113820000000  0.3445680000000  0.4035810000000 1.0
C      1  0.4056640000000  0.6974230000000  0.6487030000000 1.0
C      1  0.6205150000000  0.2836920000000  0.5592570000000 1.0
C      1  0.7476430000000  0.5002330000000  0.4869660000000 1.0
C      1  0.3896680000000  0.7237500000000  0.3347330000000 1.0
C      1  0.4212710000000  0.4493570000000  0.4319470000000 1.0
C      1  0.4205150000000  0.6082750000000  0.7014470000000 1.0
C      1  0.5604550000000  0.5305480000000  0.4040130000000 1.0
C      1  0.4938560000000  0.4289600000000  0.3469620000000 1.0
C      1  0.5318670000000  0.3797530000000  0.5344970000000 1.0
C      1  0.4727300000000  0.7150600000000  0.5859080000000 1.0
C      1  0.4500530000000  0.4463990000000  0.6900400000000 1.0
C      1  0.3135940000000  0.6547520000000  0.3657620000000 1.0
C      1  0.5494200000000  0.4772650000000  0.5034710000000 1.0
C      1  0.5158990000000  0.2712440000000  0.6788300000000 1.0
C      1  0.3394430000000  0.3613080000000  0.5433400000000 1.0
C      1  0.3852290000000  0.3720700000000  0.3562700000000 1.0
C      1  0.6305320000000  0.6371320000000  0.5925880000000 1.0
C      1  0.3947270000000  0.5179230000000  0.5921100000000 1.0
C      1  0.4397190000000  0.2918670000000  0.4152050000000 1.0
C      1  0.4525150000000  0.3686580000000  0.6097980000000 1.0
C      1  0.3096590000000  0.3724270000000  0.6300340000000 1.0
C      1  0.7511550000000  0.5644240000000  0.7255700000000 1.0
END
