TITL C-3036480-97-638 7.04769570342302e-07 3375 -328.121017402307 0 0 60 (D2) n - 1
REM
REM in /home/bkarasulu/work/CARBON/AIRSS/Generating-Clusters/REBO/Higher-Symm/Only-C60
REM
REM
REM
REM
REM
REM ./C.cell (a2850807a9bf4ad07a5b6933b78d9264)
REM AIRSS Version 0.9.1 bugfix July 2018 build 013d7b7c2542+ Fri, 06 Jul 2018 19:26:36 +0100
REM compiler GCC version 9.2.1 20190827 (Red Hat 9.2.1-1)
REM options -cpp -mtune=generic -march=x86-64 -g -O0 -fpre-include=/usr/include/finclude/math-vector-fortran.h
REM seed -1750212127 326254548 1554731059 -747963779 1661693179 -407519676 -1514652174 -54814109 2023233954 1503810859 -692716895 -1308066564 2131379071 1079378267 -661533976 1455677165 1599995461 589896550 1879474780 -1996098675 163242780 756825786 -235510318 1783250174 1948195296 -851957541 -1749240767 -1604512212 1195871543 -1629711550 805811842 -786363201 -1247468574
REM
CELL 1.54180   15.00000   15.00000   15.00000   90.00000   90.00000   90.00000
LATT -1
SFAC C  
C      1  0.5422170000000  0.6915740000000  0.3852340000000 1.0
C      1  0.4577830000000  0.3084250000000  0.3852340000000 1.0
C      1  0.5422180000000  0.3084250000000  0.6147660000000 1.0
C      1  0.4577820000000  0.6915740000000  0.6147660000000 1.0
C      1  0.5474620000000  0.7580290000000  0.4769960000000 1.0
C      1  0.4525390000000  0.2419700000000  0.4769970000000 1.0
C      1  0.5474630000000  0.2419710000000  0.5230040000000 1.0
C      1  0.4525370000000  0.7580290000000  0.5230030000000 1.0
C      1  0.6411610000000  0.3242240000000  0.5671150000000 1.0
C      1  0.3588390000000  0.6757750000000  0.5671140000000 1.0
C      1  0.6411600000000  0.6757760000000  0.4328850000000 1.0
C      1  0.3588400000000  0.3242230000000  0.4328850000000 1.0
C      1  0.3611190000000  0.5577270000000  0.3199510000000 1.0
C      1  0.6388820000000  0.4422720000000  0.3199500000000 1.0
C      1  0.3611190000000  0.4422720000000  0.6800500000000 1.0
C      1  0.6388800000000  0.5577280000000  0.6800490000000 1.0
C      1  0.4360670000000  0.2797420000000  0.5847370000000 1.0
C      1  0.5639330000000  0.7202570000000  0.5847360000000 1.0
C      1  0.4360660000000  0.7202560000000  0.4152630000000 1.0
C      1  0.5639340000000  0.2797420000000  0.4152640000000 1.0
C      1  0.3768220000000  0.4602120000000  0.5367500000000 1.0
C      1  0.6231770000000  0.5397870000000  0.5367520000000 1.0
C      1  0.3768230000000  0.5397860000000  0.4632480000000 1.0
C      1  0.6231790000000  0.4602130000000  0.4632500000000 1.0
C      1  0.7925730000000  0.5394460000000  0.4586380000000 1.0
C      1  0.2074260000000  0.4605620000000  0.4586310000000 1.0
C      1  0.7925750000000  0.4605650000000  0.5413690000000 1.0
C      1  0.2074270000000  0.5394440000000  0.5413630000000 1.0
C      1  0.5979880000000  0.4589010000000  0.7046590000000 1.0
C      1  0.4020110000000  0.5410990000000  0.7046590000000 1.0
C      1  0.5979890000000  0.5410990000000  0.2953410000000 1.0
C      1  0.4020130000000  0.4589000000000  0.2953410000000 1.0
C      1  0.4734690000000  0.5973380000000  0.6689870000000 1.0
C      1  0.5265300000000  0.4026620000000  0.6689870000000 1.0
C      1  0.4734700000000  0.4026610000000  0.3310140000000 1.0
C      1  0.5265310000000  0.5973380000000  0.3310130000000 1.0
C      1  0.3495760000000  0.7364760000000  0.4844100000000 1.0
C      1  0.6504240000000  0.2635230000000  0.4844110000000 1.0
C      1  0.3495770000000  0.2635220000000  0.5155890000000 1.0
C      1  0.6504230000000  0.7364770000000  0.5155890000000 1.0
C      1  0.6642290000000  0.5853570000000  0.4426680000000 1.0
C      1  0.3357710000000  0.4146420000000  0.4426670000000 1.0
C      1  0.6642290000000  0.4146440000000  0.5573330000000 1.0
C      1  0.3357710000000  0.5853560000000  0.5573320000000 1.0
C      1  0.4255280000000  0.3649230000000  0.6452970000000 1.0
C      1  0.5744720000000  0.6350760000000  0.6452960000000 1.0
C      1  0.4255270000000  0.6350750000000  0.3547040000000 1.0
C      1  0.5744730000000  0.3649230000000  0.3547030000000 1.0
C      1  0.3244190000000  0.5334590000000  0.6349070000000 1.0
C      1  0.6755810000000  0.4665400000000  0.6349080000000 1.0
C      1  0.3244190000000  0.4665380000000  0.3650920000000 1.0
C      1  0.6755810000000  0.5334600000000  0.3650930000000 1.0
C      1  0.7302830000000  0.5540640000000  0.5517130000000 1.0
C      1  0.2697140000000  0.4459420000000  0.5517080000000 1.0
C      1  0.7302870000000  0.4459430000000  0.4482920000000 1.0
C      1  0.2697170000000  0.5540610000000  0.4482870000000 1.0
C      1  0.5380750000000  0.5395680000000  0.5949160000000 1.0
C      1  0.4619230000000  0.4604300000000  0.5949150000000 1.0
C      1  0.5380780000000  0.4604300000000  0.4050850000000 1.0
C      1  0.4619250000000  0.5395670000000  0.4050840000000 1.0
END
