TITL C-3036483-1610-664 -1.94481533530067e-06 3375 -341.481164410978 0 0 60 (Ci) n - 1
REM
REM in /home/bkarasulu/work/CARBON/AIRSS/Generating-Clusters/REBO/Higher-Symm/Only-C60
REM
REM
REM
REM
REM
REM ./C.cell (a2850807a9bf4ad07a5b6933b78d9264)
REM AIRSS Version 0.9.1 bugfix July 2018 build 013d7b7c2542+ Fri, 06 Jul 2018 19:26:36 +0100
REM compiler GCC version 9.2.1 20190827 (Red Hat 9.2.1-1)
REM options -cpp -mtune=generic -march=x86-64 -g -O0 -fpre-include=/usr/include/finclude/math-vector-fortran.h
REM seed -113546169 978731038 1471669210 1198165483 -1582204148 1080368970 1130258270 -1097944889 842081051 -880089817 26344262 530504165 -1511958231 -1469984953 -534497053 -33388246 -688730448 -558205092 305671612 1471736165 1379158206 -1282728433 2012652607 -141219004 -5691583 1120313255 237835255 1219229098 688580106 96484868 -871985495 -1475533439 830233491
REM
CELL 1.54180   15.00000   15.00000   15.00000   90.00000   90.00000   90.00000
LATT -1
SFAC C  
C      1  0.4247640000000  0.6043350000000  0.5701620000000 1.0
C      1  0.4497000000000  0.4109730000000  0.5513190000000 1.0
C      1  0.4479620000000  0.5023730000000  0.3674720000000 1.0
C      1  0.5632490000000  0.4113520000000  0.5616400000000 1.0
C      1  0.5368830000000  0.6029940000000  0.5550240000000 1.0
C      1  0.5586890000000  0.4870420000000  0.3646060000000 1.0
C      1  0.5752360000000  0.3956650000000  0.4298380000000 1.0
C      1  0.5503000000000  0.5890270000000  0.4486810000000 1.0
C      1  0.5520380000000  0.4976270000000  0.6325280000000 1.0
C      1  0.4367510000000  0.5886480000000  0.4383600000000 1.0
C      1  0.4631170000000  0.3970060000000  0.4449760000000 1.0
C      1  0.4413110000000  0.5129580000000  0.6353940000000 1.0
C      1  0.4639920000000  0.7129960000000  0.5584630000000 1.0
C      1  0.4778670000000  0.3645250000000  0.6520820000000 1.0
C      1  0.4749030000000  0.4365750000000  0.2757860000000 1.0
C      1  0.5278150000000  0.3036640000000  0.5451330000000 1.0
C      1  0.5149110000000  0.6436570000000  0.6595200000000 1.0
C      1  0.5280210000000  0.5581380000000  0.2784670000000 1.0
C      1  0.5360080000000  0.2870040000000  0.4415370000000 1.0
C      1  0.5221330000000  0.6354750000000  0.3479180000000 1.0
C      1  0.5250970000000  0.5634250000000  0.7242140000000 1.0
C      1  0.4721850000000  0.6963360000000  0.4548670000000 1.0
C      1  0.4850890000000  0.3563430000000  0.3404800000000 1.0
C      1  0.4719790000000  0.4418620000000  0.7215330000000 1.0
C      1  0.4233910000000  0.5343900000000  0.7650440000000 1.0
C      1  0.4315550000000  0.2769370000000  0.3981770000000 1.0
C      1  0.4234080000000  0.6886850000000  0.3525870000000 1.0
C      1  0.5755880000000  0.4689440000000  0.7594610000000 1.0
C      1  0.5752900000000  0.7133920000000  0.4107680000000 1.0
C      1  0.5832390000000  0.3000340000000  0.3389480000000 1.0
C      1  0.5766090000000  0.4656100000000  0.2349560000000 1.0
C      1  0.5684450000000  0.7230630000000  0.6018230000000 1.0
C      1  0.5765920000000  0.3113150000000  0.6474130000000 1.0
C      1  0.4244120000000  0.5310560000000  0.2405390000000 1.0
C      1  0.4247100000000  0.2866080000000  0.5892320000000 1.0
C      1  0.4167610000000  0.6999660000000  0.6610520000000 1.0
C      1  0.3566320000000  0.4241260000000  0.4545520000000 1.0
C      1  0.3254610000000  0.5990300000000  0.4580100000000 1.0
C      1  0.3310440000000  0.5202330000000  0.6168630000000 1.0
C      1  0.6591370000000  0.5652810000000  0.4359140000000 1.0
C      1  0.6876320000000  0.3900330000000  0.4433880000000 1.0
C      1  0.6601650000000  0.4922590000000  0.6034910000000 1.0
C      1  0.6433680000000  0.5758740000000  0.5454480000000 1.0
C      1  0.6745390000000  0.4009700000000  0.5419900000000 1.0
C      1  0.6689550000000  0.4797670000000  0.3831370000000 1.0
C      1  0.3408630000000  0.4347190000000  0.5640860000000 1.0
C      1  0.3123680000000  0.6099670000000  0.5566120000000 1.0
C      1  0.3398350000000  0.5077410000000  0.3965090000000 1.0
C      1  0.6448820000000  0.6882140000000  0.5579620000000 1.0
C      1  0.6553050000000  0.3664380000000  0.6463830000000 1.0
C      1  0.6549660000000  0.4373790000000  0.2798700000000 1.0
C      1  0.3497890000000  0.3238960000000  0.5416340000000 1.0
C      1  0.3374290000000  0.6451470000000  0.6615700000000 1.0
C      1  0.3482800000000  0.5536120000000  0.2928010000000 1.0
C      1  0.3551180000000  0.3117860000000  0.4420380000000 1.0
C      1  0.3446950000000  0.6335620000000  0.3536170000000 1.0
C      1  0.3450340000000  0.5626210000000  0.7201300000000 1.0
C      1  0.6502110000000  0.6761040000000  0.4583660000000 1.0
C      1  0.6625710000000  0.3548530000000  0.3384300000000 1.0
C      1  0.6517200000000  0.4463880000000  0.7071990000000 1.0
END
