TITL C-3036481-494-118 -2.65853961400762e-06 3375 -322.119379770908 0 0 60 (C3i) n - 1
REM
REM in /home/bkarasulu/work/CARBON/AIRSS/Generating-Clusters/REBO/Higher-Symm/Only-C60
REM
REM
REM
REM
REM
REM ./C.cell (a2850807a9bf4ad07a5b6933b78d9264)
REM AIRSS Version 0.9.1 bugfix July 2018 build 013d7b7c2542+ Fri, 06 Jul 2018 19:26:36 +0100
REM compiler GCC version 9.2.1 20190827 (Red Hat 9.2.1-1)
REM options -cpp -mtune=generic -march=x86-64 -g -O0 -fpre-include=/usr/include/finclude/math-vector-fortran.h
REM seed 1068484232 -921879610 -1167228706 -477109794 877356668 -1698422691 918253991 2022591168 -354796700 -185536317 937620003 1189739113 -1078664040 -1464643506 -2095739031 115539209 171258308 -1274642548 766160591 2045694286 -270943267 -673809064 -1842980795 -1290435114 -899560098 296135679 1403601342 -1889941165 -67380202 -1767212254 1419964958 52573164 -1135119772
REM
CELL 1.54180   15.00000   15.00000   15.00000   90.00000   90.00000   90.00000
LATT -1
SFAC C  
C      1  0.6058130000000  0.6839570000000  0.5526160000000 1.0
C      1  0.5984750000000  0.3160450000000  0.4346690000000 1.0
C      1  0.4926570000000  0.6839570000000  0.3820550000000 1.0
C      1  0.3941870000000  0.3160430000000  0.4473840000000 1.0
C      1  0.4015250000000  0.6839550000000  0.5653310000000 1.0
C      1  0.5073430000000  0.3160430000000  0.6179450000000 1.0
C      1  0.3649270000000  0.5956210000000  0.6090490000000 1.0
C      1  0.5269030000000  0.4043770000000  0.6715000000000 1.0
C      1  0.6619740000000  0.5956240000000  0.5624520000000 1.0
C      1  0.6350730000000  0.4043790000000  0.3909510000000 1.0
C      1  0.4730970000000  0.5956230000000  0.3285000000000 1.0
C      1  0.3380260000000  0.4043760000000  0.4375480000000 1.0
C      1  0.5722210000000  0.6430160000000  0.6478900000000 1.0
C      1  0.6641880000000  0.3569850000000  0.5113980000000 1.0
C      1  0.5919640000000  0.6430180000000  0.3635100000000 1.0
C      1  0.4277790000000  0.3569840000000  0.3521100000000 1.0
C      1  0.3358120000000  0.6430150000000  0.4886020000000 1.0
C      1  0.4080360000000  0.3569820000000  0.6364900000000 1.0
C      1  0.7334830000000  0.4202040000000  0.4570740000000 1.0
C      1  0.5795660000000  0.5798000000000  0.2763360000000 1.0
C      1  0.3460850000000  0.4202010000000  0.3192610000000 1.0
C      1  0.2665170000000  0.5797960000000  0.5429260000000 1.0
C      1  0.4204340000000  0.4202000000000  0.7236640000000 1.0
C      1  0.6539150000000  0.5797990000000  0.6807390000000 1.0
C      1  0.3534390000000  0.3864270000000  0.5679850000000 1.0
C      1  0.4855950000000  0.6135710000000  0.6609190000000 1.0
C      1  0.6321590000000  0.3864290000000  0.5929330000000 1.0
C      1  0.6465610000000  0.6135730000000  0.4320150000000 1.0
C      1  0.5144050000000  0.3864290000000  0.3390810000000 1.0
C      1  0.3678410000000  0.6135710000000  0.4070670000000 1.0
C      1  0.6760490000000  0.5530900000000  0.3123900000000 1.0
C      1  0.4255500000000  0.4469120000000  0.2537310000000 1.0
C      1  0.2494990000000  0.5530860000000  0.4413420000000 1.0
C      1  0.3239510000000  0.4469100000000  0.6876100000000 1.0
C      1  0.5744500000000  0.5530880000000  0.7462690000000 1.0
C      1  0.7505010000000  0.4469140000000  0.5586580000000 1.0
C      1  0.4737050000000  0.4418430000000  0.5574990000000 1.0
C      1  0.5366480000000  0.5581570000000  0.5515230000000 1.0
C      1  0.5629450000000  0.4418440000000  0.4940230000000 1.0
C      1  0.5262950000000  0.5581570000000  0.4425010000000 1.0
C      1  0.4633520000000  0.4418430000000  0.4484770000000 1.0
C      1  0.4370550000000  0.5581560000000  0.5059770000000 1.0
C      1  0.3566920000000  0.4863350000000  0.5141530000000 1.0
C      1  0.4406030000000  0.5136630000000  0.6311850000000 1.0
C      1  0.5839120000000  0.4863370000000  0.6170320000000 1.0
C      1  0.6433080000000  0.5136650000000  0.4858470000000 1.0
C      1  0.5593970000000  0.4863370000000  0.3688150000000 1.0
C      1  0.4160880000000  0.5136630000000  0.3829680000000 1.0
C      1  0.4985710000000  0.5011460000000  0.2735560000000 1.0
C      1  0.3031790000000  0.4988540000000  0.3880160000000 1.0
C      1  0.3046090000000  0.5011430000000  0.6144600000000 1.0
C      1  0.5014290000000  0.4988540000000  0.7264440000000 1.0
C      1  0.6968210000000  0.5011460000000  0.6119840000000 1.0
C      1  0.6953910000000  0.4988570000000  0.3855400000000 1.0
C      1  0.4417000000000  0.7267660000000  0.4687620000000 1.0
C      1  0.4437990000000  0.2732330000000  0.5348680000000 1.0
C      1  0.5020930000000  0.7267660000000  0.5661080000000 1.0
C      1  0.5583000000000  0.2732340000000  0.5312380000000 1.0
C      1  0.5562010000000  0.7267670000000  0.4651320000000 1.0
C      1  0.4979070000000  0.2732340000000  0.4338920000000 1.0
END
