TITL C-3036479-9801-614 -0.00255611776077646 3375 -339.290677256408 0 0 60 (C6) n - 1
REM
REM in /home/bkarasulu/work/CARBON/AIRSS/Generating-Clusters/REBO/Higher-Symm/Only-C60
REM
REM
REM
REM
REM
REM ./C.cell (a2850807a9bf4ad07a5b6933b78d9264)
REM AIRSS Version 0.9.1 bugfix July 2018 build 013d7b7c2542+ Fri, 06 Jul 2018 19:26:36 +0100
REM compiler GCC version 9.2.1 20190827 (Red Hat 9.2.1-1)
REM options -cpp -mtune=generic -march=x86-64 -g -O0 -fpre-include=/usr/include/finclude/math-vector-fortran.h
REM seed 357830004 1976732026 1982717234 -2078528324 2140706592 652037670 1120949940 -1917145291 -1703947842 1564749706 454388007 698337535 -951894681 648677595 90682402 -527269869 -366834364 -268723760 -1236821865 -1002701854 2064436355 1001205817 -837407096 1966034413 -1012021158 -1470135655 -608182103 -809443246 1188090093 1964675098 431654603 1799945153 -1747448294
REM
CELL 1.54180   15.00000   15.00000   15.00000   90.00000   90.00000   90.00000
LATT -1
SFAC C  
C      1  0.4705590000000  0.5603120000000  0.3929140000000 1.0
C      1  0.3925390000000  0.5603160000000  0.4719560000000 1.0
C      1  0.4219800000000  0.5603140000000  0.5790420000000 1.0
C      1  0.5294410000000  0.5603120000000  0.6070860000000 1.0
C      1  0.6074610000000  0.5603160000000  0.5280440000000 1.0
C      1  0.5780200000000  0.5603140000000  0.4209580000000 1.0
C      1  0.4705590000000  0.4396880000000  0.6070860000000 1.0
C      1  0.3925390000000  0.4396840000000  0.5280440000000 1.0
C      1  0.4219800000000  0.4396860000000  0.4209580000000 1.0
C      1  0.5294410000000  0.4396880000000  0.3929140000000 1.0
C      1  0.6074610000000  0.4396840000000  0.4719560000000 1.0
C      1  0.5780200000000  0.4396860000000  0.5790420000000 1.0
C      1  0.3011480000000  0.3426600000000  0.5250430000000 1.0
C      1  0.4222610000000  0.3426600000000  0.6847340000000 1.0
C      1  0.6211150000000  0.3426560000000  0.6596920000000 1.0
C      1  0.6988520000000  0.3426600000000  0.4749570000000 1.0
C      1  0.5777390000000  0.3426600000000  0.3152660000000 1.0
C      1  0.3788850000000  0.3426560000000  0.3403080000000 1.0
C      1  0.3011480000000  0.6573400000000  0.4749570000000 1.0
C      1  0.4222610000000  0.6573400000000  0.3152660000000 1.0
C      1  0.6211150000000  0.6573440000000  0.3403080000000 1.0
C      1  0.6988520000000  0.6573400000000  0.5250430000000 1.0
C      1  0.5777390000000  0.6573400000000  0.6847340000000 1.0
C      1  0.3788850000000  0.6573440000000  0.6596920000000 1.0
C      1  0.4025850000000  0.4015900000000  0.2870820000000 1.0
C      1  0.2669010000000  0.4015920000000  0.4779070000000 1.0
C      1  0.3643170000000  0.4015940000000  0.6908250000000 1.0
C      1  0.5974150000000  0.4015900000000  0.7129180000000 1.0
C      1  0.7330990000000  0.4015920000000  0.5220930000000 1.0
C      1  0.6356830000000  0.4015940000000  0.3091750000000 1.0
C      1  0.4025850000000  0.5984100000000  0.7129180000000 1.0
C      1  0.2669010000000  0.5984080000000  0.5220930000000 1.0
C      1  0.3643170000000  0.5984060000000  0.3091750000000 1.0
C      1  0.5974150000000  0.5984100000000  0.2870820000000 1.0
C      1  0.7330990000000  0.5984080000000  0.4779070000000 1.0
C      1  0.6356830000000  0.5984060000000  0.6908250000000 1.0
C      1  0.4991300000000  0.3290890000000  0.6078710000000 1.0
C      1  0.5929850000000  0.3290880000000  0.5546890000000 1.0
C      1  0.5938540000000  0.3290880000000  0.4468180000000 1.0
C      1  0.5008700000000  0.3290890000000  0.3921290000000 1.0
C      1  0.4070150000000  0.3290880000000  0.4453110000000 1.0
C      1  0.4061460000000  0.3290880000000  0.5531820000000 1.0
C      1  0.4991300000000  0.6709110000000  0.3921290000000 1.0
C      1  0.5929850000000  0.6709120000000  0.4453110000000 1.0
C      1  0.5938540000000  0.6709120000000  0.5531820000000 1.0
C      1  0.5008700000000  0.6709110000000  0.6078710000000 1.0
C      1  0.4070150000000  0.6709120000000  0.5546890000000 1.0
C      1  0.4061460000000  0.6709120000000  0.4468180000000 1.0
C      1  0.4488400000000  0.4956720000000  0.3023720000000 1.0
C      1  0.3032690000000  0.4956740000000  0.4454910000000 1.0
C      1  0.3544260000000  0.4956760000000  0.6431230000000 1.0
C      1  0.5511600000000  0.4956720000000  0.6976280000000 1.0
C      1  0.6967310000000  0.4956740000000  0.5545090000000 1.0
C      1  0.6455740000000  0.4956760000000  0.3568770000000 1.0
C      1  0.4488400000000  0.5043280000000  0.6976280000000 1.0
C      1  0.3032690000000  0.5043260000000  0.5545090000000 1.0
C      1  0.3544260000000  0.5043240000000  0.3568770000000 1.0
C      1  0.5511600000000  0.5043280000000  0.3023720000000 1.0
C      1  0.6967310000000  0.5043260000000  0.4454910000000 1.0
C      1  0.6455740000000  0.5043240000000  0.6431230000000 1.0
END
