TITL C-3036482-790-101 -1.10915531466842e-05 3375 -340.997307291369 0 0 60 (C1) n - 1
REM
REM in /home/bkarasulu/work/CARBON/AIRSS/Generating-Clusters/REBO/Higher-Symm/Only-C60
REM
REM
REM
REM
REM
REM ./C.cell (a2850807a9bf4ad07a5b6933b78d9264)
REM AIRSS Version 0.9.1 bugfix July 2018 build 013d7b7c2542+ Fri, 06 Jul 2018 19:26:36 +0100
REM compiler GCC version 9.2.1 20190827 (Red Hat 9.2.1-1)
REM options -cpp -mtune=generic -march=x86-64 -g -O0 -fpre-include=/usr/include/finclude/math-vector-fortran.h
REM seed 2137574703 163535341 -1726059691 -347715152 669920207 942027062 1102369082 -1583384722 -1475749408 450189336 1268023241 -1592581496 -1537588256 -49635806 -1554291455 -228388747 -794542476 78223602 -1655874905 -2140068386 -247491823 -1515167122 -1057473117 1391255193 909405456 -1174437720 -1452675572 -1657604470 -814504543 -1558642464 -964115190 1551242586 -1492792984
REM
CELL 1.54180   15.00000   15.00000   15.00000   90.00000   90.00000   90.00000
LATT -1
SFAC C  
C      1  0.5834950000000  0.3462840000000  0.4081030000000 1.0
C      1  0.5343720000000  0.5058370000000  0.6091740000000 1.0
C      1  0.2836990000000  0.6480310000000  0.5513120000000 1.0
C      1  0.6286470000000  0.5854590000000  0.2918500000000 1.0
C      1  0.3777440000000  0.4733360000000  0.5641920000000 1.0
C      1  0.3020780000000  0.4328620000000  0.3120380000000 1.0
C      1  0.6618070000000  0.6763270000000  0.3339340000000 1.0
C      1  0.4630150000000  0.4575330000000  0.3804870000000 1.0
C      1  0.5000420000000  0.5978180000000  0.6685580000000 1.0
C      1  0.6715910000000  0.4932060000000  0.4160800000000 1.0
C      1  0.5576480000000  0.7116580000000  0.6302100000000 1.0
C      1  0.6885400000000  0.4843560000000  0.5474970000000 1.0
C      1  0.2878290000000  0.5647340000000  0.5935130000000 1.0
C      1  0.4007020000000  0.4662030000000  0.4516410000000 1.0
C      1  0.4143740000000  0.6424170000000  0.6224390000000 1.0
C      1  0.3807630000000  0.5425830000000  0.6508600000000 1.0
C      1  0.5819980000000  0.4274630000000  0.2653060000000 1.0
C      1  0.5915060000000  0.6969430000000  0.4207940000000 1.0
C      1  0.2778060000000  0.4864510000000  0.5120800000000 1.0
C      1  0.6457040000000  0.6468000000000  0.4982960000000 1.0
C      1  0.5366030000000  0.2916360000000  0.5996400000000 1.0
C      1  0.6131590000000  0.5434630000000  0.4845230000000 1.0
C      1  0.4702060000000  0.7338780000000  0.6095090000000 1.0
C      1  0.5122790000000  0.3386720000000  0.6779450000000 1.0
C      1  0.6530970000000  0.4215620000000  0.6260890000000 1.0
C      1  0.5629280000000  0.3694780000000  0.4958510000000 1.0
C      1  0.4592190000000  0.7747230000000  0.5285100000000 1.0
C      1  0.4105210000000  0.2641920000000  0.4568970000000 1.0
C      1  0.3838030000000  0.6668640000000  0.4082630000000 1.0
C      1  0.7410570000000  0.4229910000000  0.4723510000000 1.0
C      1  0.7313210000000  0.4148150000000  0.3585810000000 1.0
C      1  0.3183310000000  0.3432050000000  0.3289990000000 1.0
C      1  0.3248380000000  0.3944150000000  0.4723080000000 1.0
C      1  0.4356350000000  0.5037910000000  0.7327870000000 1.0
C      1  0.5293710000000  0.3880210000000  0.3424950000000 1.0
C      1  0.6785440000000  0.3295920000000  0.4016530000000 1.0
C      1  0.3758820000000  0.5827250000000  0.3313900000000 1.0
C      1  0.5815060000000  0.6106510000000  0.6018260000000 1.0
C      1  0.4166440000000  0.3529140000000  0.6946090000000 1.0
C      1  0.4611620000000  0.5885710000000  0.3996230000000 1.0
C      1  0.2951890000000  0.6398000000000  0.4568950000000 1.0
C      1  0.5357820000000  0.5178930000000  0.3157980000000 1.0
C      1  0.4816080000000  0.7117580000000  0.4453580000000 1.0
C      1  0.7119790000000  0.3198660000000  0.4999350000000 1.0
C      1  0.6827040000000  0.5871060000000  0.5886250000000 1.0
C      1  0.4222170000000  0.3775830000000  0.5878500000000 1.0
C      1  0.3414550000000  0.3181840000000  0.4185710000000 1.0
C      1  0.2676040000000  0.5501950000000  0.4305050000000 1.0
C      1  0.4596500000000  0.2874900000000  0.5339620000000 1.0
C      1  0.5423780000000  0.6249090000000  0.3518420000000 1.0
C      1  0.5613330000000  0.4247960000000  0.6850810000000 1.0
C      1  0.6463600000000  0.5234450000000  0.6774850000000 1.0
C      1  0.5485360000000  0.5240120000000  0.7384840000000 1.0
C      1  0.3053690000000  0.5208370000000  0.3471220000000 1.0
C      1  0.5014350000000  0.4384300000000  0.5338460000000 1.0
C      1  0.4593160000000  0.6331100000000  0.5229670000000 1.0
C      1  0.6335900000000  0.3319440000000  0.5687420000000 1.0
C      1  0.5071870000000  0.5389300000000  0.4840060000000 1.0
C      1  0.4025990000000  0.4217700000000  0.7572150000000 1.0
C      1  0.6642490000000  0.4854800000000  0.3035020000000 1.0
END
