TITL C-3036482-790-736 -4.13252656723062e-06 3375 -347.732264092528 0 0 60 (C1) n - 1
REM
REM in /home/bkarasulu/work/CARBON/AIRSS/Generating-Clusters/REBO/Higher-Symm/Only-C60
REM
REM
REM
REM
REM
REM ./C.cell (a2850807a9bf4ad07a5b6933b78d9264)
REM AIRSS Version 0.9.1 bugfix July 2018 build 013d7b7c2542+ Fri, 06 Jul 2018 19:26:36 +0100
REM compiler GCC version 9.2.1 20190827 (Red Hat 9.2.1-1)
REM options -cpp -mtune=generic -march=x86-64 -g -O0 -fpre-include=/usr/include/finclude/math-vector-fortran.h
REM seed 1353055637 353723069 955673330 -182248757 -1113122817 1928791205 311212824 -1247618855 -492185348 -708474677 616429005 -1688913995 -1108523794 15174701 251033380 -1497431952 -438808479 153092804 267334932 557614950 910166554 -1719042360 1043899393 -1170103331 1430434813 273836014 780615039 -1215434345 -1515260453 -105515964 -372846803 687778224 -134299950
REM
CELL 1.54180   15.00000   15.00000   15.00000   90.00000   90.00000   90.00000
LATT -1
SFAC C  
C      1  0.4147540000000  0.2682920000000  0.3798480000000 1.0
C      1  0.3717890000000  0.6363520000000  0.4806700000000 1.0
C      1  0.2518440000000  0.5171320000000  0.5109800000000 1.0
C      1  0.2459000000000  0.5132660000000  0.6056020000000 1.0
C      1  0.6539580000000  0.4016280000000  0.5873660000000 1.0
C      1  0.3268650000000  0.6399000000000  0.6707170000000 1.0
C      1  0.7070070000000  0.3424940000000  0.4812530000000 1.0
C      1  0.4354390000000  0.6657320000000  0.3993230000000 1.0
C      1  0.2973410000000  0.4388740000000  0.4685930000000 1.0
C      1  0.7418060000000  0.4280130000000  0.5207750000000 1.0
C      1  0.7197680000000  0.5032520000000  0.4511650000000 1.0
C      1  0.6644280000000  0.4670440000000  0.3595290000000 1.0
C      1  0.5158130000000  0.7082730000000  0.4240010000000 1.0
C      1  0.5265430000000  0.7213740000000  0.5311860000000 1.0
C      1  0.3808340000000  0.3786990000000  0.5946530000000 1.0
C      1  0.6872780000000  0.6440950000000  0.5364890000000 1.0
C      1  0.3596080000000  0.2885460000000  0.4699410000000 1.0
C      1  0.5794260000000  0.3232450000000  0.3997350000000 1.0
C      1  0.5127040000000  0.3982240000000  0.4228580000000 1.0
C      1  0.6353450000000  0.2989410000000  0.5582190000000 1.0
C      1  0.4313950000000  0.6071000000000  0.3275670000000 1.0
C      1  0.5283690000000  0.3676390000000  0.2754520000000 1.0
C      1  0.4000430000000  0.6592360000000  0.7401200000000 1.0
C      1  0.2761860000000  0.5967810000000  0.4711260000000 1.0
C      1  0.6685080000000  0.6592650000000  0.4403300000000 1.0
C      1  0.5409780000000  0.6178420000000  0.6879970000000 1.0
C      1  0.3847920000000  0.6529630000000  0.5809780000000 1.0
C      1  0.5487310000000  0.6116790000000  0.5093450000000 1.0
C      1  0.3216590000000  0.3550690000000  0.5247900000000 1.0
C      1  0.5861580000000  0.5339230000000  0.3118740000000 1.0
C      1  0.5553280000000  0.4453460000000  0.5766220000000 1.0
C      1  0.4348210000000  0.4205500000000  0.3043320000000 1.0
C      1  0.4422290000000  0.3098180000000  0.3020560000000 1.0
C      1  0.4710980000000  0.3494180000000  0.6278450000000 1.0
C      1  0.6056990000000  0.5370910000000  0.6775310000000 1.0
C      1  0.5836930000000  0.2545500000000  0.4702720000000 1.0
C      1  0.6078680000000  0.4052420000000  0.2850540000000 1.0
C      1  0.2945920000000  0.5451880000000  0.6784730000000 1.0
C      1  0.6225070000000  0.5526020000000  0.4527390000000 1.0
C      1  0.4904150000000  0.5159110000000  0.3039810000000 1.0
C      1  0.5370070000000  0.4833310000000  0.4772960000000 1.0
C      1  0.4440470000000  0.4682780000000  0.5739430000000 1.0
C      1  0.6021200000000  0.6248330000000  0.3048900000000 1.0
C      1  0.4559440000000  0.5632350000000  0.4816360000000 1.0
C      1  0.4657250000000  0.3113710000000  0.4682510000000 1.0
C      1  0.3958490000000  0.5452820000000  0.7325930000000 1.0
C      1  0.5217600000000  0.2906610000000  0.5594440000000 1.0
C      1  0.4051050000000  0.4667450000000  0.4728720000000 1.0
C      1  0.5012740000000  0.5171560000000  0.7221860000000 1.0
C      1  0.4559580000000  0.7241320000000  0.6032160000000 1.0
C      1  0.5980150000000  0.6853640000000  0.3787020000000 1.0
C      1  0.6082390000000  0.6734530000000  0.5858640000000 1.0
C      1  0.6669750000000  0.3614610000000  0.3957890000000 1.0
C      1  0.3577370000000  0.4481460000000  0.3755620000000 1.0
C      1  0.4151510000000  0.5529510000000  0.6228400000000 1.0
C      1  0.7119620000000  0.5538480000000  0.5512410000000 1.0
C      1  0.6674750000000  0.5041520000000  0.6180840000000 1.0
C      1  0.5165200000000  0.4252130000000  0.6766410000000 1.0
C      1  0.4809670000000  0.6903600000000  0.6938060000000 1.0
C      1  0.3686510000000  0.5294380000000  0.3037600000000 1.0
END
