TITL C-3036480-97-1054 2.27463459545708e-06 3375 -350.809964258216 0 0 60 (C5) n - 1
REM
REM in /home/bkarasulu/work/CARBON/AIRSS/Generating-Clusters/REBO/Higher-Symm/Only-C60
REM
REM
REM
REM
REM
REM ./C.cell (a2850807a9bf4ad07a5b6933b78d9264)
REM AIRSS Version 0.9.1 bugfix July 2018 build 013d7b7c2542+ Fri, 06 Jul 2018 19:26:36 +0100
REM compiler GCC version 9.2.1 20190827 (Red Hat 9.2.1-1)
REM options -cpp -mtune=generic -march=x86-64 -g -O0 -fpre-include=/usr/include/finclude/math-vector-fortran.h
REM seed 1686599054 -396354825 385072950 877659463 1801188273 -1943785471 1514259187 -1076486556 -266485940 1812462270 388086206 1381238634 -1316900507 -1017745058 -66940490 1899279492 -1412634051 -752525825 370165147 -1602814145 -215431557 118157323 1586632572 635210451 630802312 885067170 1809577400 78087202 -1803211097 -2099738433 -1146268135 -1305286500 1952866027
REM
CELL 1.54180   15.00000   15.00000   15.00000   90.00000   90.00000   90.00000
LATT -1
SFAC C  
C      1  0.6663290000000  0.3745160000000  0.3314980000000 1.0
C      1  0.6707430000000  0.6194110000000  0.3315010000000 1.0
C      1  0.4391980000000  0.6992860000000  0.3314990000000 1.0
C      1  0.2916810000000  0.5037560000000  0.3314960000000 1.0
C      1  0.4320560000000  0.3030370000000  0.3314950000000 1.0
C      1  0.5378420000000  0.4179020000000  0.4231340000000 1.0
C      1  0.5897750000000  0.5106200000000  0.4231360000000 1.0
C      1  0.5176430000000  0.5886630000000  0.4231360000000 1.0
C      1  0.4211300000000  0.5441780000000  0.4231350000000 1.0
C      1  0.4336140000000  0.4386420000000  0.4231340000000 1.0
C      1  0.2820440000000  0.4255930000000  0.3828170000000 1.0
C      1  0.5034150000000  0.2697180000000  0.3828170000000 1.0
C      1  0.7200680000000  0.4320870000000  0.3828210000000 1.0
C      1  0.6325960000000  0.6883110000000  0.3828230000000 1.0
C      1  0.3618820000000  0.6842970000000  0.3828200000000 1.0
C      1  0.5682190000000  0.3191830000000  0.6521900000000 1.0
C      1  0.6930450000000  0.5090050000000  0.6521930000000 1.0
C      1  0.5510880000000  0.6863800000000  0.6521940000000 1.0
C      1  0.3385270000000  0.6061830000000  0.6521910000000 1.0
C      1  0.3491140000000  0.3792430000000  0.6521890000000 1.0
C      1  0.6794500000000  0.5799970000000  0.4926890000000 1.0
C      1  0.4793710000000  0.6953880000000  0.4926880000000 1.0
C      1  0.3078010000000  0.5407590000000  0.4926850000000 1.0
C      1  0.4018430000000  0.3298030000000  0.4926840000000 1.0
C      1  0.6315350000000  0.3540530000000  0.4926860000000 1.0
C      1  0.6630100000000  0.7362600000000  0.5478580000000 1.0
C      1  0.3256760000000  0.7280410000000  0.5478550000000 1.0
C      1  0.2292510000000  0.4046760000000  0.5478510000000 1.0
C      1  0.5069920000000  0.2130460000000  0.5478520000000 1.0
C      1  0.7750700000000  0.4179760000000  0.5478560000000 1.0
C      1  0.7279030000000  0.3936470000000  0.4697340000000 1.0
C      1  0.6715730000000  0.6838840000000  0.4697360000000 1.0
C      1  0.3781360000000  0.7199990000000  0.4697340000000 1.0
C      1  0.2531110000000  0.4520840000000  0.4697300000000 1.0
C      1  0.4692790000000  0.2503870000000  0.4697300000000 1.0
C      1  0.4594850000000  0.4196190000000  0.5308650000000 1.0
C      1  0.5639260000000  0.4366290000000  0.5308660000000 1.0
C      1  0.5800230000000  0.5412150000000  0.5308680000000 1.0
C      1  0.4855300000000  0.5888430000000  0.5308670000000 1.0
C      1  0.4110340000000  0.5136920000000  0.5308660000000 1.0
C      1  0.1784050000000  0.3302700000000  0.5520940000000 1.0
C      1  0.5620440000000  0.1416950000000  0.5520960000000 1.0
C      1  0.8599400000000  0.4482840000000  0.5521020000000 1.0
C      1  0.6604100000000  0.8263430000000  0.5521030000000 1.0
C      1  0.2391990000000  0.7534060000000  0.5520990000000 1.0
C      1  0.5868250000000  0.3304520000000  0.3905190000000 1.0
C      1  0.6880810000000  0.5301820000000  0.3905220000000 1.0
C      1  0.5294170000000  0.6882030000000  0.3905230000000 1.0
C      1  0.3301010000000  0.5861350000000  0.3905200000000 1.0
C      1  0.3655810000000  0.3650330000000  0.3905180000000 1.0
C      1  0.2823020000000  0.4396530000000  0.6217440000000 1.0
C      1  0.4901200000000  0.2743090000000  0.6217440000000 1.0
C      1  0.7115900000000  0.4208610000000  0.6217470000000 1.0
C      1  0.6406490000000  0.6767790000000  0.6217490000000 1.0
C      1  0.3753340000000  0.6883930000000  0.6217470000000 1.0
C      1  0.3028450000000  0.5333550000000  0.6048490000000 1.0
C      1  0.4073520000000  0.3228020000000  0.6048480000000 1.0
C      1  0.6398940000000  0.3571300000000  0.6048500000000 1.0
C      1  0.6791060000000  0.5888980000000  0.6048530000000 1.0
C      1  0.4707980000000  0.6978110000000  0.6048520000000 1.0
END
