TITL C-3036485-3770-1067 0.0196303745156776 3375 -339.84548170362 0 0 60 (C3) n - 1
REM
REM in /home/bkarasulu/work/CARBON/AIRSS/Generating-Clusters/REBO/Higher-Symm/Only-C60
REM
REM
REM
REM
REM
REM ./C.cell (a2850807a9bf4ad07a5b6933b78d9264)
REM AIRSS Version 0.9.1 bugfix July 2018 build 013d7b7c2542+ Fri, 06 Jul 2018 19:26:36 +0100
REM compiler GCC version 9.2.1 20190827 (Red Hat 9.2.1-1)
REM options -cpp -mtune=generic -march=x86-64 -g -O0 -fpre-include=/usr/include/finclude/math-vector-fortran.h
REM seed -541293393 -232840263 -1692554062 -994129043 -664880923 1129044625 -797222328 1993593183 -928956220 -1439376298 -1159872743 -455116582 914281929 -1871249374 1554793433 -978230934 1819571155 535338527 628633659 -1517784113 158691953 -1057990494 1956681441 196977435 255063855 -1402705008 -1968957791 2141861014 -1918827586 -72442335 1372372199 514270255 884871897
REM
CELL 1.54180   15.00000   15.00000   15.00000   90.00000   90.00000   90.00000
LATT -1
SFAC C  
C      1  0.5207380000000  0.6430730000000  0.7232770000000 1.0
C      1  0.2965480000000  0.6427480000000  0.4063540000000 1.0
C      1  0.6833030000000  0.6432250000000  0.3702080000000 1.0
C      1  0.5244330000000  0.3666090000000  0.7232360000000 1.0
C      1  0.2946810000000  0.3665530000000  0.4098270000000 1.0
C      1  0.6811400000000  0.3666860000000  0.3670680000000 1.0
C      1  0.5858320000000  0.5858850000000  0.4368870000000 1.0
C      1  0.5110580000000  0.5858380000000  0.6055240000000 1.0
C      1  0.4033600000000  0.5859610000000  0.4574240000000 1.0
C      1  0.5811510000000  0.4206500000000  0.4334120000000 1.0
C      1  0.5160910000000  0.4204250000000  0.6034500000000 1.0
C      1  0.4024300000000  0.4202620000000  0.4630400000000 1.0
C      1  0.2703090000000  0.5462610000000  0.3525490000000 1.0
C      1  0.7430740000000  0.5467870000000  0.3750690000000 1.0
C      1  0.4869780000000  0.5466850000000  0.7729260000000 1.0
C      1  0.2716370000000  0.4637270000000  0.3603930000000 1.0
C      1  0.7354470000000  0.4642320000000  0.3723470000000 1.0
C      1  0.4930770000000  0.4641290000000  0.7677770000000 1.0
C      1  0.6481690000000  0.6749600000000  0.4744680000000 1.0
C      1  0.4476350000000  0.6749390000000  0.6411060000000 1.0
C      1  0.4042340000000  0.6748000000000  0.3843290000000 1.0
C      1  0.6456990000000  0.3231280000000  0.4660610000000 1.0
C      1  0.4557540000000  0.3230280000000  0.6436590000000 1.0
C      1  0.3980210000000  0.3229710000000  0.3905770000000 1.0
C      1  0.3908030000000  0.2989390000000  0.5855240000000 1.0
C      1  0.4807940000000  0.2989600000000  0.3631270000000 1.0
C      1  0.6274060000000  0.2991020000000  0.5513260000000 1.0
C      1  0.3832830000000  0.7013710000000  0.5835160000000 1.0
C      1  0.4861850000000  0.7011330000000  0.3570130000000 1.0
C      1  0.6303250000000  0.7010780000000  0.5590430000000 1.0
C      1  0.6952880000000  0.4381920000000  0.6510760000000 1.0
C      1  0.2708940000000  0.4383020000000  0.5938670000000 1.0
C      1  0.5334580000000  0.4385710000000  0.2546460000000 1.0
C      1  0.6852750000000  0.5398670000000  0.6563710000000 1.0
C      1  0.2715810000000  0.5399560000000  0.5823860000000 1.0
C      1  0.5430930000000  0.5401960000000  0.2609320000000 1.0
C      1  0.6546640000000  0.5446790000000  0.5014790000000 1.0
C      1  0.4208280000000  0.5446630000000  0.6337190000000 1.0
C      1  0.4248420000000  0.5445410000000  0.3656080000000 1.0
C      1  0.6524160000000  0.4522940000000  0.4979210000000 1.0
C      1  0.4248720000000  0.4522270000000  0.6336140000000 1.0
C      1  0.4227780000000  0.4521150000000  0.3691050000000 1.0
C      1  0.3431060000000  0.4072210000000  0.6467710000000 1.0
C      1  0.4518230000000  0.4073940000000  0.2913500000000 1.0
C      1  0.7046300000000  0.4071370000000  0.5620630000000 1.0
C      1  0.3350800000000  0.5822010000000  0.6389490000000 1.0
C      1  0.4625920000000  0.5822830000000  0.2885330000000 1.0
C      1  0.7021880000000  0.5821450000000  0.5730660000000 1.0
C      1  0.5658400000000  0.3299280000000  0.3707860000000 1.0
C      1  0.5780240000000  0.3297010000000  0.6211350000000 1.0
C      1  0.3558050000000  0.3295390000000  0.5075440000000 1.0
C      1  0.5720900000000  0.6758480000000  0.3690230000000 1.0
C      1  0.5769430000000  0.6757310000000  0.6273390000000 1.0
C      1  0.3511380000000  0.6758510000000  0.5030400000000 1.0
C      1  0.2967970000000  0.4477800000000  0.4901020000000 1.0
C      1  0.6108890000000  0.4480180000000  0.3284150000000 1.0
C      1  0.5926860000000  0.4478720000000  0.6810530000000 1.0
C      1  0.2964340000000  0.5570700000000  0.4822250000000 1.0
C      1  0.6180440000000  0.5573670000000  0.3318350000000 1.0
C      1  0.5863060000000  0.5571680000000  0.6855310000000 1.0
END
