TITL C-3036482-790-227 8.27607349280763e-07 3375 -336.486132413187 0 0 60 (C1) n - 1
REM
REM in /home/bkarasulu/work/CARBON/AIRSS/Generating-Clusters/REBO/Higher-Symm/Only-C60
REM
REM
REM
REM
REM
REM ./C.cell (a2850807a9bf4ad07a5b6933b78d9264)
REM AIRSS Version 0.9.1 bugfix July 2018 build 013d7b7c2542+ Fri, 06 Jul 2018 19:26:36 +0100
REM compiler GCC version 9.2.1 20190827 (Red Hat 9.2.1-1)
REM options -cpp -mtune=generic -march=x86-64 -g -O0 -fpre-include=/usr/include/finclude/math-vector-fortran.h
REM seed 681834445 722975020 -839984812 -148460236 -299885026 -978664774 -1833694001 -953656190 -1423757376 -753172474 -142030519 -1927330596 -1157510187 -1839138406 1497028986 324380640 -649583609 1042803463 -954734298 -989973760 1011682673 -2124446312 1944929286 -1330691316 1743860537 -289036201 806296342 -2017582053 217904530 538918626 -1423296872 -670092441 -1404240288
REM
CELL 1.54180   15.00000   15.00000   15.00000   90.00000   90.00000   90.00000
LATT -1
SFAC C  
C      1  0.6841320000000  0.5556040000000  0.6685040000000 1.0
C      1  0.7647220000000  0.5496270000000  0.5145260000000 1.0
C      1  0.6489070000000  0.5354030000000  0.5097780000000 1.0
C      1  0.5318130000000  0.7246420000000  0.5258720000000 1.0
C      1  0.4510140000000  0.6562710000000  0.2727230000000 1.0
C      1  0.5179300000000  0.5469550000000  0.6285410000000 1.0
C      1  0.4743660000000  0.3741810000000  0.4471930000000 1.0
C      1  0.3004330000000  0.6154930000000  0.4764970000000 1.0
C      1  0.2840860000000  0.5876490000000  0.5798280000000 1.0
C      1  0.4350030000000  0.3186340000000  0.5617710000000 1.0
C      1  0.3964880000000  0.5685450000000  0.5117290000000 1.0
C      1  0.4606830000000  0.7077260000000  0.6129400000000 1.0
C      1  0.6764300000000  0.5456190000000  0.4006440000000 1.0
C      1  0.4767260000000  0.2534050000000  0.5027780000000 1.0
C      1  0.4476590000000  0.4318410000000  0.3113400000000 1.0
C      1  0.4104860000000  0.6592980000000  0.4153940000000 1.0
C      1  0.6797760000000  0.6443060000000  0.4021340000000 1.0
C      1  0.6101850000000  0.5974930000000  0.7096740000000 1.0
C      1  0.5267790000000  0.4275760000000  0.7282450000000 1.0
C      1  0.4232620000000  0.4658790000000  0.4708400000000 1.0
C      1  0.3036500000000  0.6628930000000  0.3764040000000 1.0
C      1  0.2529050000000  0.4317820000000  0.4758940000000 1.0
C      1  0.6019520000000  0.5117670000000  0.3419210000000 1.0
C      1  0.5495180000000  0.4966060000000  0.5362000000000 1.0
C      1  0.2869600000000  0.3608970000000  0.4132020000000 1.0
C      1  0.5774900000000  0.4004640000000  0.4791010000000 1.0
C      1  0.5507990000000  0.4104370000000  0.3375460000000 1.0
C      1  0.5284550000000  0.5865720000000  0.3133420000000 1.0
C      1  0.5446070000000  0.6494170000000  0.6351080000000 1.0
C      1  0.3522850000000  0.3022890000000  0.6024870000000 1.0
C      1  0.3734130000000  0.4870700000000  0.6711950000000 1.0
C      1  0.7591260000000  0.4469150000000  0.5565800000000 1.0
C      1  0.2553570000000  0.4277430000000  0.5708440000000 1.0
C      1  0.5769930000000  0.2684800000000  0.4700910000000 1.0
C      1  0.6993180000000  0.6054070000000  0.5801710000000 1.0
C      1  0.4857680000000  0.4091040000000  0.5776080000000 1.0
C      1  0.3726540000000  0.6776150000000  0.2890920000000 1.0
C      1  0.6067590000000  0.6862030000000  0.4494420000000 1.0
C      1  0.5145830000000  0.4932840000000  0.4078570000000 1.0
C      1  0.4257280000000  0.7017030000000  0.5040290000000 1.0
C      1  0.6547260000000  0.4156900000000  0.4202680000000 1.0
C      1  0.3635730000000  0.5670780000000  0.3669840000000 1.0
C      1  0.3308320000000  0.4852210000000  0.4202660000000 1.0
C      1  0.3703470000000  0.6510870000000  0.5859000000000 1.0
C      1  0.2710730000000  0.3424140000000  0.6084790000000 1.0
C      1  0.6160790000000  0.4166200000000  0.7138900000000 1.0
C      1  0.5660930000000  0.3156480000000  0.3718640000000 1.0
C      1  0.3796090000000  0.3879820000000  0.3725770000000 1.0
C      1  0.7397690000000  0.4627460000000  0.4459320000000 1.0
C      1  0.6255940000000  0.3244800000000  0.5487140000000 1.0
C      1  0.6981530000000  0.4511910000000  0.6530960000000 1.0
C      1  0.2950090000000  0.5017810000000  0.6177300000000 1.0
C      1  0.6239120000000  0.6724450000000  0.5607560000000 1.0
C      1  0.4675830000000  0.4890240000000  0.6857900000000 1.0
C      1  0.7102250000000  0.3572450000000  0.5900720000000 1.0
C      1  0.5173080000000  0.6503630000000  0.4015300000000 1.0
C      1  0.4952740000000  0.5759050000000  0.4754900000000 1.0
C      1  0.4363950000000  0.5282840000000  0.3058690000000 1.0
C      1  0.5511640000000  0.3491180000000  0.6190380000000 1.0
C      1  0.4680790000000  0.2728850000000  0.3966930000000 1.0
END
