TITL C-3036483-1610-577 0.0441786569828774 3375 -364.302064342759 0 0 60 (C4) n - 1
REM
REM in /home/bkarasulu/work/CARBON/AIRSS/Generating-Clusters/REBO/Higher-Symm/Only-C60
REM
REM
REM
REM
REM
REM ./C.cell (a2850807a9bf4ad07a5b6933b78d9264)
REM AIRSS Version 0.9.1 bugfix July 2018 build 013d7b7c2542+ Fri, 06 Jul 2018 19:26:36 +0100
REM compiler GCC version 9.2.1 20190827 (Red Hat 9.2.1-1)
REM options -cpp -mtune=generic -march=x86-64 -g -O0 -fpre-include=/usr/include/finclude/math-vector-fortran.h
REM seed -2083673125 1941699333 -924682939 632939827 307888732 896986025 1898915845 2090710684 -408141592 -1778486846 -152089647 -736653163 1344105017 256603529 2128677453 222105006 2010728811 -461738111 -402467979 157777491 1394348774 -1188152476 1209333031 -1717537778 833498961 -725910536 -1117782808 -920617857 72701440 840446706 632650902 1439320504 -1519906427
REM
CELL 1.54180   15.00000   15.00000   15.00000   90.00000   90.00000   90.00000
LATT -1
SFAC C  
C      1  0.5314270000000  0.2493450000000  0.6921810000000 1.0
C      1  0.5317820000000  0.3082560000000  0.2492590000000 1.0
C      1  0.5307020000000  0.7509860000000  0.3075190000000 1.0
C      1  0.5312510000000  0.6924970000000  0.7504570000000 1.0
C      1  0.5336210000000  0.2491880000000  0.3097580000000 1.0
C      1  0.5338610000000  0.3100410000000  0.7509940000000 1.0
C      1  0.5342640000000  0.7510750000000  0.6895500000000 1.0
C      1  0.5330880000000  0.6902670000000  0.2486690000000 1.0
C      1  0.6117680000000  0.5527340000000  0.7136330000000 1.0
C      1  0.6117420000000  0.2863480000000  0.5527820000000 1.0
C      1  0.6123150000000  0.4477870000000  0.2871640000000 1.0
C      1  0.6120770000000  0.7132730000000  0.4469430000000 1.0
C      1  0.6167760000000  0.5463710000000  0.2952170000000 1.0
C      1  0.6163520000000  0.2946410000000  0.4537960000000 1.0
C      1  0.6162980000000  0.4537220000000  0.7054850000000 1.0
C      1  0.6166570000000  0.7048910000000  0.5460260000000 1.0
C      1  0.3438540000000  0.5476520000000  0.6603060000000 1.0
C      1  0.3438690000000  0.3396790000000  0.5475640000000 1.0
C      1  0.3438670000000  0.4524050000000  0.3395970000000 1.0
C      1  0.3436820000000  0.6603110000000  0.4524080000000 1.0
C      1  0.3438040000000  0.5472530000000  0.3393740000000 1.0
C      1  0.3439870000000  0.3393850000000  0.4526770000000 1.0
C      1  0.3439870000000  0.4527670000000  0.6606260000000 1.0
C      1  0.3439680000000  0.6606990000000  0.5472530000000 1.0
C      1  0.5176660000000  0.4058160000000  0.2830330000000 1.0
C      1  0.5168780000000  0.7173340000000  0.4052930000000 1.0
C      1  0.5169030000000  0.5947540000000  0.7172020000000 1.0
C      1  0.5171250000000  0.2828180000000  0.5945710000000 1.0
C      1  0.5207500000000  0.4071610000000  0.7154900000000 1.0
C      1  0.5210660000000  0.7153230000000  0.5925590000000 1.0
C      1  0.5205380000000  0.5929490000000  0.2843850000000 1.0
C      1  0.5207120000000  0.2845510000000  0.4071050000000 1.0
C      1  0.4207590000000  0.3264790000000  0.3957440000000 1.0
C      1  0.4204920000000  0.6041960000000  0.3264040000000 1.0
C      1  0.4208650000000  0.6735910000000  0.6040010000000 1.0
C      1  0.4207690000000  0.3958490000000  0.6735800000000 1.0
C      1  0.4202870000000  0.3268850000000  0.6045750000000 1.0
C      1  0.4202440000000  0.6046730000000  0.6730290000000 1.0
C      1  0.4200280000000  0.6731040000000  0.3953890000000 1.0
C      1  0.4204430000000  0.3955760000000  0.3268590000000 1.0
C      1  0.6661730000000  0.4403300000000  0.6145190000000 1.0
C      1  0.6660870000000  0.3854470000000  0.4410010000000 1.0
C      1  0.6651580000000  0.5587360000000  0.3859700000000 1.0
C      1  0.6657480000000  0.6136610000000  0.5590660000000 1.0
C      1  0.6635060000000  0.4533180000000  0.3772270000000 1.0
C      1  0.6640400000000  0.3763350000000  0.5471970000000 1.0
C      1  0.6641000000000  0.5466290000000  0.6235520000000 1.0
C      1  0.6633430000000  0.6225120000000  0.4530760000000 1.0
C      1  0.5227350000000  0.4537730000000  0.6113540000000 1.0
C      1  0.5227090000000  0.3886490000000  0.4537770000000 1.0
C      1  0.5225690000000  0.5464440000000  0.3885980000000 1.0
C      1  0.5227170000000  0.6111800000000  0.5460730000000 1.0
C      1  0.5238870000000  0.4536830000000  0.3866730000000 1.0
C      1  0.5239510000000  0.3864090000000  0.5465520000000 1.0
C      1  0.5239440000000  0.5465800000000  0.6136430000000 1.0
C      1  0.5238250000000  0.6136950000000  0.4532780000000 1.0
C      1  0.2891770000000  0.4063190000000  0.5939630000000 1.0
C      1  0.2891490000000  0.5940770000000  0.5937240000000 1.0
C      1  0.2891610000000  0.4059850000000  0.4062000000000 1.0
C      1  0.2890060000000  0.5936070000000  0.4060980000000 1.0
END
