TITL C-3036485-3770-967 -0.000659738141695035 3375 -347.661842080051 0 0 60 (C1) n - 1
REM
REM in /home/bkarasulu/work/CARBON/AIRSS/Generating-Clusters/REBO/Higher-Symm/Only-C60
REM
REM
REM
REM
REM
REM ./C.cell (a2850807a9bf4ad07a5b6933b78d9264)
REM AIRSS Version 0.9.1 bugfix July 2018 build 013d7b7c2542+ Fri, 06 Jul 2018 19:26:36 +0100
REM compiler GCC version 9.2.1 20190827 (Red Hat 9.2.1-1)
REM options -cpp -mtune=generic -march=x86-64 -g -O0 -fpre-include=/usr/include/finclude/math-vector-fortran.h
REM seed 1482247891 -1172014481 -1320729707 1396167088 735072670 -513678491 276713213 1084964596 -1635983516 -638709503 79305071 1834304025 -206349850 554443247 -1903519105 -354919910 -1422733402 1707261725 -1118458717 360112120 -1096531268 -209107332 -31013799 -2054123195 826344531 1009305952 -215553539 2027399306 983821998 1847000866 296293362 -1789636230 -315093616
REM
CELL 1.54180   15.00000   15.00000   15.00000   90.00000   90.00000   90.00000
LATT -1
SFAC C  
C      1  0.4651370000000  0.2918970000000  0.6868770000000 1.0
C      1  0.4276330000000  0.7607930000000  0.6041360000000 1.0
C      1  0.4309030000000  0.4558940000000  0.2363010000000 1.0
C      1  0.5709350000000  0.2935860000000  0.6738260000000 1.0
C      1  0.5351200000000  0.7612200000000  0.5950540000000 1.0
C      1  0.5377350000000  0.4456890000000  0.2333240000000 1.0
C      1  0.4554370000000  0.7052240000000  0.6857230000000 1.0
C      1  0.4341260000000  0.2328520000000  0.6066230000000 1.0
C      1  0.4624920000000  0.5540970000000  0.2410470000000 1.0
C      1  0.5624590000000  0.7121430000000  0.6809520000000 1.0
C      1  0.5407950000000  0.2438160000000  0.5894660000000 1.0
C      1  0.5688500000000  0.5452530000000  0.2225100000000 1.0
C      1  0.5468140000000  0.5535030000000  0.4006100000000 1.0
C      1  0.5708010000000  0.4038540000000  0.4920390000000 1.0
C      1  0.5502610000000  0.5646220000000  0.5712350000000 1.0
C      1  0.4384650000000  0.5486610000000  0.4263160000000 1.0
C      1  0.4595130000000  0.3862450000000  0.5087360000000 1.0
C      1  0.4485960000000  0.5428600000000  0.6054550000000 1.0
C      1  0.5796130000000  0.4565550000000  0.4040870000000 1.0
C      1  0.5373890000000  0.6165270000000  0.4836630000000 1.0
C      1  0.5477730000000  0.4596210000000  0.5751580000000 1.0
C      1  0.4679690000000  0.4479640000000  0.4206380000000 1.0
C      1  0.4326520000000  0.5982220000000  0.5185400000000 1.0
C      1  0.4411920000000  0.4390000000000  0.5988610000000 1.0
C      1  0.5586020000000  0.7220100000000  0.4963200000000 1.0
C      1  0.5675840000000  0.3894080000000  0.3174970000000 1.0
C      1  0.5452070000000  0.3996880000000  0.6720140000000 1.0
C      1  0.4462930000000  0.7098040000000  0.5112060000000 1.0
C      1  0.4532200000000  0.3960510000000  0.3235600000000 1.0
C      1  0.4325410000000  0.3913210000000  0.6933740000000 1.0
C      1  0.5535280000000  0.2927520000000  0.4956230000000 1.0
C      1  0.5620800000000  0.6081320000000  0.3103750000000 1.0
C      1  0.5429770000000  0.6061540000000  0.6751570000000 1.0
C      1  0.4412010000000  0.2793820000000  0.5094510000000 1.0
C      1  0.4488920000000  0.6094960000000  0.3306500000000 1.0
C      1  0.4301340000000  0.6003070000000  0.6945820000000 1.0
C      1  0.6484240000000  0.6836000000000  0.4558740000000 1.0
C      1  0.6604690000000  0.3593460000000  0.3662580000000 1.0
C      1  0.6438670000000  0.4508790000000  0.6650940000000 1.0
C      1  0.3581430000000  0.6906250000000  0.4584790000000 1.0
C      1  0.3628100000000  0.3770340000000  0.3809920000000 1.0
C      1  0.3392010000000  0.4439740000000  0.6831870000000 1.0
C      1  0.6497750000000  0.3043170000000  0.4535470000000 1.0
C      1  0.6538400000000  0.6255590000000  0.3698300000000 1.0
C      1  0.6361190000000  0.5527110000000  0.6714130000000 1.0
C      1  0.3558710000000  0.3169740000000  0.4629550000000 1.0
C      1  0.3541660000000  0.6355010000000  0.3725240000000 1.0
C      1  0.3354610000000  0.5481540000000  0.6739230000000 1.0
C      1  0.3025000000000  0.6087190000000  0.4920220000000 1.0
C      1  0.3079760000000  0.4600180000000  0.4083110000000 1.0
C      1  0.3074840000000  0.4565130000000  0.5821490000000 1.0
C      1  0.6856860000000  0.5917060000000  0.4941050000000 1.0
C      1  0.7123930000000  0.4450330000000  0.4011800000000 1.0
C      1  0.6920490000000  0.4356330000000  0.5707400000000 1.0
C      1  0.3124730000000  0.4065580000000  0.5003300000000 1.0
C      1  0.2989190000000  0.5525630000000  0.4034620000000 1.0
C      1  0.3011630000000  0.5620140000000  0.5744100000000 1.0
C      1  0.7029020000000  0.3880480000000  0.4888590000000 1.0
C      1  0.7019760000000  0.5383380000000  0.4035690000000 1.0
C      1  0.6814130000000  0.5415790000000  0.5758000000000 1.0
END
