TITL C-3036480-97-919 3.89575267555375e-06 3375 -352.074053823004 0 0 60 (C3) n - 1
REM
REM in /home/bkarasulu/work/CARBON/AIRSS/Generating-Clusters/REBO/Higher-Symm/Only-C60
REM
REM
REM
REM
REM
REM ./C.cell (a2850807a9bf4ad07a5b6933b78d9264)
REM AIRSS Version 0.9.1 bugfix July 2018 build 013d7b7c2542+ Fri, 06 Jul 2018 19:26:36 +0100
REM compiler GCC version 9.2.1 20190827 (Red Hat 9.2.1-1)
REM options -cpp -mtune=generic -march=x86-64 -g -O0 -fpre-include=/usr/include/finclude/math-vector-fortran.h
REM seed 1096766263 436930180 -1320291967 2084692693 524016818 139970400 809662318 -4663467 -125554064 -1759444753 -137262151 14368759 -1354998664 1225034370 452876750 -432392546 -1801346898 -1284838804 1708086236 1548128970 -533223057 -1460651836 1046441497 579694200 -1959557551 -858544235 1153614740 263007155 778198296 1693043241 475878830 -556237109 -971234941
REM
CELL 1.54180   15.00000   15.00000   15.00000   90.00000   90.00000   90.00000
LATT -1
SFAC C  
C      1  0.5527980000000  0.6337170000000  0.4953460000000 1.0
C      1  0.3576230000000  0.4787880000000  0.4946330000000 1.0
C      1  0.5895870000000  0.3875230000000  0.4955800000000 1.0
C      1  0.4300550000000  0.4205750000000  0.5459750000000 1.0
C      1  0.6039950000000  0.4792850000000  0.5464380000000 1.0
C      1  0.4659150000000  0.6002920000000  0.5460360000000 1.0
C      1  0.4173540000000  0.4288930000000  0.6505270000000 1.0
C      1  0.6031460000000  0.4640700000000  0.6508780000000 1.0
C      1  0.4797900000000  0.6072270000000  0.6506970000000 1.0
C      1  0.3870230000000  0.7139600000000  0.5566480000000 1.0
C      1  0.3719310000000  0.2955130000000  0.5556130000000 1.0
C      1  0.7418600000000  0.4910180000000  0.5565160000000 1.0
C      1  0.2842070000000  0.4804410000000  0.5773610000000 1.0
C      1  0.6253590000000  0.3226270000000  0.5777970000000 1.0
C      1  0.5912650000000  0.6969800000000  0.5775220000000 1.0
C      1  0.6801620000000  0.3876310000000  0.4290880000000 1.0
C      1  0.5070700000000  0.7120920000000  0.4290720000000 1.0
C      1  0.3124600000000  0.4003610000000  0.4282780000000 1.0
C      1  0.3120160000000  0.4848730000000  0.3698680000000 1.0
C      1  0.6068970000000  0.3455980000000  0.3706200000000 1.0
C      1  0.5796380000000  0.6695810000000  0.3701710000000 1.0
C      1  0.3398740000000  0.6388560000000  0.5848900000000 1.0
C      1  0.4602760000000  0.2921220000000  0.5843760000000 1.0
C      1  0.7004450000000  0.5694010000000  0.5848990000000 1.0
C      1  0.4001010000000  0.5700150000000  0.4669410000000 1.0
C      1  0.4896900000000  0.3788510000000  0.4675420000000 1.0
C      1  0.6105210000000  0.5513240000000  0.4675950000000 1.0
C      1  0.3518780000000  0.4981000000000  0.6546890000000 1.0
C      1  0.5758610000000  0.3727420000000  0.6548910000000 1.0
C      1  0.5724970000000  0.6292880000000  0.6547340000000 1.0
C      1  0.8081490000000  0.5066070000000  0.4667710000000 1.0
C      1  0.3402720000000  0.7637910000000  0.4670910000000 1.0
C      1  0.3520170000000  0.2298130000000  0.4662480000000 1.0
C      1  0.5465600000000  0.2649060000000  0.5245740000000 1.0
C      1  0.6806220000000  0.6572270000000  0.5241530000000 1.0
C      1  0.2736580000000  0.5777420000000  0.5243960000000 1.0
C      1  0.2978810000000  0.3721780000000  0.5576490000000 1.0
C      1  0.7122570000000  0.3885960000000  0.5583940000000 1.0
C      1  0.4906000000000  0.7394120000000  0.5584210000000 1.0
C      1  0.7008860000000  0.4926560000000  0.4299760000000 1.0
C      1  0.4057450000000  0.6778260000000  0.4300090000000 1.0
C      1  0.3940710000000  0.3293670000000  0.4288520000000 1.0
C      1  0.4458360000000  0.5743520000000  0.3621900000000 1.0
C      1  0.4606750000000  0.4155390000000  0.3628750000000 1.0
C      1  0.5902770000000  0.5088230000000  0.3634390000000 1.0
C      1  0.5382060000000  0.5880070000000  0.3413680000000 1.0
C      1  0.4031800000000  0.4896730000000  0.3406150000000 1.0
C      1  0.5564130000000  0.4219320000000  0.3426390000000 1.0
C      1  0.6643610000000  0.6670770000000  0.4122610000000 1.0
C      1  0.2721990000000  0.5593360000000  0.4124480000000 1.0
C      1  0.5631700000000  0.2729990000000  0.4126320000000 1.0
C      1  0.7808060000000  0.3966590000000  0.4736970000000 1.0
C      1  0.4492370000000  0.7948820000000  0.4738360000000 1.0
C      1  0.2707800000000  0.3087490000000  0.4728040000000 1.0
C      1  0.3833230000000  0.5864240000000  0.6496960000000 1.0
C      1  0.4836590000000  0.3558440000000  0.6494030000000 1.0
C      1  0.6334060000000  0.5580080000000  0.6498570000000 1.0
C      1  0.4635320000000  0.2441610000000  0.4497600000000 1.0
C      1  0.7397100000000  0.5956240000000  0.4491060000000 1.0
C      1  0.2972150000000  0.6600470000000  0.4496210000000 1.0
END
