TITL C-3036480-97-1196 -5.85300201839461e-06 3375 -343.567476008106 0 0 60 (S10) n - 1
REM
REM in /home/bkarasulu/work/CARBON/AIRSS/Generating-Clusters/REBO/Higher-Symm/Only-C60
REM
REM
REM
REM
REM
REM ./C.cell (a2850807a9bf4ad07a5b6933b78d9264)
REM AIRSS Version 0.9.1 bugfix July 2018 build 013d7b7c2542+ Fri, 06 Jul 2018 19:26:36 +0100
REM compiler GCC version 9.2.1 20190827 (Red Hat 9.2.1-1)
REM options -cpp -mtune=generic -march=x86-64 -g -O0 -fpre-include=/usr/include/finclude/math-vector-fortran.h
REM seed 1211988528 1446424139 -211791265 -442173295 -194008920 -1929595560 -1039253512 1065385400 -1213750612 812345380 1829890130 609746822 -544444706 -320930711 -848364830 -1421704713 -580191314 404139178 -1614556482 -1848213432 -1857851945 1927731916 -1747419379 -544200606 1066745058 30501823 -1412572376 2053169278 1087151827 1342420522 1973484501 87820255 -585713716
REM
CELL 1.54180   15.00000   15.00000   15.00000   90.00000   90.00000   90.00000
LATT -1
SFAC C  
C      1  0.4493640000000  0.6120560000000  0.6755030000000 1.0
C      1  0.5621950000000  0.3879410000000  0.6717460000000 1.0
C      1  0.6512650000000  0.6120590000000  0.6023900000000 1.0
C      1  0.6825610000000  0.3879430000000  0.4939220000000 1.0
C      1  0.6441210000000  0.6120600000000  0.3877790000000 1.0
C      1  0.5506360000000  0.3879440000000  0.3244970000000 1.0
C      1  0.4378050000000  0.6120590000000  0.3282540000000 1.0
C      1  0.3487350000000  0.3879410000000  0.3976100000000 1.0
C      1  0.3174390000000  0.6120570000000  0.5060780000000 1.0
C      1  0.3558790000000  0.3879400000000  0.6122210000000 1.0
C      1  0.5917190000000  0.3194690000000  0.4991510000000 1.0
C      1  0.5737010000000  0.6805330000000  0.4454060000000 1.0
C      1  0.5275380000000  0.3194690000000  0.4125080000000 1.0
C      1  0.4708500000000  0.6805330000000  0.4130350000000 1.0
C      1  0.4253020000000  0.3194680000000  0.4467740000000 1.0
C      1  0.4082810000000  0.6805310000000  0.5008490000000 1.0
C      1  0.4262990000000  0.3194670000000  0.5545940000000 1.0
C      1  0.4724620000000  0.6805310000000  0.5874920000000 1.0
C      1  0.5291500000000  0.3194670000000  0.5869650000000 1.0
C      1  0.5746980000000  0.6805320000000  0.5532260000000 1.0
C      1  0.5837830000000  0.7158550000000  0.6512150000000 1.0
C      1  0.6566660000000  0.2841450000000  0.5730850000000 1.0
C      1  0.6697020000000  0.7158570000000  0.4670450000000 1.0
C      1  0.6179240000000  0.2841460000000  0.3735870000000 1.0
C      1  0.5210960000000  0.7158570000000  0.3284200000000 1.0
C      1  0.4162170000000  0.2841450000000  0.3487850000000 1.0
C      1  0.3433340000000  0.7158550000000  0.4269150000000 1.0
C      1  0.3302980000000  0.2841430000000  0.5329550000000 1.0
C      1  0.3820760000000  0.7158540000000  0.6264130000000 1.0
C      1  0.4789040000000  0.2841430000000  0.6715800000000 1.0
C      1  0.5180220000000  0.5401520000000  0.7266060000000 1.0
C      1  0.6477760000000  0.4598470000000  0.6727340000000 1.0
C      1  0.7210840000000  0.5401550000000  0.5528850000000 1.0
C      1  0.7099460000000  0.4598490000000  0.4128350000000 1.0
C      1  0.6186150000000  0.5401560000000  0.3060790000000 1.0
C      1  0.4819780000000  0.4598480000000  0.2733940000000 1.0
C      1  0.3522240000000  0.5401530000000  0.3272660000000 1.0
C      1  0.2789160000000  0.4598450000000  0.4471150000000 1.0
C      1  0.2900540000000  0.5401510000000  0.5871650000000 1.0
C      1  0.3813850000000  0.4598440000000  0.6939210000000 1.0
C      1  0.2867020000000  0.3551910000000  0.4876610000000 1.0
C      1  0.3201840000000  0.6448040000000  0.6153940000000 1.0
C      1  0.4223540000000  0.3551910000000  0.6990460000000 1.0
C      1  0.5541780000000  0.6448060000000  0.7066730000000 1.0
C      1  0.6653120000000  0.3551940000000  0.6353550000000 1.0
C      1  0.7132980000000  0.6448090000000  0.5123390000000 1.0
C      1  0.6798160000000  0.3551960000000  0.3846060000000 1.0
C      1  0.5776460000000  0.6448090000000  0.3009540000000 1.0
C      1  0.4458220000000  0.3551940000000  0.2933270000000 1.0
C      1  0.3346880000000  0.6448060000000  0.3646450000000 1.0
C      1  0.4867890000000  0.4462930000000  0.7217540000000 1.0
C      1  0.6196550000000  0.5537050000000  0.6871690000000 1.0
C      1  0.7068190000000  0.4462960000000  0.5810900000000 1.0
C      1  0.7149830000000  0.5537080000000  0.4440390000000 1.0
C      1  0.6410330000000  0.4462970000000  0.3283620000000 1.0
C      1  0.5132110000000  0.5537070000000  0.2782460000000 1.0
C      1  0.3803450000000  0.4462950000000  0.3128310000000 1.0
C      1  0.2931810000000  0.5537040000000  0.4189100000000 1.0
C      1  0.2850170000000  0.4462920000000  0.5559610000000 1.0
C      1  0.3589670000000  0.5537030000000  0.6716380000000 1.0
END
