TITL C-3036481-494-22 -0.001133792292852 3375 -349.308319686866 0 0 60 (C2) n - 1
REM
REM in /home/bkarasulu/work/CARBON/AIRSS/Generating-Clusters/REBO/Higher-Symm/Only-C60
REM
REM
REM
REM
REM
REM ./C.cell (a2850807a9bf4ad07a5b6933b78d9264)
REM AIRSS Version 0.9.1 bugfix July 2018 build 013d7b7c2542+ Fri, 06 Jul 2018 19:26:36 +0100
REM compiler GCC version 9.2.1 20190827 (Red Hat 9.2.1-1)
REM options -cpp -mtune=generic -march=x86-64 -g -O0 -fpre-include=/usr/include/finclude/math-vector-fortran.h
REM seed -1300793174 -1166084003 1383806297 1159813119 1661811721 -193193977 1708121111 -1635864759 -2074670681 1804049658 -18095169 811738091 715829388 -1731695035 1002886795 2107596846 -349422878 -528166900 -964076464 -1600641889 -1094381406 505150854 -1327106829 -844005124 -1782854840 -1532724179 809024764 -1561616658 775915331 341860198 780094434 -1231504391 1426613504
REM
CELL 1.54180   15.00000   15.00000   15.00000   90.00000   90.00000   90.00000
LATT -1
SFAC C  
C      1  0.5811120000000  0.6218260000000  0.6768320000000 1.0
C      1  0.6784050000000  0.5867860000000  0.6328830000000 1.0
C      1  0.6270050000000  0.6775260000000  0.5916190000000 1.0
C      1  0.5767070000000  0.3776620000000  0.3262480000000 1.0
C      1  0.4233000000000  0.3776890000000  0.6737420000000 1.0
C      1  0.4189080000000  0.6217850000000  0.3232080000000 1.0
C      1  0.6731320000000  0.4131830000000  0.3721650000000 1.0
C      1  0.3268560000000  0.4131780000000  0.6278640000000 1.0
C      1  0.3216160000000  0.5867480000000  0.3671490000000 1.0
C      1  0.6171630000000  0.3274470000000  0.4177750000000 1.0
C      1  0.3828240000000  0.3274590000000  0.5822190000000 1.0
C      1  0.3730040000000  0.6775070000000  0.4083900000000 1.0
C      1  0.4126290000000  0.6281990000000  0.6737720000000 1.0
C      1  0.3283770000000  0.5813670000000  0.6167440000000 1.0
C      1  0.3777500000000  0.6737090000000  0.5769230000000 1.0
C      1  0.4081870000000  0.3723350000000  0.3224650000000 1.0
C      1  0.5918030000000  0.3723730000000  0.6775130000000 1.0
C      1  0.5873740000000  0.6282080000000  0.3262240000000 1.0
C      1  0.3226720000000  0.4181490000000  0.3779930000000 1.0
C      1  0.6772970000000  0.4181970000000  0.6219770000000 1.0
C      1  0.6716180000000  0.5813810000000  0.3832570000000 1.0
C      1  0.3676860000000  0.3219710000000  0.4142210000000 1.0
C      1  0.6322970000000  0.3220180000000  0.5857540000000 1.0
C      1  0.6222730000000  0.6737450000000  0.4230640000000 1.0
C      1  0.5472260000000  0.2611780000000  0.4532120000000 1.0
C      1  0.4542480000000  0.5490530000000  0.2600880000000 1.0
C      1  0.2542450000000  0.4418520000000  0.5614970000000 1.0
C      1  0.5600500000000  0.7478380000000  0.5602640000000 1.0
C      1  0.4399490000000  0.7478280000000  0.4397400000000 1.0
C      1  0.4527700000000  0.2611910000000  0.5467830000000 1.0
C      1  0.4564200000000  0.4506720000000  0.7384810000000 1.0
C      1  0.5435900000000  0.4506500000000  0.2615140000000 1.0
C      1  0.5457600000000  0.5490790000000  0.7399370000000 1.0
C      1  0.2519400000000  0.5578370000000  0.4365170000000 1.0
C      1  0.7480570000000  0.5578740000000  0.5634840000000 1.0
C      1  0.7457660000000  0.4418850000000  0.4384980000000 1.0
C      1  0.4367870000000  0.2521980000000  0.4430900000000 1.0
C      1  0.5586880000000  0.5609750000000  0.2543300000000 1.0
C      1  0.7398590000000  0.4541020000000  0.5490070000000 1.0
C      1  0.4502770000000  0.7391050000000  0.5441260000000 1.0
C      1  0.5497270000000  0.7391190000000  0.4558740000000 1.0
C      1  0.5632090000000  0.2522240000000  0.5569060000000 1.0
C      1  0.5606470000000  0.4391210000000  0.7482900000000 1.0
C      1  0.4393580000000  0.4390980000000  0.2517100000000 1.0
C      1  0.4413130000000  0.5609890000000  0.7456860000000 1.0
C      1  0.7379500000000  0.5461920000000  0.4531830000000 1.0
C      1  0.2620700000000  0.5461490000000  0.5468070000000 1.0
C      1  0.2601160000000  0.4540600000000  0.4509800000000 1.0
C      1  0.5066870000000  0.3189680000000  0.6303040000000 1.0
C      1  0.4994800000000  0.6810770000000  0.6303130000000 1.0
C      1  0.5005260000000  0.6810670000000  0.3697000000000 1.0
C      1  0.4933070000000  0.3189380000000  0.3696840000000 1.0
C      1  0.3193860000000  0.6302980000000  0.4932700000000 1.0
C      1  0.6280910000000  0.5003690000000  0.3215400000000 1.0
C      1  0.3194800000000  0.3696960000000  0.5019040000000 1.0
C      1  0.6804940000000  0.3697440000000  0.4980660000000 1.0
C      1  0.6806330000000  0.6303440000000  0.5067170000000 1.0
C      1  0.6324600000000  0.4992180000000  0.6830520000000 1.0
C      1  0.3675420000000  0.4991770000000  0.3169570000000 1.0
C      1  0.3718950000000  0.5003850000000  0.6784870000000 1.0
END
