TITL C-3036483-1610-51 0.0109522776160645 3375 -345.049327804741 0 0 60 (C1) n - 1
REM
REM in /home/bkarasulu/work/CARBON/AIRSS/Generating-Clusters/REBO/Higher-Symm/Only-C60
REM
REM
REM
REM
REM
REM ./C.cell (a2850807a9bf4ad07a5b6933b78d9264)
REM AIRSS Version 0.9.1 bugfix July 2018 build 013d7b7c2542+ Fri, 06 Jul 2018 19:26:36 +0100
REM compiler GCC version 9.2.1 20190827 (Red Hat 9.2.1-1)
REM options -cpp -mtune=generic -march=x86-64 -g -O0 -fpre-include=/usr/include/finclude/math-vector-fortran.h
REM seed 1905134285 1065828559 1227949460 1001432233 786260108 -1242083023 -1865317846 1438963483 494677302 337116786 -1277410277 997151868 2976401 -2103662914 1479278788 -1566935763 -227496947 1217873206 805153457 1892749927 -1225357205 2102164316 -1605838393 409271087 -835828776 1756560907 -984337513 -1036890035 -1976671982 -1592437323 -183855047 -2100234929 -699665227
REM
CELL 1.54180   15.00000   15.00000   15.00000   90.00000   90.00000   90.00000
LATT -1
SFAC C  
C      1  0.4067650000000  0.3217230000000  0.5454770000000 1.0
C      1  0.3896720000000  0.3130320000000  0.4341380000000 1.0
C      1  0.3378710000000  0.6332220000000  0.3991120000000 1.0
C      1  0.3481700000000  0.6357110000000  0.5890370000000 1.0
C      1  0.5805420000000  0.5615650000000  0.3286420000000 1.0
C      1  0.5897420000000  0.5621410000000  0.6875260000000 1.0
C      1  0.6464740000000  0.6450720000000  0.4609970000000 1.0
C      1  0.6520410000000  0.6474260000000  0.5511810000000 1.0
C      1  0.6006190000000  0.6411200000000  0.3789460000000 1.0
C      1  0.6082660000000  0.6417810000000  0.6346010000000 1.0
C      1  0.5507910000000  0.2562850000000  0.5567570000000 1.0
C      1  0.5575200000000  0.2562720000000  0.4423720000000 1.0
C      1  0.6029080000000  0.5240640000000  0.5616320000000 1.0
C      1  0.5964790000000  0.5157820000000  0.4523920000000 1.0
C      1  0.4759870000000  0.5507450000000  0.2969000000000 1.0
C      1  0.4813390000000  0.5488010000000  0.7068260000000 1.0
C      1  0.5017130000000  0.3795190000000  0.5451810000000 1.0
C      1  0.4835030000000  0.3665500000000  0.4464020000000 1.0
C      1  0.3712790000000  0.7242140000000  0.5395780000000 1.0
C      1  0.3520660000000  0.7264140000000  0.4410590000000 1.0
C      1  0.2846070000000  0.5377470000000  0.3995220000000 1.0
C      1  0.2935190000000  0.5377730000000  0.5968360000000 1.0
C      1  0.4779640000000  0.4350000000000  0.7043640000000 1.0
C      1  0.4714350000000  0.4367160000000  0.2948440000000 1.0
C      1  0.4813930000000  0.6593810000000  0.7133010000000 1.0
C      1  0.4847540000000  0.6625350000000  0.2899860000000 1.0
C      1  0.4823120000000  0.7366930000000  0.5594040000000 1.0
C      1  0.4664130000000  0.7367910000000  0.4470620000000 1.0
C      1  0.3812890000000  0.5210700000000  0.3416240000000 1.0
C      1  0.3919790000000  0.5202350000000  0.6516080000000 1.0
C      1  0.4522040000000  0.6285790000000  0.5804560000000 1.0
C      1  0.4396170000000  0.6322010000000  0.4116020000000 1.0
C      1  0.3882890000000  0.5198380000000  0.5381890000000 1.0
C      1  0.3823280000000  0.5206070000000  0.4548330000000 1.0
C      1  0.5329240000000  0.7095980000000  0.3592170000000 1.0
C      1  0.5355840000000  0.7041710000000  0.6501320000000 1.0
C      1  0.5117900000000  0.5697040000000  0.5389980000000 1.0
C      1  0.5042170000000  0.5707180000000  0.4382420000000 1.0
C      1  0.3400950000000  0.3746750000000  0.5961360000000 1.0
C      1  0.3271890000000  0.3738850000000  0.3904370000000 1.0
C      1  0.6972370000000  0.5353670000000  0.6112840000000 1.0
C      1  0.6891970000000  0.5331810000000  0.3994680000000 1.0
C      1  0.6253820000000  0.4636480000000  0.3334670000000 1.0
C      1  0.6346940000000  0.4643960000000  0.6763310000000 1.0
C      1  0.7001650000000  0.4122080000000  0.6000140000000 1.0
C      1  0.6926580000000  0.4100050000000  0.4059470000000 1.0
C      1  0.7640340000000  0.4773160000000  0.4554520000000 1.0
C      1  0.7678160000000  0.4788180000000  0.5485450000000 1.0
C      1  0.5735460000000  0.3111180000000  0.6338830000000 1.0
C      1  0.5673130000000  0.3077120000000  0.3611340000000 1.0
C      1  0.2845810000000  0.4367940000000  0.5454310000000 1.0
C      1  0.2795390000000  0.4363520000000  0.4486730000000 1.0
C      1  0.5978350000000  0.4172390000000  0.5573830000000 1.0
C      1  0.5872190000000  0.4065670000000  0.4475860000000 1.0
C      1  0.3826330000000  0.4143980000000  0.6710520000000 1.0
C      1  0.3719470000000  0.4167150000000  0.3179570000000 1.0
C      1  0.4600490000000  0.2330830000000  0.4626210000000 1.0
C      1  0.4492910000000  0.2188150000000  0.5661760000000 1.0
C      1  0.5595940000000  0.3933290000000  0.6827050000000 1.0
C      1  0.5516170000000  0.3935830000000  0.3193430000000 1.0
END
