TITL C-3036483-1610-231 0.00517029163559485 3375 -340.186793433231 0 0 60 (C1) n - 1
REM
REM in /home/bkarasulu/work/CARBON/AIRSS/Generating-Clusters/REBO/Higher-Symm/Only-C60
REM
REM
REM
REM
REM
REM ./C.cell (a2850807a9bf4ad07a5b6933b78d9264)
REM AIRSS Version 0.9.1 bugfix July 2018 build 013d7b7c2542+ Fri, 06 Jul 2018 19:26:36 +0100
REM compiler GCC version 9.2.1 20190827 (Red Hat 9.2.1-1)
REM options -cpp -mtune=generic -march=x86-64 -g -O0 -fpre-include=/usr/include/finclude/math-vector-fortran.h
REM seed -1614796826 625727887 -1789121024 -1918698727 24680527 -661968058 745279314 -560819931 -1730765360 -1937199397 1744943974 -235486583 -1622598856 1806218459 700358346 1958756887 157087175 -2019973265 -1934410825 -2070348820 -767160832 601355869 1862767390 676097278 865960944 -637261564 -1499250463 -522131075 -764316021 592136634 -1166605509 -1611646533 -1929898761
REM
CELL 1.54180   15.00000   15.00000   15.00000   90.00000   90.00000   90.00000
LATT -1
SFAC C  
C      1  0.6862560000000  0.4461460000000  0.6589610000000 1.0
C      1  0.7578010000000  0.5684590000000  0.5191460000000 1.0
C      1  0.4490140000000  0.3949840000000  0.6655550000000 1.0
C      1  0.7260260000000  0.4858180000000  0.4783300000000 1.0
C      1  0.4453700000000  0.4733210000000  0.2565780000000 1.0
C      1  0.5295140000000  0.3732510000000  0.5618680000000 1.0
C      1  0.3724460000000  0.6124410000000  0.5198750000000 1.0
C      1  0.3722550000000  0.5142670000000  0.5305040000000 1.0
C      1  0.4397790000000  0.4425820000000  0.5729480000000 1.0
C      1  0.3873300000000  0.2793390000000  0.5723020000000 1.0
C      1  0.5584070000000  0.5527420000000  0.6344070000000 1.0
C      1  0.6069120000000  0.4190360000000  0.3308660000000 1.0
C      1  0.5703570000000  0.7340310000000  0.6149160000000 1.0
C      1  0.4065710000000  0.3095550000000  0.6611710000000 1.0
C      1  0.4851530000000  0.7390450000000  0.5714960000000 1.0
C      1  0.5472270000000  0.3240470000000  0.3245000000000 1.0
C      1  0.4122830000000  0.1983190000000  0.5409210000000 1.0
C      1  0.5421480000000  0.4882270000000  0.2831970000000 1.0
C      1  0.3056960000000  0.5483410000000  0.3881380000000 1.0
C      1  0.5773670000000  0.5524450000000  0.5329940000000 1.0
C      1  0.3577660000000  0.3531130000000  0.5185730000000 1.0
C      1  0.4911700000000  0.2961780000000  0.4011010000000 1.0
C      1  0.5494460000000  0.3315990000000  0.4686080000000 1.0
C      1  0.6138750000000  0.6247900000000  0.4672270000000 1.0
C      1  0.7044470000000  0.6557240000000  0.4945490000000 1.0
C      1  0.2943700000000  0.4149800000000  0.5664970000000 1.0
C      1  0.4119830000000  0.7005700000000  0.3846200000000 1.0
C      1  0.6711300000000  0.4848530000000  0.3980720000000 1.0
C      1  0.4867270000000  0.6569910000000  0.3211250000000 1.0
C      1  0.5617340000000  0.6838900000000  0.3953660000000 1.0
C      1  0.5974460000000  0.4743130000000  0.6830610000000 1.0
C      1  0.2880010000000  0.4743380000000  0.4725970000000 1.0
C      1  0.5645780000000  0.6473190000000  0.6835470000000 1.0
C      1  0.4971590000000  0.5693910000000  0.4281870000000 1.0
C      1  0.3494360000000  0.6322180000000  0.4171790000000 1.0
C      1  0.3276290000000  0.4618760000000  0.6442280000000 1.0
C      1  0.5401420000000  0.3966300000000  0.6925010000000 1.0
C      1  0.3994070000000  0.2823100000000  0.3992590000000 1.0
C      1  0.6629340000000  0.6886770000000  0.6512230000000 1.0
C      1  0.5897700000000  0.3213240000000  0.6430530000000 1.0
C      1  0.4254450000000  0.4918440000000  0.3863490000000 1.0
C      1  0.5648570000000  0.5750890000000  0.3137130000000 1.0
C      1  0.7270140000000  0.6478660000000  0.5965080000000 1.0
C      1  0.2991560000000  0.4163050000000  0.3851750000000 1.0
C      1  0.4674990000000  0.7422480000000  0.4687050000000 1.0
C      1  0.4325960000000  0.5706280000000  0.3040530000000 1.0
C      1  0.3231180000000  0.3297530000000  0.3907140000000 1.0
C      1  0.4220880000000  0.6847090000000  0.6203330000000 1.0
C      1  0.3297900000000  0.6770270000000  0.5924730000000 1.0
C      1  0.6248690000000  0.3635740000000  0.4257540000000 1.0
C      1  0.4622140000000  0.5989200000000  0.6666500000000 1.0
C      1  0.4673430000000  0.6375090000000  0.4870080000000 1.0
C      1  0.7088060000000  0.4142460000000  0.5522290000000 1.0
C      1  0.6104810000000  0.4444620000000  0.5304010000000 1.0
C      1  0.5226290000000  0.4724900000000  0.4732900000000 1.0
C      1  0.3876590000000  0.5241770000000  0.6728740000000 1.0
C      1  0.3438060000000  0.4771450000000  0.3079390000000 1.0
C      1  0.6292870000000  0.5701720000000  0.3803210000000 1.0
C      1  0.6847990000000  0.3410140000000  0.6341270000000 1.0
C      1  0.4294810000000  0.4133450000000  0.4621370000000 1.0
END
