TITL C-3036480-97-415 9.64846175852342e-06 3375 -348.563362762299 0 0 60 (C5) n - 1
REM
REM in /home/bkarasulu/work/CARBON/AIRSS/Generating-Clusters/REBO/Higher-Symm/Only-C60
REM
REM
REM
REM
REM
REM ./C.cell (a2850807a9bf4ad07a5b6933b78d9264)
REM AIRSS Version 0.9.1 bugfix July 2018 build 013d7b7c2542+ Fri, 06 Jul 2018 19:26:36 +0100
REM compiler GCC version 9.2.1 20190827 (Red Hat 9.2.1-1)
REM options -cpp -mtune=generic -march=x86-64 -g -O0 -fpre-include=/usr/include/finclude/math-vector-fortran.h
REM seed 832770024 -1948213110 -736681255 -1763338028 -1772285103 -1198858544 34263527 -2102860723 1053673738 -1414766292 -968428668 -1360911758 -1930179423 583657170 -249692142 -976553936 2001273084 -2044243353 -1015674612 687952952 126477974 -408630198 -1354817751 157206755 1259786480 1331107019 1700739539 1883053351 -1138040952 -1150078768 -546396861 1146454785 1144606288
REM
CELL 1.54180   15.00000   15.00000   15.00000   90.00000   90.00000   90.00000
LATT -1
SFAC C  
C      1  0.5868600000000  0.5850470000000  0.5251480000000 1.0
C      1  0.5507580000000  0.5850470000000  0.4251620000000 1.0
C      1  0.4445100000000  0.5850470000000  0.4286000000000 1.0
C      1  0.4149470000000  0.5850460000000  0.5307100000000 1.0
C      1  0.5029230000000  0.5850470000000  0.5903800000000 1.0
C      1  0.5016950000000  0.4244960000000  0.5909320000000 1.0
C      1  0.5870060000000  0.4244960000000  0.5264870000000 1.0
C      1  0.5520780000000  0.4244960000000  0.4254380000000 1.0
C      1  0.4451800000000  0.4244960000000  0.4274310000000 1.0
C      1  0.4140430000000  0.4244950000000  0.5297120000000 1.0
C      1  0.3199740000000  0.4388660000000  0.6213440000000 1.0
C      1  0.5597740000000  0.4388670000000  0.7087130000000 1.0
C      1  0.7169690000000  0.4388680000000  0.5076470000000 1.0
C      1  0.5743200000000  0.4388670000000  0.2960140000000 1.0
C      1  0.3289640000000  0.4388660000000  0.3662820000000 1.0
C      1  0.4580850000000  0.3923000000000  0.7126240000000 1.0
C      1  0.6892660000000  0.3923020000000  0.6055680000000 1.0
C      1  0.6588880000000  0.3923020000000  0.3526200000000 1.0
C      1  0.4089330000000  0.3923010000000  0.3033460000000 1.0
C      1  0.2848300000000  0.3923000000000  0.5258410000000 1.0
C      1  0.6454570000000  0.3075490000000  0.6092990000000 1.0
C      1  0.6488990000000  0.3075490000000  0.3954380000000 1.0
C      1  0.4465690000000  0.3075480000000  0.3260780000000 1.0
C      1  0.3180800000000  0.3075480000000  0.4970720000000 1.0
C      1  0.4410000000000  0.3075480000000  0.6721120000000 1.0
C      1  0.5406130000000  0.3158790000000  0.5856140000000 1.0
C      1  0.5939740000000  0.3158790000000  0.4878320000000 1.0
C      1  0.5174680000000  0.3158790000000  0.4068650000000 1.0
C      1  0.4168220000000  0.3158790000000  0.4546080000000 1.0
C      1  0.4311270000000  0.3158790000000  0.5650800000000 1.0
C      1  0.2607800000000  0.6329240000000  0.4471540000000 1.0
C      1  0.3758170000000  0.6329240000000  0.7111810000000 1.0
C      1  0.6624700000000  0.6329250000000  0.6833630000000 1.0
C      1  0.7245940000000  0.6329260000000  0.4021440000000 1.0
C      1  0.4763360000000  0.6329250000000  0.2561580000000 1.0
C      1  0.4805610000000  0.4508080000000  0.2695950000000 1.0
C      1  0.2748650000000  0.4508070000000  0.4472890000000 1.0
C      1  0.3802980000000  0.4508070000000  0.6978270000000 1.0
C      1  0.6511550000000  0.4508080000000  0.6749750000000 1.0
C      1  0.7131210000000  0.4508090000000  0.4103130000000 1.0
C      1  0.5935280000000  0.6930920000000  0.4887160000000 1.0
C      1  0.5181690000000  0.6930910000000  0.4075620000000 1.0
C      1  0.4177000000000  0.6930910000000  0.4541540000000 1.0
C      1  0.4309650000000  0.6930910000000  0.5641040000000 1.0
C      1  0.5396330000000  0.6930910000000  0.5854650000000 1.0
C      1  0.4054780000000  0.5454620000000  0.7161140000000 1.0
C      1  0.6763280000000  0.5454630000000  0.6566780000000 1.0
C      1  0.7034980000000  0.5454640000000  0.3807180000000 1.0
C      1  0.4494410000000  0.5454630000000  0.2696020000000 1.0
C      1  0.2652550000000  0.5454620000000  0.4768880000000 1.0
C      1  0.6069340000000  0.7021220000000  0.6630520000000 1.0
C      1  0.6881150000000  0.7021230000000  0.4486850000000 1.0
C      1  0.5093260000000  0.7021220000000  0.3052340000000 1.0
C      1  0.3176480000000  0.7021210000000  0.4309430000000 1.0
C      1  0.3779720000000  0.7021210000000  0.6520870000000 1.0
C      1  0.4923400000000  0.5114540000000  0.6592440000000 1.0
C      1  0.6490830000000  0.5114550000000  0.5564940000000 1.0
C      1  0.5997980000000  0.5114550000000  0.3756720000000 1.0
C      1  0.4125960000000  0.5114540000000  0.3666670000000 1.0
C      1  0.3461830000000  0.5114530000000  0.5419240000000 1.0
END
