TITL C-3036482-790-1061 0.0309886541105518 3375 -317.707175413454 0 0 60 (C2) n - 1
REM
REM in /home/bkarasulu/work/CARBON/AIRSS/Generating-Clusters/REBO/Higher-Symm/Only-C60
REM
REM
REM
REM
REM
REM ./C.cell (a2850807a9bf4ad07a5b6933b78d9264)
REM AIRSS Version 0.9.1 bugfix July 2018 build 013d7b7c2542+ Fri, 06 Jul 2018 19:26:36 +0100
REM compiler GCC version 9.2.1 20190827 (Red Hat 9.2.1-1)
REM options -cpp -mtune=generic -march=x86-64 -g -O0 -fpre-include=/usr/include/finclude/math-vector-fortran.h
REM seed 1468639925 -1406635994 680650417 2046441558 1228206202 -198390489 1389203216 -1402240367 -917660243 1129666980 -1967067858 1357366043 1710466560 566155506 1122216765 2076885229 1849388783 -553296116 231484682 1011831161 659075152 194198616 -1333342197 -982338262 -687937976 1313587149 -122619101 -1651866168 -61293082 -123755689 406972850 -1694041042 -946622917
REM
CELL 1.54180   15.00000   15.00000   15.00000   90.00000   90.00000   90.00000
LATT -1
SFAC C  
C      1  0.4647620000000  0.7323710000000  0.4694690000000 1.0
C      1  0.5352370000000  0.2676290000000  0.4694680000000 1.0
C      1  0.5023800000000  0.5541810000000  0.3023970000000 1.0
C      1  0.4976200000000  0.4458190000000  0.3023970000000 1.0
C      1  0.3544350000000  0.3121010000000  0.5048020000000 1.0
C      1  0.6455640000000  0.6878970000000  0.5048020000000 1.0
C      1  0.4774140000000  0.5624610000000  0.4821810000000 1.0
C      1  0.5225840000000  0.4375400000000  0.4821790000000 1.0
C      1  0.6706320000000  0.4114790000000  0.7391610000000 1.0
C      1  0.3293670000000  0.5885200000000  0.7391610000000 1.0
C      1  0.3569350000000  0.5776310000000  0.4283360000000 1.0
C      1  0.6430640000000  0.4223690000000  0.4283360000000 1.0
C      1  0.6867210000000  0.5585100000000  0.6088510000000 1.0
C      1  0.3132790000000  0.4414890000000  0.6088530000000 1.0
C      1  0.5056280000000  0.6597000000000  0.5342260000000 1.0
C      1  0.4943700000000  0.3402970000000  0.5342210000000 1.0
C      1  0.5972700000000  0.4084220000000  0.5624040000000 1.0
C      1  0.4027400000000  0.5915800000000  0.5624020000000 1.0
C      1  0.3652400000000  0.5220670000000  0.6692810000000 1.0
C      1  0.6347600000000  0.4779310000000  0.6692790000000 1.0
C      1  0.7143830000000  0.6196630000000  0.5221510000000 1.0
C      1  0.2856170000000  0.3803370000000  0.5221520000000 1.0
C      1  0.3933720000000  0.2812320000000  0.5944870000000 1.0
C      1  0.6066260000000  0.7187670000000  0.5944860000000 1.0
C      1  0.6401870000000  0.3333730000000  0.7182480000000 1.0
C      1  0.3598130000000  0.6666290000000  0.7182450000000 1.0
C      1  0.5961780000000  0.4036240000000  0.2834890000000 1.0
C      1  0.4038220000000  0.5963770000000  0.2834870000000 1.0
C      1  0.5797240000000  0.3394320000000  0.6405660000000 1.0
C      1  0.4202890000000  0.6605540000000  0.6405680000000 1.0
C      1  0.2785370000000  0.4813590000000  0.3655840000000 1.0
C      1  0.7214630000000  0.5186400000000  0.3655850000000 1.0
C      1  0.5024600000000  0.2660590000000  0.6222120000000 1.0
C      1  0.4975410000000  0.7339400000000  0.6222110000000 1.0
C      1  0.6164680000000  0.2688990000000  0.4076010000000 1.0
C      1  0.3835320000000  0.7311010000000  0.4076020000000 1.0
C      1  0.6004350000000  0.5686920000000  0.3410610000000 1.0
C      1  0.3995650000000  0.4313080000000  0.3410620000000 1.0
C      1  0.4747530000000  0.5508600000000  0.6581890000000 1.0
C      1  0.5252400000000  0.4491560000000  0.6581950000000 1.0
C      1  0.5607830000000  0.4731080000000  0.3905860000000 1.0
C      1  0.4392170000000  0.5268910000000  0.3905880000000 1.0
C      1  0.5899010000000  0.5894790000000  0.5750920000000 1.0
C      1  0.4100990000000  0.4105230000000  0.5750930000000 1.0
C      1  0.3419470000000  0.5211600000000  0.3004380000000 1.0
C      1  0.6580530000000  0.4788400000000  0.3004390000000 1.0
C      1  0.4024000000000  0.3409970000000  0.4053390000000 1.0
C      1  0.5976000000000  0.6590030000000  0.4053390000000 1.0
C      1  0.4159660000000  0.6848610000000  0.3211230000000 1.0
C      1  0.5840340000000  0.3151390000000  0.3211230000000 1.0
C      1  0.6875460000000  0.4573760000000  0.5685060000000 1.0
C      1  0.3124550000000  0.5426220000000  0.5685060000000 1.0
C      1  0.3128000000000  0.4800970000000  0.4738890000000 1.0
C      1  0.6872000000000  0.5199030000000  0.4738900000000 1.0
C      1  0.5106070000000  0.7078960000000  0.3792540000000 1.0
C      1  0.4893930000000  0.2921040000000  0.3792530000000 1.0
C      1  0.4521500000000  0.3610210000000  0.6583090000000 1.0
C      1  0.5478420000000  0.6389810000000  0.6583050000000 1.0
C      1  0.5858840000000  0.5732790000000  0.4727720000000 1.0
C      1  0.4141160000000  0.4267230000000  0.4727700000000 1.0
END
