TITL C-3036484-3770-793 -0.0169370772190351 3375 -346.127211696089 0 0 60 (C1) n - 1
REM
REM in /home/bkarasulu/work/CARBON/AIRSS/Generating-Clusters/REBO/Higher-Symm/Only-C60
REM
REM
REM
REM
REM
REM ./C.cell (a2850807a9bf4ad07a5b6933b78d9264)
REM AIRSS Version 0.9.1 bugfix July 2018 build 013d7b7c2542+ Fri, 06 Jul 2018 19:26:36 +0100
REM compiler GCC version 9.2.1 20190827 (Red Hat 9.2.1-1)
REM options -cpp -mtune=generic -march=x86-64 -g -O0 -fpre-include=/usr/include/finclude/math-vector-fortran.h
REM seed 1925558228 -2124397987 489942758 1683267478 -45779227 1431393269 128555179 -1043988316 -1364219778 -47680967 438817760 -2030495497 -1238933816 -1273709407 1463895654 531817314 2102105068 -774584666 -2124901848 -1471387501 1194497053 1522104066 69961088 331384726 -92145085 -1721671141 -514247409 -672598742 -2128670493 -1518032632 1045840080 1063796123 746797056
REM
CELL 1.54180   15.00000   15.00000   15.00000   90.00000   90.00000   90.00000
LATT -1
SFAC C  
C      1  0.5812220000000  0.4003550000000  0.5925400000000 1.0
C      1  0.5690620000000  0.3021830000000  0.4330400000000 1.0
C      1  0.3814210000000  0.6235030000000  0.4079370000000 1.0
C      1  0.6144910000000  0.5751810000000  0.4158450000000 1.0
C      1  0.3552090000000  0.3461680000000  0.4093030000000 1.0
C      1  0.5172470000000  0.7459740000000  0.6257200000000 1.0
C      1  0.6770020000000  0.3738660000000  0.6351640000000 1.0
C      1  0.6691990000000  0.4581110000000  0.3096930000000 1.0
C      1  0.5594170000000  0.3662240000000  0.2287660000000 1.0
C      1  0.6783130000000  0.5675930000000  0.5870650000000 1.0
C      1  0.4165620000000  0.2675880000000  0.4657460000000 1.0
C      1  0.3760910000000  0.6622620000000  0.3015070000000 1.0
C      1  0.5354980000000  0.6520200000000  0.4432020000000 1.0
C      1  0.3598370000000  0.3358040000000  0.5181740000000 1.0
C      1  0.4658890000000  0.4236390000000  0.3912980000000 1.0
C      1  0.5057720000000  0.5853060000000  0.5874850000000 1.0
C      1  0.3936830000000  0.3959590000000  0.6699700000000 1.0
C      1  0.4475390000000  0.6651710000000  0.4646920000000 1.0
C      1  0.7415350000000  0.3122740000000  0.6219090000000 1.0
C      1  0.4042200000000  0.3753980000000  0.3136270000000 1.0
C      1  0.5348260000000  0.4930430000000  0.6341530000000 1.0
C      1  0.5535460000000  0.6658020000000  0.6049420000000 1.0
C      1  0.4621010000000  0.6100710000000  0.2548410000000 1.0
C      1  0.6439810000000  0.6572140000000  0.5685870000000 1.0
C      1  0.4122570000000  0.5373240000000  0.3264130000000 1.0
C      1  0.5076450000000  0.2697460000000  0.4991040000000 1.0
C      1  0.3521030000000  0.5439470000000  0.5687610000000 1.0
C      1  0.5103700000000  0.5124560000000  0.2884500000000 1.0
C      1  0.6540870000000  0.5333770000000  0.6751410000000 1.0
C      1  0.6354140000000  0.6700240000000  0.4733660000000 1.0
C      1  0.2998480000000  0.5446280000000  0.3971880000000 1.0
C      1  0.6456770000000  0.3892100000000  0.2492290000000 1.0
C      1  0.5527370000000  0.4097580000000  0.7352040000000 1.0
C      1  0.4867280000000  0.7113570000000  0.7590620000000 1.0
C      1  0.2843610000000  0.6215690000000  0.3187310000000 1.0
C      1  0.4928130000000  0.6245970000000  0.7351990000000 1.0
C      1  0.4389270000000  0.5483060000000  0.5282730000000 1.0
C      1  0.5208780000000  0.3106840000000  0.5857610000000 1.0
C      1  0.6423310000000  0.4388540000000  0.7040180000000 1.0
C      1  0.4710680000000  0.4577060000000  0.4961140000000 1.0
C      1  0.4165200000000  0.3965630000000  0.5626170000000 1.0
C      1  0.4159130000000  0.7065770000000  0.5430310000000 1.0
C      1  0.7471840000000  0.4740980000000  0.4552010000000 1.0
C      1  0.5693810000000  0.5796660000000  0.7053670000000 1.0
C      1  0.3027650000000  0.4646230000000  0.5476940000000 1.0
C      1  0.5097860000000  0.6595380000000  0.1944210000000 1.0
C      1  0.3453720000000  0.4596190000000  0.3421300000000 1.0
C      1  0.3719880000000  0.6904040000000  0.6221750000000 1.0
C      1  0.4919600000000  0.3470160000000  0.6756040000000 1.0
C      1  0.3571790000000  0.5992780000000  0.6496680000000 1.0
C      1  0.5592280000000  0.3954240000000  0.4184260000000 1.0
C      1  0.6015460000000  0.5210290000000  0.3325460000000 1.0
C      1  0.5842660000000  0.4521740000000  0.5030770000000 1.0
C      1  0.4176540000000  0.5667750000000  0.7177090000000 1.0
C      1  0.4890090000000  0.4131020000000  0.2608520000000 1.0
C      1  0.3068620000000  0.4428230000000  0.4477580000000 1.0
C      1  0.7443200000000  0.4525430000000  0.3667440000000 1.0
C      1  0.6628720000000  0.5164810000000  0.4975310000000 1.0
C      1  0.2975830000000  0.4082210000000  0.6205100000000 1.0
C      1  0.4577080000000  0.4697930000000  0.7117180000000 1.0
END
