TITL C-3036479-9801-600 -2.61982366586853e-05 3375 -350.997419309046 0 0 60 (C1) n - 1
REM
REM in /home/bkarasulu/work/CARBON/AIRSS/Generating-Clusters/REBO/Higher-Symm/Only-C60
REM
REM
REM
REM
REM
REM ./C.cell (a2850807a9bf4ad07a5b6933b78d9264)
REM AIRSS Version 0.9.1 bugfix July 2018 build 013d7b7c2542+ Fri, 06 Jul 2018 19:26:36 +0100
REM compiler GCC version 9.2.1 20190827 (Red Hat 9.2.1-1)
REM options -cpp -mtune=generic -march=x86-64 -g -O0 -fpre-include=/usr/include/finclude/math-vector-fortran.h
REM seed 862991530 1239491779 -965525062 -352775222 657134549 -235624516 -2117453418 -2054615615 -1843807755 1401666698 1332634718 769739532 390364027 1723516881 -484608798 1475418983 -1700874016 -648404892 1754295028 -1946896217 -120193129 955726321 -77916958 456168719 1122557774 -2133784242 1875251888 2000280084 336896592 -427321864 -157969998 -1970679878 -1405016865
REM
CELL 1.54180   15.00000   15.00000   15.00000   90.00000   90.00000   90.00000
LATT -1
SFAC C  
C      1  0.3989730000000  0.2862210000000  0.5394910000000 1.0
C      1  0.4140740000000  0.7522190000000  0.5258360000000 1.0
C      1  0.5629040000000  0.6753020000000  0.6371160000000 1.0
C      1  0.3282030000000  0.7188930000000  0.4969690000000 1.0
C      1  0.7354700000000  0.4161690000000  0.5316730000000 1.0
C      1  0.5365250000000  0.3988380000000  0.4504270000000 1.0
C      1  0.4377570000000  0.5040700000000  0.2525810000000 1.0
C      1  0.3285880000000  0.6548950000000  0.4282730000000 1.0
C      1  0.4607120000000  0.4927470000000  0.6907920000000 1.0
C      1  0.4063970000000  0.5453310000000  0.6353850000000 1.0
C      1  0.4133120000000  0.5225160000000  0.5042770000000 1.0
C      1  0.5624990000000  0.2990090000000  0.5724670000000 1.0
C      1  0.6206350000000  0.6306010000000  0.3746890000000 1.0
C      1  0.4628020000000  0.6946740000000  0.5962700000000 1.0
C      1  0.4595680000000  0.5950150000000  0.5614250000000 1.0
C      1  0.4642740000000  0.2831500000000  0.6191360000000 1.0
C      1  0.4483830000000  0.3205730000000  0.7040420000000 1.0
C      1  0.6410360000000  0.3684920000000  0.4431740000000 1.0
C      1  0.5072990000000  0.5575410000000  0.2906160000000 1.0
C      1  0.6687890000000  0.2765660000000  0.4849070000000 1.0
C      1  0.4993470000000  0.3901410000000  0.5477920000000 1.0
C      1  0.2529280000000  0.6195690000000  0.6116440000000 1.0
C      1  0.6014350000000  0.5529610000000  0.3204110000000 1.0
C      1  0.6891720000000  0.5570390000000  0.6063980000000 1.0
C      1  0.5089890000000  0.7586160000000  0.4892740000000 1.0
C      1  0.4438810000000  0.5264010000000  0.4035690000000 1.0
C      1  0.6237930000000  0.2094300000000  0.4432200000000 1.0
C      1  0.7578160000000  0.4823360000000  0.5935380000000 1.0
C      1  0.2880740000000  0.4684760000000  0.5218980000000 1.0
C      1  0.5386070000000  0.2419450000000  0.4113760000000 1.0
C      1  0.6046580000000  0.5831600000000  0.6484050000000 1.0
C      1  0.3309010000000  0.5785650000000  0.3515490000000 1.0
C      1  0.7103890000000  0.4503590000000  0.4254870000000 1.0
C      1  0.4138150000000  0.4352310000000  0.5505410000000 1.0
C      1  0.4919280000000  0.4530700000000  0.3740800000000 1.0
C      1  0.3223310000000  0.4217900000000  0.3422680000000 1.0
C      1  0.3211950000000  0.5510660000000  0.4584530000000 1.0
C      1  0.5717710000000  0.7629180000000  0.5639300000000 1.0
C      1  0.4635860000000  0.6159990000000  0.3625170000000 1.0
C      1  0.6365290000000  0.4642500000000  0.3401670000000 1.0
C      1  0.5860070000000  0.4233490000000  0.6132610000000 1.0
C      1  0.5460680000000  0.6334270000000  0.5125170000000 1.0
C      1  0.3538520000000  0.5012090000000  0.2996890000000 1.0
C      1  0.6837730000000  0.6239130000000  0.4442910000000 1.0
C      1  0.6842510000000  0.5335450000000  0.4956420000000 1.0
C      1  0.6625310000000  0.3484100000000  0.5726500000000 1.0
C      1  0.6100060000000  0.4546290000000  0.5118470000000 1.0
C      1  0.5543140000000  0.5016300000000  0.6703100000000 1.0
C      1  0.5642690000000  0.3941680000000  0.3208310000000 1.0
C      1  0.3419960000000  0.4286120000000  0.6364700000000 1.0
C      1  0.5277080000000  0.6767290000000  0.4136290000000 1.0
C      1  0.6708550000000  0.7328430000000  0.5843220000000 1.0
C      1  0.2970210000000  0.4063600000000  0.4280740000000 1.0
C      1  0.2667170000000  0.6973790000000  0.5668960000000 1.0
C      1  0.4142590000000  0.4077530000000  0.7105450000000 1.0
C      1  0.3280140000000  0.3632630000000  0.5435700000000 1.0
C      1  0.6404380000000  0.6541800000000  0.5299800000000 1.0
C      1  0.4890180000000  0.2705600000000  0.4897410000000 1.0
C      1  0.5471700000000  0.3011830000000  0.3358330000000 1.0
C      1  0.3023910000000  0.5307160000000  0.6138400000000 1.0
END
