TITL C-3036479-9801-887 -2.90376039294942e-06 3375 -329.262720414795 0 0 60 (Td) n - 1
REM
REM in /home/bkarasulu/work/CARBON/AIRSS/Generating-Clusters/REBO/Higher-Symm/Only-C60
REM
REM
REM
REM
REM
REM ./C.cell (a2850807a9bf4ad07a5b6933b78d9264)
REM AIRSS Version 0.9.1 bugfix July 2018 build 013d7b7c2542+ Fri, 06 Jul 2018 19:26:36 +0100
REM compiler GCC version 9.2.1 20190827 (Red Hat 9.2.1-1)
REM options -cpp -mtune=generic -march=x86-64 -g -O0 -fpre-include=/usr/include/finclude/math-vector-fortran.h
REM seed -2003347740 -633595749 -1475547768 1451685819 602514262 375261666 -1489072846 -1617260544 -422376205 923685723 -358973157 -199103852 -1757682580 -1713380999 455445670 -240322064 1342638798 620704832 225032788 -1842144793 1206980512 -1610202532 -895506987 741578360 -1489875653 1897599590 1492730591 1648054828 434362964 1125762596 1662554665 1689445307 1265342766
REM
CELL 1.54180   15.00000   15.00000   15.00000   90.00000   90.00000   90.00000
LATT -1
SFAC C  
C      1  0.3545850000000  0.5746370000000  0.5027580000000 1.0
C      1  0.5746370000000  0.5027580000000  0.3545850000000 1.0
C      1  0.5027580000000  0.3545850000000  0.5746370000000 1.0
C      1  0.6454150000000  0.4253630000000  0.5027580000000 1.0
C      1  0.3545850000000  0.4253630000000  0.4972420000000 1.0
C      1  0.6454150000000  0.5746370000000  0.4972420000000 1.0
C      1  0.4253630000000  0.4972420000000  0.3545850000000 1.0
C      1  0.5746370000000  0.4972420000000  0.6454150000000 1.0
C      1  0.4253630000000  0.5027580000000  0.6454150000000 1.0
C      1  0.4972420000000  0.6454150000000  0.5746370000000 1.0
C      1  0.5027580000000  0.6454150000000  0.4253630000000 1.0
C      1  0.4972420000000  0.3545850000000  0.4253630000000 1.0
C      1  0.5746370000000  0.3545850000000  0.5027580000000 1.0
C      1  0.5027580000000  0.5746370000000  0.3545850000000 1.0
C      1  0.3545850000000  0.5027580000000  0.5746370000000 1.0
C      1  0.4253630000000  0.6454150000000  0.5027580000000 1.0
C      1  0.4253630000000  0.3545850000000  0.4972420000000 1.0
C      1  0.5746370000000  0.6454150000000  0.4972420000000 1.0
C      1  0.4972420000000  0.4253630000000  0.3545850000000 1.0
C      1  0.4972420000000  0.5746370000000  0.6454150000000 1.0
C      1  0.5027580000000  0.4253630000000  0.6454150000000 1.0
C      1  0.6454150000000  0.4972420000000  0.5746370000000 1.0
C      1  0.6454150000000  0.5027580000000  0.4253630000000 1.0
C      1  0.3545850000000  0.4972420000000  0.4253630000000 1.0
C      1  0.5564100000000  0.7171030000000  0.6368770000000 1.0
C      1  0.7171030000000  0.6368770000000  0.5564100000000 1.0
C      1  0.6368770000000  0.5564100000000  0.7171030000000 1.0
C      1  0.4435900000000  0.2828970000000  0.6368770000000 1.0
C      1  0.5564100000000  0.2828970000000  0.3631230000000 1.0
C      1  0.4435900000000  0.7171030000000  0.3631230000000 1.0
C      1  0.2828970000000  0.3631230000000  0.5564100000000 1.0
C      1  0.7171030000000  0.3631230000000  0.4435900000000 1.0
C      1  0.2828970000000  0.6368770000000  0.4435900000000 1.0
C      1  0.3631230000000  0.4435900000000  0.7171030000000 1.0
C      1  0.6368770000000  0.4435900000000  0.2828970000000 1.0
C      1  0.3631230000000  0.5564100000000  0.2828970000000 1.0
C      1  0.7171030000000  0.5564100000000  0.6368770000000 1.0
C      1  0.6368770000000  0.7171030000000  0.5564100000000 1.0
C      1  0.5564100000000  0.6368770000000  0.7171030000000 1.0
C      1  0.2828970000000  0.4435900000000  0.6368770000000 1.0
C      1  0.2828970000000  0.5564100000000  0.3631230000000 1.0
C      1  0.7171030000000  0.4435900000000  0.3631230000000 1.0
C      1  0.3631230000000  0.2828970000000  0.5564100000000 1.0
C      1  0.3631230000000  0.7171030000000  0.4435900000000 1.0
C      1  0.6368770000000  0.2828970000000  0.4435900000000 1.0
C      1  0.4435900000000  0.3631230000000  0.7171030000000 1.0
C      1  0.4435900000000  0.6368770000000  0.2828970000000 1.0
C      1  0.5564100000000  0.3631230000000  0.2828970000000 1.0
C      1  0.4652730000000  0.4652730000000  0.7665250000000 1.0
C      1  0.5347270000000  0.5347270000000  0.7665250000000 1.0
C      1  0.5347270000000  0.7665250000000  0.5347270000000 1.0
C      1  0.7665250000000  0.5347270000000  0.5347270000000 1.0
C      1  0.5347270000000  0.4652730000000  0.2334750000000 1.0
C      1  0.4652730000000  0.5347270000000  0.2334750000000 1.0
C      1  0.4652730000000  0.2334750000000  0.5347270000000 1.0
C      1  0.5347270000000  0.2334750000000  0.4652730000000 1.0
C      1  0.4652730000000  0.7665250000000  0.4652730000000 1.0
C      1  0.2334750000000  0.4652730000000  0.5347270000000 1.0
C      1  0.7665250000000  0.4652730000000  0.4652730000000 1.0
C      1  0.2334750000000  0.5347270000000  0.4652730000000 1.0
END
