TITL C-3036484-3770-814 2.78156266815005e-06 3375 -314.055087595408 0 0 60 (C1) n - 1
REM
REM in /home/bkarasulu/work/CARBON/AIRSS/Generating-Clusters/REBO/Higher-Symm/Only-C60
REM
REM
REM
REM
REM
REM ./C.cell (a2850807a9bf4ad07a5b6933b78d9264)
REM AIRSS Version 0.9.1 bugfix July 2018 build 013d7b7c2542+ Fri, 06 Jul 2018 19:26:36 +0100
REM compiler GCC version 9.2.1 20190827 (Red Hat 9.2.1-1)
REM options -cpp -mtune=generic -march=x86-64 -g -O0 -fpre-include=/usr/include/finclude/math-vector-fortran.h
REM seed 871821436 221114265 1769831830 568921281 -1350981157 1927278817 -1523621642 1218106902 -1968745106 -1038275304 -778075337 -546731698 -1448125409 1705409 -456577705 698341378 -885219890 -887560136 -1753701413 -833585718 959543457 -72513193 1313123051 -1674070235 -1299598642 1954391529 441063759 1619315586 -130036464 -311608827 669644942 -569049155 -1387766975
REM
CELL 1.54180   15.00000   15.00000   15.00000   90.00000   90.00000   90.00000
LATT -1
SFAC C  
C      1  0.4478400000000  0.7074800000000  0.6027150000000 1.0
C      1  0.4450300000000  0.5490640000000  0.7235530000000 1.0
C      1  0.4447150000000  0.3556990000000  0.6760830000000 1.0
C      1  0.4474490000000  0.2712760000000  0.4955750000000 1.0
C      1  0.4448540000000  0.3614270000000  0.3178230000000 1.0
C      1  0.4421280000000  0.5559840000000  0.2775750000000 1.0
C      1  0.4446550000000  0.7098520000000  0.4034000000000 1.0
C      1  0.7257670000000  0.5600760000000  0.6781440000000 1.0
C      1  0.7257230000000  0.3977020000000  0.6564140000000 1.0
C      1  0.7262020000000  0.3143930000000  0.5150300000000 1.0
C      1  0.7239080000000  0.3718220000000  0.3610920000000 1.0
C      1  0.7216740000000  0.5273290000000  0.3098980000000 1.0
C      1  0.7231680000000  0.6636080000000  0.4003250000000 1.0
C      1  0.7260100000000  0.6777920000000  0.5636960000000 1.0
C      1  0.3115950000000  0.4719620000000  0.3741620000000 1.0
C      1  0.3116340000000  0.5837450000000  0.4005300000000 1.0
C      1  0.3182700000000  0.6315910000000  0.5032710000000 1.0
C      1  0.3291980000000  0.5739250000000  0.5840400000000 1.0
C      1  0.3329870000000  0.4780130000000  0.5986790000000 1.0
C      1  0.3289200000000  0.3987720000000  0.5427390000000 1.0
C      1  0.3179720000000  0.3832900000000  0.4447580000000 1.0
C      1  0.5366640000000  0.2139150000000  0.5033910000000 1.0
C      1  0.5342530000000  0.3219100000000  0.2760470000000 1.0
C      1  0.5306340000000  0.5618500000000  0.2191830000000 1.0
C      1  0.5332200000000  0.7575580000000  0.3688860000000 1.0
C      1  0.5371990000000  0.7623660000000  0.6205070000000 1.0
C      1  0.5332530000000  0.5679400000000  0.7791980000000 1.0
C      1  0.5326170000000  0.3246360000000  0.7265780000000 1.0
C      1  0.4727650000000  0.5810200000000  0.4045550000000 1.0
C      1  0.4749070000000  0.6261070000000  0.5023830000000 1.0
C      1  0.4771790000000  0.5776910000000  0.5989540000000 1.0
C      1  0.4780290000000  0.4707820000000  0.6211390000000 1.0
C      1  0.4769790000000  0.3874070000000  0.5509240000000 1.0
C      1  0.4747510000000  0.3905250000000  0.4431230000000 1.0
C      1  0.4727150000000  0.4765080000000  0.3782830000000 1.0
C      1  0.6410860000000  0.3738720000000  0.5103410000000 1.0
C      1  0.6396390000000  0.4130360000000  0.4059680000000 1.0
C      1  0.6380120000000  0.5184670000000  0.3712150000000 1.0
C      1  0.6388930000000  0.6114520000000  0.4320180000000 1.0
C      1  0.6406770000000  0.6220300000000  0.5432340000000 1.0
C      1  0.6404460000000  0.5418440000000  0.6213470000000 1.0
C      1  0.6404910000000  0.4308900000000  0.6066850000000 1.0
C      1  0.5544350000000  0.6771160000000  0.5583190000000 1.0
C      1  0.5539850000000  0.5646380000000  0.6748860000000 1.0
C      1  0.5539210000000  0.4026420000000  0.6574510000000 1.0
C      1  0.5546760000000  0.3179350000000  0.5199550000000 1.0
C      1  0.5525470000000  0.3712380000000  0.3689930000000 1.0
C      1  0.5503540000000  0.5210540000000  0.3157200000000 1.0
C      1  0.5517560000000  0.6568070000000  0.3991400000000 1.0
C      1  0.3921840000000  0.4578180000000  0.3046370000000 1.0
C      1  0.3921660000000  0.6280330000000  0.3449280000000 1.0
C      1  0.3965930000000  0.7043630000000  0.5016070000000 1.0
C      1  0.3955910000000  0.6249050000000  0.6551460000000 1.0
C      1  0.3937810000000  0.4562990000000  0.6892940000000 1.0
C      1  0.3954520000000  0.3212500000000  0.5831770000000 1.0
C      1  0.3964210000000  0.3192510000000  0.4107140000000 1.0
C      1  0.5214000000000  0.5015770000000  0.4994210000000 1.0
C      1  0.3503030000000  0.5083200000000  0.4700590000000 1.0
C      1  0.4298660000000  0.5010640000000  0.5017500000000 1.0
C      1  0.6076840000000  0.5015440000000  0.4993260000000 1.0
END
