TITL C-3036482-790-64 1.09789655308274e-06 3375 -329.26263611946 0 0 60 (Td) n - 1
REM
REM in /home/bkarasulu/work/CARBON/AIRSS/Generating-Clusters/REBO/Higher-Symm/Only-C60
REM
REM
REM
REM
REM
REM ./C.cell (a2850807a9bf4ad07a5b6933b78d9264)
REM AIRSS Version 0.9.1 bugfix July 2018 build 013d7b7c2542+ Fri, 06 Jul 2018 19:26:36 +0100
REM compiler GCC version 9.2.1 20190827 (Red Hat 9.2.1-1)
REM options -cpp -mtune=generic -march=x86-64 -g -O0 -fpre-include=/usr/include/finclude/math-vector-fortran.h
REM seed 1667313625 1913182141 -1536147788 -3042840 2070043170 897787443 928195913 1073545732 1511666564 1296228141 651656225 -2042709704 -592104543 788981691 -1681142920 -1739018192 1488156251 965383568 112322270 -226049006 1826016076 -1737361155 -2104190715 -1380565596 1218549662 -840449034 -453056054 -46591962 -2011027771 -1566566775 -1376075829 1366964041 1275129103
REM
CELL 1.54180   15.00000   15.00000   15.00000   90.00000   90.00000   90.00000
LATT -1
SFAC C  
C      1  0.3631230000000  0.2828970000000  0.4435900000000 1.0
C      1  0.4435900000000  0.3631230000000  0.2828970000000 1.0
C      1  0.2828970000000  0.4435900000000  0.3631230000000 1.0
C      1  0.3631230000000  0.7171030000000  0.5564100000000 1.0
C      1  0.6368770000000  0.7171030000000  0.4435900000000 1.0
C      1  0.6368770000000  0.2828970000000  0.5564100000000 1.0
C      1  0.4435900000000  0.6368770000000  0.7171030000000 1.0
C      1  0.5564100000000  0.6368770000000  0.2828970000000 1.0
C      1  0.5564100000000  0.3631230000000  0.7171030000000 1.0
C      1  0.2828970000000  0.5564100000000  0.6368770000000 1.0
C      1  0.7171030000000  0.5564100000000  0.3631230000000 1.0
C      1  0.7171030000000  0.4435900000000  0.6368770000000 1.0
C      1  0.3631230000000  0.4435900000000  0.2828970000000 1.0
C      1  0.4435900000000  0.2828970000000  0.3631230000000 1.0
C      1  0.2828970000000  0.3631230000000  0.4435900000000 1.0
C      1  0.3631230000000  0.5564100000000  0.7171030000000 1.0
C      1  0.6368770000000  0.4435900000000  0.7171030000000 1.0
C      1  0.6368770000000  0.5564100000000  0.2828970000000 1.0
C      1  0.4435900000000  0.7171030000000  0.6368770000000 1.0
C      1  0.5564100000000  0.2828970000000  0.6368770000000 1.0
C      1  0.5564100000000  0.7171030000000  0.3631230000000 1.0
C      1  0.2828970000000  0.6368770000000  0.5564100000000 1.0
C      1  0.7171030000000  0.3631230000000  0.5564100000000 1.0
C      1  0.7171030000000  0.6368770000000  0.4435900000000 1.0
C      1  0.3545850000000  0.4253630000000  0.5027580000000 1.0
C      1  0.5027580000000  0.3545850000000  0.4253630000000 1.0
C      1  0.4253630000000  0.5027580000000  0.3545850000000 1.0
C      1  0.3545850000000  0.5746370000000  0.4972420000000 1.0
C      1  0.6454150000000  0.5746370000000  0.5027580000000 1.0
C      1  0.6454150000000  0.4253630000000  0.4972420000000 1.0
C      1  0.5027580000000  0.6454150000000  0.5746370000000 1.0
C      1  0.4972420000000  0.6454150000000  0.4253630000000 1.0
C      1  0.4972420000000  0.3545850000000  0.5746370000000 1.0
C      1  0.4253630000000  0.4972420000000  0.6454150000000 1.0
C      1  0.5746370000000  0.4972420000000  0.3545850000000 1.0
C      1  0.5746370000000  0.5027580000000  0.6454150000000 1.0
C      1  0.3545850000000  0.5027580000000  0.4253630000000 1.0
C      1  0.5027580000000  0.4253630000000  0.3545850000000 1.0
C      1  0.4253630000000  0.3545850000000  0.5027580000000 1.0
C      1  0.3545850000000  0.4972420000000  0.5746370000000 1.0
C      1  0.6454150000000  0.5027580000000  0.5746370000000 1.0
C      1  0.6454150000000  0.4972420000000  0.4253630000000 1.0
C      1  0.5027580000000  0.5746370000000  0.6454150000000 1.0
C      1  0.4972420000000  0.4253630000000  0.6454150000000 1.0
C      1  0.4972420000000  0.5746370000000  0.3545850000000 1.0
C      1  0.4253630000000  0.6454150000000  0.4972420000000 1.0
C      1  0.5746370000000  0.3545850000000  0.4972420000000 1.0
C      1  0.5746370000000  0.6454150000000  0.5027580000000 1.0
C      1  0.5347270000000  0.2334750000000  0.5347270000000 1.0
C      1  0.5347270000000  0.5347270000000  0.2334750000000 1.0
C      1  0.4652730000000  0.7665250000000  0.5347270000000 1.0
C      1  0.5347270000000  0.4652730000000  0.7665250000000 1.0
C      1  0.4652730000000  0.5347270000000  0.7665250000000 1.0
C      1  0.7665250000000  0.4652730000000  0.5347270000000 1.0
C      1  0.7665250000000  0.5347270000000  0.4652730000000 1.0
C      1  0.2334750000000  0.5347270000000  0.5347270000000 1.0
C      1  0.5347270000000  0.7665250000000  0.4652730000000 1.0
C      1  0.4652730000000  0.2334750000000  0.4652730000000 1.0
C      1  0.4652730000000  0.4652730000000  0.2334750000000 1.0
C      1  0.2334750000000  0.4652730000000  0.4652730000000 1.0
END
