TITL C-3036480-97-543 3.38050970039869e-06 3375 -347.510111924186 0 0 60 (C1) n - 1
REM
REM in /home/bkarasulu/work/CARBON/AIRSS/Generating-Clusters/REBO/Higher-Symm/Only-C60
REM
REM
REM
REM
REM
REM ./C.cell (a2850807a9bf4ad07a5b6933b78d9264)
REM AIRSS Version 0.9.1 bugfix July 2018 build 013d7b7c2542+ Fri, 06 Jul 2018 19:26:36 +0100
REM compiler GCC version 9.2.1 20190827 (Red Hat 9.2.1-1)
REM options -cpp -mtune=generic -march=x86-64 -g -O0 -fpre-include=/usr/include/finclude/math-vector-fortran.h
REM seed 943435561 -1386101005 703277459 1508135970 236038434 908507579 -523616447 -1178418918 1234502027 185534573 -1126446150 -729414845 -1866633267 -193627056 -1654383586 -660282951 1274517315 -443588053 1499596143 1421174747 -174431991 -226150081 1310660548 -1229010203 807625781 -1647862500 -348091376 -219148064 98618591 -722114995 2094335568 -684776799 1716302415
REM
CELL 1.54180   15.00000   15.00000   15.00000   90.00000   90.00000   90.00000
LATT -1
SFAC C  
C      1  0.7104370000000  0.4610510000000  0.5064380000000 1.0
C      1  0.6615460000000  0.3071020000000  0.5178170000000 1.0
C      1  0.5252040000000  0.6412620000000  0.2949370000000 1.0
C      1  0.2655340000000  0.6081730000000  0.5084690000000 1.0
C      1  0.3612490000000  0.5129740000000  0.3779160000000 1.0
C      1  0.5066170000000  0.4098040000000  0.6990350000000 1.0
C      1  0.4977820000000  0.4269350000000  0.3081370000000 1.0
C      1  0.5069340000000  0.5956510000000  0.3767150000000 1.0
C      1  0.4670540000000  0.5059960000000  0.3665460000000 1.0
C      1  0.3909610000000  0.5474180000000  0.7088670000000 1.0
C      1  0.6228180000000  0.6292120000000  0.6751230000000 1.0
C      1  0.7781510000000  0.5453460000000  0.4722100000000 1.0
C      1  0.3662670000000  0.3378810000000  0.4917310000000 1.0
C      1  0.2915230000000  0.5294060000000  0.5420870000000 1.0
C      1  0.6696030000000  0.3776310000000  0.4519760000000 1.0
C      1  0.3768460000000  0.5364030000000  0.6021990000000 1.0
C      1  0.4948480000000  0.7281320000000  0.6004300000000 1.0
C      1  0.4697040000000  0.4828780000000  0.6227980000000 1.0
C      1  0.3568870000000  0.2369110000000  0.5372300000000 1.0
C      1  0.5800040000000  0.3565770000000  0.3838330000000 1.0
C      1  0.5530140000000  0.4990450000000  0.5525920000000 1.0
C      1  0.5902640000000  0.5970970000000  0.2422140000000 1.0
C      1  0.3808750000000  0.3488960000000  0.3926790000000 1.0
C      1  0.4957700000000  0.4352090000000  0.4505710000000 1.0
C      1  0.6585530000000  0.4633430000000  0.3806090000000 1.0
C      1  0.3803290000000  0.6893690000000  0.3485570000000 1.0
C      1  0.3325130000000  0.4668310000000  0.7067880000000 1.0
C      1  0.6265260000000  0.5330970000000  0.6950020000000 1.0
C      1  0.5799820000000  0.3194670000000  0.5689820000000 1.0
C      1  0.5429610000000  0.5049690000000  0.7319550000000 1.0
C      1  0.3355970000000  0.4248100000000  0.5426030000000 1.0
C      1  0.3410190000000  0.3984300000000  0.6421860000000 1.0
C      1  0.4716750000000  0.7390200000000  0.4899150000000 1.0
C      1  0.4459620000000  0.5742220000000  0.5286470000000 1.0
C      1  0.5763380000000  0.7210000000000  0.5306720000000 1.0
C      1  0.3789410000000  0.7219350000000  0.4385790000000 1.0
C      1  0.4683390000000  0.3432620000000  0.3564040000000 1.0
C      1  0.3905300000000  0.3247890000000  0.6618060000000 1.0
C      1  0.4980020000000  0.3120210000000  0.6467690000000 1.0
C      1  0.5198950000000  0.3363390000000  0.4781940000000 1.0
C      1  0.3056690000000  0.6875400000000  0.4877980000000 1.0
C      1  0.3332710000000  0.6053970000000  0.3410740000000 1.0
C      1  0.4024110000000  0.4880020000000  0.4809030000000 1.0
C      1  0.4769420000000  0.5745620000000  0.7311740000000 1.0
C      1  0.4810580000000  0.6380400000000  0.4553770000000 1.0
C      1  0.5902420000000  0.4881180000000  0.4558890000000 1.0
C      1  0.7209750000000  0.5340270000000  0.3291830000000 1.0
C      1  0.7877210000000  0.5656870000000  0.3851310000000 1.0
C      1  0.5813890000000  0.4121250000000  0.6187980000000 1.0
C      1  0.7015200000000  0.5669200000000  0.5483350000000 1.0
C      1  0.6422660000000  0.6443240000000  0.5681610000000 1.0
C      1  0.6446910000000  0.5222300000000  0.2627810000000 1.0
C      1  0.4530480000000  0.7038220000000  0.2866940000000 1.0
C      1  0.4516150000000  0.2930670000000  0.5477340000000 1.0
C      1  0.3276290000000  0.4155430000000  0.3561160000000 1.0
C      1  0.5365240000000  0.6037580000000  0.5784090000000 1.0
C      1  0.6002870000000  0.4263750000000  0.2946490000000 1.0
C      1  0.6701780000000  0.4776850000000  0.6114530000000 1.0
C      1  0.5150880000000  0.6558190000000  0.6774140000000 1.0
C      1  0.3104230000000  0.1670690000000  0.5527080000000 1.0
END
