TITL C-3036482-790-1136 -0.00772691945358602 3375 -340.250116603454 0 0 60 (C1) n - 1
REM
REM in /home/bkarasulu/work/CARBON/AIRSS/Generating-Clusters/REBO/Higher-Symm/Only-C60
REM
REM
REM
REM
REM
REM ./C.cell (a2850807a9bf4ad07a5b6933b78d9264)
REM AIRSS Version 0.9.1 bugfix July 2018 build 013d7b7c2542+ Fri, 06 Jul 2018 19:26:36 +0100
REM compiler GCC version 9.2.1 20190827 (Red Hat 9.2.1-1)
REM options -cpp -mtune=generic -march=x86-64 -g -O0 -fpre-include=/usr/include/finclude/math-vector-fortran.h
REM seed -735119490 -719995726 1962954111 2096777366 -1007138370 482480367 1620852348 -579282272 561944779 1079713752 696493762 1284410712 -812657739 2124746003 -1475096646 -1337540487 233840777 326319835 -1902055759 -1952982111 669379300 -1050178615 -485040134 999212654 -2089433618 -1197878328 -1916389411 -448947023 796916588 2019446004 1409227467 139318678 1879262342
REM
CELL 1.54180   15.00000   15.00000   15.00000   90.00000   90.00000   90.00000
LATT -1
SFAC C  
C      1  0.4460140000000  0.6755650000000  0.3768040000000 1.0
C      1  0.6835780000000  0.5645730000000  0.6628780000000 1.0
C      1  0.5453280000000  0.7537310000000  0.5357890000000 1.0
C      1  0.2965610000000  0.4664020000000  0.3916280000000 1.0
C      1  0.2927950000000  0.6334860000000  0.5388850000000 1.0
C      1  0.3763410000000  0.7307560000000  0.4756950000000 1.0
C      1  0.6216680000000  0.4447680000000  0.3204560000000 1.0
C      1  0.2860840000000  0.4607060000000  0.5516610000000 1.0
C      1  0.4446380000000  0.4582170000000  0.6656770000000 1.0
C      1  0.4192580000000  0.5302090000000  0.4913760000000 1.0
C      1  0.7295900000000  0.5461050000000  0.7366430000000 1.0
C      1  0.4103210000000  0.3017250000000  0.4218480000000 1.0
C      1  0.5916300000000  0.5793320000000  0.4066610000000 1.0
C      1  0.5156260000000  0.6340300000000  0.6730820000000 1.0
C      1  0.3238730000000  0.4170380000000  0.4763560000000 1.0
C      1  0.6444210000000  0.3420380000000  0.4816420000000 1.0
C      1  0.4872150000000  0.3229180000000  0.5310460000000 1.0
C      1  0.3960350000000  0.6751640000000  0.5632410000000 1.0
C      1  0.3646210000000  0.3042380000000  0.5945730000000 1.0
C      1  0.4599820000000  0.2858710000000  0.3450570000000 1.0
C      1  0.3680460000000  0.5988850000000  0.4580260000000 1.0
C      1  0.6664710000000  0.3010610000000  0.3828860000000 1.0
C      1  0.6782360000000  0.5007180000000  0.5852050000000 1.0
C      1  0.5610940000000  0.7357240000000  0.6468720000000 1.0
C      1  0.4962030000000  0.6564310000000  0.5659380000000 1.0
C      1  0.4764060000000  0.7587190000000  0.4488360000000 1.0
C      1  0.6201640000000  0.3482210000000  0.3147060000000 1.0
C      1  0.5164050000000  0.2410520000000  0.4749470000000 1.0
C      1  0.5455150000000  0.5817090000000  0.5089110000000 1.0
C      1  0.6331740000000  0.6857080000000  0.5505210000000 1.0
C      1  0.4875460000000  0.4770850000000  0.4319080000000 1.0
C      1  0.6204660000000  0.2951760000000  0.6363680000000 1.0
C      1  0.5340640000000  0.3094270000000  0.2969870000000 1.0
C      1  0.6026390000000  0.2461060000000  0.4472760000000 1.0
C      1  0.6523450000000  0.5010410000000  0.3936640000000 1.0
C      1  0.5375520000000  0.6670280000000  0.4348780000000 1.0
C      1  0.4333080000000  0.3990370000000  0.4737560000000 1.0
C      1  0.7236790000000  0.4113170000000  0.6014160000000 1.0
C      1  0.7728110000000  0.5256960000000  0.8098330000000 1.0
C      1  0.3096480000000  0.6837580000000  0.4168840000000 1.0
C      1  0.2263250000000  0.5287360000000  0.4073520000000 1.0
C      1  0.4657880000000  0.5048420000000  0.3373310000000 1.0
C      1  0.6264250000000  0.6429570000000  0.6503290000000 1.0
C      1  0.4212360000000  0.6070900000000  0.3216480000000 1.0
C      1  0.5781960000000  0.4199760000000  0.4690080000000 1.0
C      1  0.4038830000000  0.5147580000000  0.5822200000000 1.0
C      1  0.4359160000000  0.3506530000000  0.6500060000000 1.0
C      1  0.6792710000000  0.3368860000000  0.5749720000000 1.0
C      1  0.6811580000000  0.6365070000000  0.4911160000000 1.0
C      1  0.3563030000000  0.4918040000000  0.3235040000000 1.0
C      1  0.3411710000000  0.3097970000000  0.5049160000000 1.0
C      1  0.6903230000000  0.5408140000000  0.4857820000000 1.0
C      1  0.5309720000000  0.3038570000000  0.6338930000000 1.0
C      1  0.4394750000000  0.5681430000000  0.6931190000000 1.0
C      1  0.5783800000000  0.4942000000000  0.5469600000000 1.0
C      1  0.3500100000000  0.5986180000000  0.6305240000000 1.0
C      1  0.5453640000000  0.4838230000000  0.2768570000000 1.0
C      1  0.3345350000000  0.5799770000000  0.2711640000000 1.0
C      1  0.2360390000000  0.6129540000000  0.4468610000000 1.0
C      1  0.5078790000000  0.4228380000000  0.5816230000000 1.0
END
