TITL C-3036486-2224-50 2.76440087502975e-06 3375 -342.435427412006 0 0 60 (C1) n - 1
REM
REM in /home/bkarasulu/work/CARBON/AIRSS/Generating-Clusters/REBO/Higher-Symm/Only-C60
REM
REM
REM
REM
REM
REM ./C.cell (a2850807a9bf4ad07a5b6933b78d9264)
REM AIRSS Version 0.9.1 bugfix July 2018 build 013d7b7c2542+ Fri, 06 Jul 2018 19:26:36 +0100
REM compiler GCC version 9.2.1 20190827 (Red Hat 9.2.1-1)
REM options -cpp -mtune=generic -march=x86-64 -g -O0 -fpre-include=/usr/include/finclude/math-vector-fortran.h
REM seed 1860789451 1390237914 553518626 -1324097329 981712801 1910154267 -1179096053 -2078691891 1693250540 -1058065477 -1312147952 1789712055 871037677 193368157 442677894 1516233980 476900731 -1949646888 -1558112453 395153758 86765863 846965375 595376585 209654222 1812546571 1787523638 415756056 1231462502 -407201994 1541552904 -410604296 626398900 1391583241
REM
CELL 1.54180   15.00000   15.00000   15.00000   90.00000   90.00000   90.00000
LATT -1
SFAC C  
C      1  0.3381100000000  0.6021550000000  0.5761830000000 1.0
C      1  0.5876640000000  0.5648500000000  0.3484980000000 1.0
C      1  0.5757560000000  0.3397920000000  0.5920850000000 1.0
C      1  0.6523160000000  0.5835000000000  0.4350050000000 1.0
C      1  0.6814230000000  0.3815140000000  0.5900320000000 1.0
C      1  0.3247050000000  0.4115920000000  0.3992010000000 1.0
C      1  0.4158900000000  0.5812040000000  0.6544200000000 1.0
C      1  0.3923860000000  0.3944390000000  0.3099510000000 1.0
C      1  0.6094880000000  0.4182290000000  0.6670420000000 1.0
C      1  0.4189470000000  0.3492470000000  0.4108250000000 1.0
C      1  0.4044470000000  0.6857680000000  0.6120820000000 1.0
C      1  0.5651680000000  0.6462290000000  0.4162780000000 1.0
C      1  0.3471110000000  0.4103630000000  0.5754070000000 1.0
C      1  0.6093620000000  0.3966810000000  0.3160990000000 1.0
C      1  0.5889050000000  0.6749250000000  0.6085400000000 1.0
C      1  0.6816540000000  0.3947020000000  0.4018400000000 1.0
C      1  0.6742490000000  0.6032950000000  0.5992870000000 1.0
C      1  0.3071640000000  0.6054540000000  0.3972770000000 1.0
C      1  0.4127580000000  0.4097840000000  0.6627960000000 1.0
C      1  0.3934850000000  0.5778790000000  0.3333230000000 1.0
C      1  0.6114970000000  0.6037370000000  0.6902040000000 1.0
C      1  0.3972170000000  0.6693550000000  0.3986600000000 1.0
C      1  0.4166480000000  0.3265740000000  0.5910460000000 1.0
C      1  0.5800840000000  0.3503490000000  0.4119850000000 1.0
C      1  0.7627810000000  0.4444110000000  0.5513660000000 1.0
C      1  0.4583870000000  0.5455030000000  0.7452340000000 1.0
C      1  0.5370810000000  0.7390510000000  0.4562930000000 1.0
C      1  0.2412570000000  0.4556460000000  0.4503560000000 1.0
C      1  0.2519600000000  0.5495060000000  0.5438070000000 1.0
C      1  0.7457740000000  0.5421960000000  0.4633610000000 1.0
C      1  0.5437940000000  0.5383630000000  0.2556720000000 1.0
C      1  0.5553790000000  0.4549820000000  0.7501290000000 1.0
C      1  0.4513850000000  0.4454180000000  0.2350030000000 1.0
C      1  0.4479300000000  0.7639290000000  0.5510690000000 1.0
C      1  0.4545550000000  0.2565580000000  0.4465680000000 1.0
C      1  0.5467020000000  0.2521200000000  0.5423980000000 1.0
C      1  0.7550630000000  0.5493350000000  0.5642800000000 1.0
C      1  0.4529900000000  0.4433260000000  0.7489570000000 1.0
C      1  0.5585620000000  0.2571160000000  0.4404580000000 1.0
C      1  0.2311200000000  0.5584400000000  0.4431960000000 1.0
C      1  0.2550330000000  0.4477550000000  0.5527190000000 1.0
C      1  0.7623100000000  0.4436900000000  0.4443990000000 1.0
C      1  0.5558170000000  0.4381800000000  0.2388990000000 1.0
C      1  0.5589770000000  0.5578430000000  0.7625560000000 1.0
C      1  0.4426810000000  0.5501200000000  0.2464530000000 1.0
C      1  0.4436280000000  0.2425960000000  0.5482270000000 1.0
C      1  0.4367170000000  0.7509590000000  0.4471590000000 1.0
C      1  0.5553020000000  0.7588080000000  0.5551920000000 1.0
C      1  0.4921180000000  0.4056900000000  0.5565280000000 1.0
C      1  0.3754310000000  0.5669250000000  0.4801270000000 1.0
C      1  0.5423630000000  0.4710600000000  0.3704930000000 1.0
C      1  0.4976310000000  0.4090980000000  0.4540400000000 1.0
C      1  0.4952420000000  0.6412670000000  0.5669560000000 1.0
C      1  0.4738800000000  0.6223060000000  0.4684310000000 1.0
C      1  0.6291910000000  0.5281810000000  0.5261330000000 1.0
C      1  0.6421460000000  0.4291700000000  0.4993420000000 1.0
C      1  0.3690550000000  0.4641380000000  0.4853910000000 1.0
C      1  0.4751570000000  0.4963070000000  0.6225200000000 1.0
C      1  0.4370800000000  0.4831620000000  0.3612390000000 1.0
C      1  0.5790880000000  0.5152280000000  0.6269840000000 1.0
END
