TITL C-3036482-790-1171 -8.40006465527554e-05 3375 -342.521979494699 0 0 60 (D3) n - 1
REM
REM in /home/bkarasulu/work/CARBON/AIRSS/Generating-Clusters/REBO/Higher-Symm/Only-C60
REM
REM
REM
REM
REM
REM ./C.cell (a2850807a9bf4ad07a5b6933b78d9264)
REM AIRSS Version 0.9.1 bugfix July 2018 build 013d7b7c2542+ Fri, 06 Jul 2018 19:26:36 +0100
REM compiler GCC version 9.2.1 20190827 (Red Hat 9.2.1-1)
REM options -cpp -mtune=generic -march=x86-64 -g -O0 -fpre-include=/usr/include/finclude/math-vector-fortran.h
REM seed -717044781 -1277584657 -733935188 313076011 -429690744 -704344815 -1919549445 2121175622 207345733 1176806839 -1426058203 -492973665 18072373 1605875376 -968171324 2068420490 107985222 -2147248703 -417284879 1625581629 -902329989 554331867 810124680 -1286827228 -1440109603 -928710178 2067521675 -1882015569 -1079406686 795907484 -1269758931 -1620195372 797147992
REM
CELL 1.54180   15.00000   15.00000   15.00000   90.00000   90.00000   90.00000
LATT -1
SFAC C  
C      1  0.4447930000000  0.6767220000000  0.6507020000000 1.0
C      1  0.3745620000000  0.3638110000000  0.6507190000000 1.0
C      1  0.6806500000000  0.4594430000000  0.6507010000000 1.0
C      1  0.5552080000000  0.6767220000000  0.3492970000000 1.0
C      1  0.6254380000000  0.3638110000000  0.3492810000000 1.0
C      1  0.3193510000000  0.4594420000000  0.3493000000000 1.0
C      1  0.4393090000000  0.5020580000000  0.4302980000000 1.0
C      1  0.5286930000000  0.4464090000000  0.4302930000000 1.0
C      1  0.5321930000000  0.5516280000000  0.4303420000000 1.0
C      1  0.5606900000000  0.5020560000000  0.5697030000000 1.0
C      1  0.4713060000000  0.4464060000000  0.5697060000000 1.0
C      1  0.4678050000000  0.5516260000000  0.5696570000000 1.0
C      1  0.6470880000000  0.3537700000000  0.6403930000000 1.0
C      1  0.5530920000000  0.7004920000000  0.6403980000000 1.0
C      1  0.2998440000000  0.4457260000000  0.6403960000000 1.0
C      1  0.3529120000000  0.3537700000000  0.3596070000000 1.0
C      1  0.4469080000000  0.7004920000000  0.3596010000000 1.0
C      1  0.7001560000000  0.4457260000000  0.3596050000000 1.0
C      1  0.4593430000000  0.3156940000000  0.3710160000000 1.0
C      1  0.6799130000000  0.5569390000000  0.3710070000000 1.0
C      1  0.3607150000000  0.6273600000000  0.3710090000000 1.0
C      1  0.5406570000000  0.3156940000000  0.6289840000000 1.0
C      1  0.3200870000000  0.5569390000000  0.6289930000000 1.0
C      1  0.6392850000000  0.6273600000000  0.6289900000000 1.0
C      1  0.7224260000000  0.4949680000000  0.4562720000000 1.0
C      1  0.3930870000000  0.6952010000000  0.4562650000000 1.0
C      1  0.3844080000000  0.3098050000000  0.4562730000000 1.0
C      1  0.2775740000000  0.4949680000000  0.5437280000000 1.0
C      1  0.6069140000000  0.6952020000000  0.5437350000000 1.0
C      1  0.6155910000000  0.3098060000000  0.5437260000000 1.0
C      1  0.3836700000000  0.7077120000000  0.5690450000000 1.0
C      1  0.3782920000000  0.2953860000000  0.5690550000000 1.0
C      1  0.7379970000000  0.4968800000000  0.5690420000000 1.0
C      1  0.6163310000000  0.7077130000000  0.4309540000000 1.0
C      1  0.6217070000000  0.2953870000000  0.4309450000000 1.0
C      1  0.2620030000000  0.4968800000000  0.4309580000000 1.0
C      1  0.5208530000000  0.3882290000000  0.3121550000000 1.0
C      1  0.5863500000000  0.5739460000000  0.3121440000000 1.0
C      1  0.3927800000000  0.5378060000000  0.3121500000000 1.0
C      1  0.4791470000000  0.3882290000000  0.6878450000000 1.0
C      1  0.4136500000000  0.5739460000000  0.6878570000000 1.0
C      1  0.6072210000000  0.5378070000000  0.6878500000000 1.0
C      1  0.5769290000000  0.4285570000000  0.6892910000000 1.0
C      1  0.5234070000000  0.6023390000000  0.6892930000000 1.0
C      1  0.3996850000000  0.4690880000000  0.6892990000000 1.0
C      1  0.4230720000000  0.4285570000000  0.3107100000000 1.0
C      1  0.4765940000000  0.6023380000000  0.3107070000000 1.0
C      1  0.6003150000000  0.4690880000000  0.3107010000000 1.0
C      1  0.5969540000000  0.3933310000000  0.4759540000000 1.0
C      1  0.5438930000000  0.6372910000000  0.4759710000000 1.0
C      1  0.3592650000000  0.4694130000000  0.4759360000000 1.0
C      1  0.4030440000000  0.3933300000000  0.5240460000000 1.0
C      1  0.4561080000000  0.6372890000000  0.5240300000000 1.0
C      1  0.6407360000000  0.4694130000000  0.5240650000000 1.0
C      1  0.4839710000000  0.2890200000000  0.5422460000000 1.0
C      1  0.6907220000000  0.5916060000000  0.5422450000000 1.0
C      1  0.3253100000000  0.6193750000000  0.5422470000000 1.0
C      1  0.5160300000000  0.2890210000000  0.4577550000000 1.0
C      1  0.3092780000000  0.5916060000000  0.4577550000000 1.0
C      1  0.6746900000000  0.6193740000000  0.4577530000000 1.0
END
