TITL C-3036480-97-312 -2.01586276198107e-05 3375 -343.449555887808 0 0 60 (C1) n - 1
REM
REM in /home/bkarasulu/work/CARBON/AIRSS/Generating-Clusters/REBO/Higher-Symm/Only-C60
REM
REM
REM
REM
REM
REM ./C.cell (a2850807a9bf4ad07a5b6933b78d9264)
REM AIRSS Version 0.9.1 bugfix July 2018 build 013d7b7c2542+ Fri, 06 Jul 2018 19:26:36 +0100
REM compiler GCC version 9.2.1 20190827 (Red Hat 9.2.1-1)
REM options -cpp -mtune=generic -march=x86-64 -g -O0 -fpre-include=/usr/include/finclude/math-vector-fortran.h
REM seed 403650453 -905876848 1592765270 -1627037257 -1855603427 1469057891 1559105248 -1168063602 98506666 1900117907 1978579128 1006233167 -1892910503 1426516879 872252334 659796176 -1748149384 92077337 953110760 1938248631 523792228 -707567353 445210329 2017952900 585351094 -1540405379 433797286 -299300808 364102621 -1912558604 -1573854334 -2004108326 133475749
REM
CELL 1.54180   15.00000   15.00000   15.00000   90.00000   90.00000   90.00000
LATT -1
SFAC C  
C      1  0.3185400000000  0.5486900000000  0.4349050000000 1.0
C      1  0.4781920000000  0.4183550000000  0.7202510000000 1.0
C      1  0.3897410000000  0.5472960000000  0.5788370000000 1.0
C      1  0.2448530000000  0.4616050000000  0.4285020000000 1.0
C      1  0.6011310000000  0.4175830000000  0.3702260000000 1.0
C      1  0.3557720000000  0.5395830000000  0.3075710000000 1.0
C      1  0.3318370000000  0.6102250000000  0.6537420000000 1.0
C      1  0.5364540000000  0.6683210000000  0.4320020000000 1.0
C      1  0.4622960000000  0.6835450000000  0.5770010000000 1.0
C      1  0.6726040000000  0.4045120000000  0.5221430000000 1.0
C      1  0.4824500000000  0.5026690000000  0.5794550000000 1.0
C      1  0.6868490000000  0.3510630000000  0.6066050000000 1.0
C      1  0.5535110000000  0.6800300000000  0.5365120000000 1.0
C      1  0.5621540000000  0.3210880000000  0.3653590000000 1.0
C      1  0.3906760000000  0.6442750000000  0.3765340000000 1.0
C      1  0.6426060000000  0.6217180000000  0.7152700000000 1.0
C      1  0.4554350000000  0.5964870000000  0.3020820000000 1.0
C      1  0.6892080000000  0.6697620000000  0.4515080000000 1.0
C      1  0.5561570000000  0.6494920000000  0.3021400000000 1.0
C      1  0.4329250000000  0.5024460000000  0.7213730000000 1.0
C      1  0.2128100000000  0.5857160000000  0.4378050000000 1.0
C      1  0.6141430000000  0.5052790000000  0.2707200000000 1.0
C      1  0.6863040000000  0.5126240000000  0.6523320000000 1.0
C      1  0.4763330000000  0.4045280000000  0.5430750000000 1.0
C      1  0.3255380000000  0.4417500000000  0.3561660000000 1.0
C      1  0.5745610000000  0.5828440000000  0.6705780000000 1.0
C      1  0.2847000000000  0.6156570000000  0.3540250000000 1.0
C      1  0.5487660000000  0.4884310000000  0.3973160000000 1.0
C      1  0.4014760000000  0.3239810000000  0.5651540000000 1.0
C      1  0.4170640000000  0.3758490000000  0.3413440000000 1.0
C      1  0.2991880000000  0.4816640000000  0.5924460000000 1.0
C      1  0.5854310000000  0.2678050000000  0.4983110000000 1.0
C      1  0.7071550000000  0.5644600000000  0.4820550000000 1.0
C      1  0.6368740000000  0.4301900000000  0.6478740000000 1.0
C      1  0.4647240000000  0.3539670000000  0.7849200000000 1.0
C      1  0.4043550000000  0.5561770000000  0.4765870000000 1.0
C      1  0.5355980000000  0.3964770000000  0.6397210000000 1.0
C      1  0.5634400000000  0.5751540000000  0.3790070000000 1.0
C      1  0.6363430000000  0.2691470000000  0.5984560000000 1.0
C      1  0.6402490000000  0.4941080000000  0.5286230000000 1.0
C      1  0.3377310000000  0.5112710000000  0.6951310000000 1.0
C      1  0.7365430000000  0.5215000000000  0.3929280000000 1.0
C      1  0.3430850000000  0.4010430000000  0.5403210000000 1.0
C      1  0.6981090000000  0.5904010000000  0.5982910000000 1.0
C      1  0.4826320000000  0.5864790000000  0.7046130000000 1.0
C      1  0.6482220000000  0.6639630000000  0.5471150000000 1.0
C      1  0.4697160000000  0.4706980000000  0.4517460000000 1.0
C      1  0.3713970000000  0.4286510000000  0.4536440000000 1.0
C      1  0.6373080000000  0.3460180000000  0.4467340000000 1.0
C      1  0.5711770000000  0.5324260000000  0.5886500000000 1.0
C      1  0.4734790000000  0.2817690000000  0.4917980000000 1.0
C      1  0.4700620000000  0.3161700000000  0.3901880000000 1.0
C      1  0.6915820000000  0.5058990000000  0.3165610000000 1.0
C      1  0.2264520000000  0.5126650000000  0.5236420000000 1.0
C      1  0.4397370000000  0.6567670000000  0.4714500000000 1.0
C      1  0.4260590000000  0.6496000000000  0.6561550000000 1.0
C      1  0.6288120000000  0.6900720000000  0.3769070000000 1.0
C      1  0.5268150000000  0.2932730000000  0.5931420000000 1.0
C      1  0.4397090000000  0.4646590000000  0.2936850000000 1.0
C      1  0.5229360000000  0.5121260000000  0.2687660000000 1.0
END
