TITL C-3036483-1610-1078 3.76658904082631e-05 3375 -346.918376703409 0 0 60 (C1) n - 1
REM
REM in /home/bkarasulu/work/CARBON/AIRSS/Generating-Clusters/REBO/Higher-Symm/Only-C60
REM
REM
REM
REM
REM
REM ./C.cell (a2850807a9bf4ad07a5b6933b78d9264)
REM AIRSS Version 0.9.1 bugfix July 2018 build 013d7b7c2542+ Fri, 06 Jul 2018 19:26:36 +0100
REM compiler GCC version 9.2.1 20190827 (Red Hat 9.2.1-1)
REM options -cpp -mtune=generic -march=x86-64 -g -O0 -fpre-include=/usr/include/finclude/math-vector-fortran.h
REM seed -1593239232 609917385 -178171530 818333688 918130468 498074315 -1980941330 -1714517592 -558804820 1290652626 1488556874 -128686273 2007213236 904164088 2010868682 -392783781 -1709721456 705391704 -1639004326 75367320 532832665 -1199267755 -1125941560 764563461 2043992335 241727265 -1928227984 -686743427 -105620985 65752710 -1866281136 1396075836 -121126221
REM
CELL 1.54180   15.00000   15.00000   15.00000   90.00000   90.00000   90.00000
LATT -1
SFAC C  
C      1  0.3908030000000  0.5541900000000  0.6281690000000 1.0
C      1  0.5972980000000  0.5671010000000  0.6249770000000 1.0
C      1  0.5061600000000  0.3810880000000  0.6257910000000 1.0
C      1  0.4471900000000  0.4074370000000  0.7208200000000 1.0
C      1  0.4451510000000  0.5955220000000  0.7209840000000 1.0
C      1  0.6087190000000  0.5031830000000  0.7196350000000 1.0
C      1  0.3277280000000  0.4042480000000  0.3871910000000 1.0
C      1  0.5040400000000  0.6953630000000  0.3854090000000 1.0
C      1  0.6639260000000  0.3967750000000  0.3931510000000 1.0
C      1  0.5618000000000  0.3879770000000  0.3927280000000 1.0
C      1  0.3639950000000  0.4985840000000  0.3948620000000 1.0
C      1  0.5662130000000  0.6162500000000  0.3962940000000 1.0
C      1  0.4926170000000  0.4385720000000  0.2480400000000 1.0
C      1  0.4531990000000  0.5367720000000  0.2530610000000 1.0
C      1  0.5589570000000  0.5218540000000  0.2552890000000 1.0
C      1  0.6653010000000  0.4100790000000  0.6874990000000 1.0
C      1  0.3378160000000  0.4094350000000  0.6892370000000 1.0
C      1  0.5003220000000  0.6884590000000  0.6855050000000 1.0
C      1  0.6925780000000  0.7050980000000  0.4745670000000 1.0
C      1  0.6225690000000  0.2402590000000  0.4357890000000 1.0
C      1  0.2232820000000  0.5654580000000  0.4681170000000 1.0
C      1  0.3890950000000  0.5021710000000  0.7258100000000 1.0
C      1  0.5562350000000  0.5986240000000  0.7228060000000 1.0
C      1  0.5571170000000  0.4047920000000  0.7208910000000 1.0
C      1  0.3904940000000  0.4815970000000  0.5579560000000 1.0
C      1  0.5331270000000  0.6028740000000  0.5563250000000 1.0
C      1  0.5666120000000  0.4183870000000  0.5545230000000 1.0
C      1  0.7261520000000  0.5782510000000  0.3547500000000 1.0
C      1  0.4595630000000  0.2637360000000  0.3427720000000 1.0
C      1  0.3165400000000  0.6525910000000  0.3431710000000 1.0
C      1  0.4958300000000  0.7584150000000  0.6035780000000 1.0
C      1  0.7306030000000  0.3815000000000  0.6075380000000 1.0
C      1  0.2759150000000  0.3727310000000  0.6075810000000 1.0
C      1  0.6920330000000  0.4802120000000  0.3737160000000 1.0
C      1  0.3886860000000  0.3404640000000  0.3648560000000 1.0
C      1  0.4181180000000  0.6745220000000  0.3640450000000 1.0
C      1  0.6186460000000  0.5534270000000  0.3257050000000 1.0
C      1  0.4873990000000  0.3716840000000  0.3184710000000 1.0
C      1  0.3932490000000  0.5720780000000  0.3209070000000 1.0
C      1  0.5302150000000  0.4473230000000  0.4656740000000 1.0
C      1  0.4317030000000  0.4978680000000  0.4679870000000 1.0
C      1  0.5256310000000  0.5587040000000  0.4669590000000 1.0
C      1  0.6654350000000  0.2241110000000  0.5285610000000 1.0
C      1  0.2005880000000  0.5050780000000  0.5328950000000 1.0
C      1  0.6503600000000  0.7580320000000  0.5358700000000 1.0
C      1  0.6961720000000  0.3209080000000  0.4438420000000 1.0
C      1  0.2579930000000  0.3845260000000  0.4480240000000 1.0
C      1  0.5212560000000  0.7671290000000  0.4446760000000 1.0
C      1  0.4436620000000  0.6367590000000  0.5948310000000 1.0
C      1  0.6402510000000  0.4776430000000  0.5931750000000 1.0
C      1  0.4073090000000  0.3868520000000  0.5958580000000 1.0
C      1  0.6711570000000  0.6434860000000  0.4081810000000 1.0
C      1  0.5459640000000  0.2785590000000  0.3929930000000 1.0
C      1  0.2871010000000  0.5752910000000  0.4009170000000 1.0
C      1  0.3394460000000  0.2990670000000  0.5773170000000 1.0
C      1  0.4020530000000  0.7384050000000  0.5704770000000 1.0
C      1  0.7476540000000  0.4690980000000  0.5610600000000 1.0
C      1  0.5571850000000  0.7747000000000  0.5332070000000 1.0
C      1  0.7209010000000  0.3086540000000  0.5499250000000 1.0
C      1  0.2328850000000  0.4160450000000  0.5350540000000 1.0
END
