TITL C-3036479-9801-92 5.03974264114316e-06 3375 -345.333103365759 0 0 60 (Ci) n - 1
REM
REM in /home/bkarasulu/work/CARBON/AIRSS/Generating-Clusters/REBO/Higher-Symm/Only-C60
REM
REM
REM
REM
REM
REM ./C.cell (a2850807a9bf4ad07a5b6933b78d9264)
REM AIRSS Version 0.9.1 bugfix July 2018 build 013d7b7c2542+ Fri, 06 Jul 2018 19:26:36 +0100
REM compiler GCC version 9.2.1 20190827 (Red Hat 9.2.1-1)
REM options -cpp -mtune=generic -march=x86-64 -g -O0 -fpre-include=/usr/include/finclude/math-vector-fortran.h
REM seed 1059397520 -110623692 -1947250600 -1736209294 -1639575448 -1918184739 169724125 797953845 -704846676 -428255786 1762318056 -156238921 -1401706727 -827686624 1491238014 994862324 1732352608 1054013338 1808839778 607230687 -1297329074 382136329 211071816 1286430049 -1732490544 -37083863 -1280631451 -590564335 -962242200 -113900434 -624038905 231100901 -1310954383
REM
CELL 1.54180   15.00000   15.00000   15.00000   90.00000   90.00000   90.00000
LATT -1
SFAC C  
C      1  0.4064710000000  0.6619530000000  0.4255750000000 1.0
C      1  0.5935290000000  0.3380470000000  0.5744250000000 1.0
C      1  0.6404790000000  0.4670770000000  0.3170590000000 1.0
C      1  0.3595210000000  0.5329230000000  0.6829410000000 1.0
C      1  0.2574180000000  0.4593600000000  0.4069450000000 1.0
C      1  0.7425820000000  0.5406400000000  0.5930550000000 1.0
C      1  0.6653050000000  0.6537080000000  0.4191980000000 1.0
C      1  0.3346950000000  0.3462920000000  0.5808020000000 1.0
C      1  0.5727420000000  0.7138850000000  0.4453470000000 1.0
C      1  0.4272580000000  0.2861150000000  0.5546530000000 1.0
C      1  0.4376680000000  0.6325620000000  0.2993790000000 1.0
C      1  0.5623320000000  0.3674380000000  0.7006210000000 1.0
C      1  0.5048070000000  0.6841640000000  0.6123910000000 1.0
C      1  0.4951930000000  0.3158360000000  0.3876090000000 1.0
C      1  0.4569630000000  0.4860840000000  0.6946270000000 1.0
C      1  0.5430370000000  0.5139160000000  0.3053730000000 1.0
C      1  0.5724960000000  0.5739460000000  0.5675020000000 1.0
C      1  0.4275040000000  0.4260540000000  0.4324980000000 1.0
C      1  0.7004260000000  0.3432840000000  0.5378660000000 1.0
C      1  0.2995740000000  0.6567160000000  0.4621340000000 1.0
C      1  0.3436250000000  0.4324170000000  0.6541380000000 1.0
C      1  0.6563750000000  0.5675830000000  0.3458620000000 1.0
C      1  0.5506530000000  0.5409640000000  0.7054500000000 1.0
C      1  0.4493470000000  0.4590360000000  0.2945500000000 1.0
C      1  0.4174370000000  0.5477150000000  0.3326950000000 1.0
C      1  0.5825630000000  0.4522850000000  0.6673050000000 1.0
C      1  0.5700120000000  0.7102090000000  0.5436280000000 1.0
C      1  0.4299880000000  0.2897910000000  0.4563720000000 1.0
C      1  0.5898710000000  0.3208850000000  0.4005670000000 1.0
C      1  0.4101290000000  0.6791150000000  0.5994330000000 1.0
C      1  0.2970030000000  0.4845390000000  0.5296870000000 1.0
C      1  0.7029970000000  0.5154610000000  0.4703130000000 1.0
C      1  0.3431860000000  0.3175690000000  0.4253110000000 1.0
C      1  0.6568140000000  0.6824310000000  0.5746890000000 1.0
C      1  0.6573120000000  0.5884850000000  0.6221070000000 1.0
C      1  0.3426880000000  0.4115150000000  0.3778930000000 1.0
C      1  0.4282750000000  0.5584620000000  0.4404680000000 1.0
C      1  0.5717250000000  0.4415380000000  0.5595320000000 1.0
C      1  0.3497120000000  0.6098920000000  0.6295290000000 1.0
C      1  0.6502880000000  0.3901080000000  0.3704710000000 1.0
C      1  0.2517630000000  0.5563990000000  0.4515170000000 1.0
C      1  0.7482370000000  0.4436010000000  0.5484830000000 1.0
C      1  0.7211170000000  0.6163720000000  0.5090670000000 1.0
C      1  0.2788830000000  0.3836280000000  0.4909330000000 1.0
C      1  0.5115350000000  0.4905680000000  0.4077800000000 1.0
C      1  0.4884650000000  0.5094320000000  0.5922200000000 1.0
C      1  0.4113980000000  0.4163890000000  0.5362920000000 1.0
C      1  0.5886020000000  0.5836110000000  0.4637080000000 1.0
C      1  0.6212000000000  0.2844230000000  0.4827150000000 1.0
C      1  0.3788000000000  0.7155770000000  0.5172850000000 1.0
C      1  0.7143400000000  0.4077010000000  0.4453770000000 1.0
C      1  0.2856600000000  0.5922990000000  0.5546230000000 1.0
C      1  0.5424860000000  0.6318360000000  0.6836780000000 1.0
C      1  0.4575140000000  0.3681640000000  0.3163220000000 1.0
C      1  0.4032130000000  0.5227520000000  0.5286170000000 1.0
C      1  0.5967870000000  0.4772480000000  0.4713830000000 1.0
C      1  0.4912440000000  0.6982380000000  0.3745690000000 1.0
C      1  0.5087560000000  0.3017620000000  0.6254310000000 1.0
C      1  0.4472840000000  0.3888870000000  0.6369950000000 1.0
C      1  0.5527160000000  0.6111130000000  0.3630050000000 1.0
END
