TITL C-3036484-3770-982 4.76102309464524e-06 3375 -319.718531189487 0 0 60 (C4) n - 1
REM
REM in /home/bkarasulu/work/CARBON/AIRSS/Generating-Clusters/REBO/Higher-Symm/Only-C60
REM
REM
REM
REM
REM
REM ./C.cell (a2850807a9bf4ad07a5b6933b78d9264)
REM AIRSS Version 0.9.1 bugfix July 2018 build 013d7b7c2542+ Fri, 06 Jul 2018 19:26:36 +0100
REM compiler GCC version 9.2.1 20190827 (Red Hat 9.2.1-1)
REM options -cpp -mtune=generic -march=x86-64 -g -O0 -fpre-include=/usr/include/finclude/math-vector-fortran.h
REM seed 2031324225 1884303020 247694315 1521686676 683982418 781210490 -370340010 1690846416 -195372301 -2134276426 -2080110795 1400039899 -1298335300 -826771183 2029246903 -409848360 2107700698 700244044 -461967767 -595381459 -1789734893 1908399414 57422458 -859144629 -1681231411 -314487415 966156084 -866231045 2106655523 -1698100360 -1240836267 -2106697870 -2028452095
REM
CELL 1.54180   15.00000   15.00000   15.00000   90.00000   90.00000   90.00000
LATT -1
SFAC C  
C      1  0.4327050000000  0.4655010000000  0.2320660000000 1.0
C      1  0.4439980000000  0.6339800000000  0.2458030000000 1.0
C      1  0.4538760000000  0.7417300000000  0.3597410000000 1.0
C      1  0.4327050000000  0.7679330000000  0.4655010000000 1.0
C      1  0.4439970000000  0.7541960000000  0.6339790000000 1.0
C      1  0.4538760000000  0.6402590000000  0.7417300000000 1.0
C      1  0.4327050000000  0.5344990000000  0.7679340000000 1.0
C      1  0.4439980000000  0.3660200000000  0.7541970000000 1.0
C      1  0.4538760000000  0.2582700000000  0.6402590000000 1.0
C      1  0.4327050000000  0.2320670000000  0.5344990000000 1.0
C      1  0.4439970000000  0.2458040000000  0.3660210000000 1.0
C      1  0.4538760000000  0.3597410000000  0.2582700000000 1.0
C      1  0.5571770000000  0.2408920000000  0.3735140000000 1.0
C      1  0.5675100000000  0.3661630000000  0.2641500000000 1.0
C      1  0.5463480000000  0.4678680000000  0.2185610000000 1.0
C      1  0.5571780000000  0.6264870000000  0.2408910000000 1.0
C      1  0.5675100000000  0.7358490000000  0.3661630000000 1.0
C      1  0.5463480000000  0.7814380000000  0.4678680000000 1.0
C      1  0.5571770000000  0.7591080000000  0.6264860000000 1.0
C      1  0.5675100000000  0.6338370000000  0.7358500000000 1.0
C      1  0.5463480000000  0.5321320000000  0.7814390000000 1.0
C      1  0.5571780000000  0.3735130000000  0.7591090000000 1.0
C      1  0.5675100000000  0.2641510000000  0.6338370000000 1.0
C      1  0.5463480000000  0.2185620000000  0.5321320000000 1.0
C      1  0.5045140000000  0.4300790000000  0.3382270000000 1.0
C      1  0.4966600000000  0.5267640000000  0.3042400000000 1.0
C      1  0.5030520000000  0.6194560000000  0.3416840000000 1.0
C      1  0.5045140000000  0.6617730000000  0.4300780000000 1.0
C      1  0.4966600000000  0.6957590000000  0.5267630000000 1.0
C      1  0.5030520000000  0.6583150000000  0.6194560000000 1.0
C      1  0.5045140000000  0.5699210000000  0.6617730000000 1.0
C      1  0.4966600000000  0.4732360000000  0.6957600000000 1.0
C      1  0.5030520000000  0.3805440000000  0.6583160000000 1.0
C      1  0.5045140000000  0.3382270000000  0.5699220000000 1.0
C      1  0.4966600000000  0.3042410000000  0.4732370000000 1.0
C      1  0.5030520000000  0.3416850000000  0.3805440000000 1.0
C      1  0.3665250000000  0.6850560000000  0.5010930000000 1.0
C      1  0.3732610000000  0.6760860000000  0.5975640000000 1.0
C      1  0.3764950000000  0.6040160000000  0.6664420000000 1.0
C      1  0.3665260000000  0.4989070000000  0.6850570000000 1.0
C      1  0.3732620000000  0.4024350000000  0.6760870000000 1.0
C      1  0.3764950000000  0.3335590000000  0.6040170000000 1.0
C      1  0.3665250000000  0.3149440000000  0.4989070000000 1.0
C      1  0.3732610000000  0.3239140000000  0.4024360000000 1.0
C      1  0.3764950000000  0.3959840000000  0.3335580000000 1.0
C      1  0.3665260000000  0.5010930000000  0.3149430000000 1.0
C      1  0.3732620000000  0.5975650000000  0.3239130000000 1.0
C      1  0.3764950000000  0.6664410000000  0.3959830000000 1.0
C      1  0.6218270000000  0.6969340000000  0.4813550000000 1.0
C      1  0.6265630000000  0.6853800000000  0.5794240000000 1.0
C      1  0.6294870000000  0.6123450000000  0.6449780000000 1.0
C      1  0.6218280000000  0.5186450000000  0.6969350000000 1.0
C      1  0.6265630000000  0.4205760000000  0.6853800000000 1.0
C      1  0.6294870000000  0.3550220000000  0.6123450000000 1.0
C      1  0.6218270000000  0.3030660000000  0.5186450000000 1.0
C      1  0.6265630000000  0.3146200000000  0.4205760000000 1.0
C      1  0.6294870000000  0.3876550000000  0.3550220000000 1.0
C      1  0.6218280000000  0.4813550000000  0.3030650000000 1.0
C      1  0.6265630000000  0.5794240000000  0.3146200000000 1.0
C      1  0.6294870000000  0.6449780000000  0.3876550000000 1.0
END
