TITL C-3036484-3770-369 1.42737507896532e-05 3375 -350.954201744188 0 0 60 (C1) n - 1
REM
REM in /home/bkarasulu/work/CARBON/AIRSS/Generating-Clusters/REBO/Higher-Symm/Only-C60
REM
REM
REM
REM
REM
REM ./C.cell (a2850807a9bf4ad07a5b6933b78d9264)
REM AIRSS Version 0.9.1 bugfix July 2018 build 013d7b7c2542+ Fri, 06 Jul 2018 19:26:36 +0100
REM compiler GCC version 9.2.1 20190827 (Red Hat 9.2.1-1)
REM options -cpp -mtune=generic -march=x86-64 -g -O0 -fpre-include=/usr/include/finclude/math-vector-fortran.h
REM seed 627569382 -1361162512 887393032 -615186458 2126839848 280180023 427279534 1649854233 1286877208 -1304607547 228728486 1698676224 949505362 576463531 2051364255 -1550365722 -1287495977 -1124617703 -560015384 1238207619 -345118312 1432567521 -1876290144 2024290558 -1093403499 -1081217831 -1001257312 465533171 975071979 -390680294 71481021 1156162883 1645730709
REM
CELL 1.54180   15.00000   15.00000   15.00000   90.00000   90.00000   90.00000
LATT -1
SFAC C  
C      1  0.7335860000000  0.4932670000000  0.4175700000000 1.0
C      1  0.3086400000000  0.5020210000000  0.3360420000000 1.0
C      1  0.4541130000000  0.5010450000000  0.7519150000000 1.0
C      1  0.2586270000000  0.4979610000000  0.4121940000000 1.0
C      1  0.6864220000000  0.5017870000000  0.3397980000000 1.0
C      1  0.5454210000000  0.5073150000000  0.7464890000000 1.0
C      1  0.3828030000000  0.4427990000000  0.5013310000000 1.0
C      1  0.5429260000000  0.4831270000000  0.5896630000000 1.0
C      1  0.5432460000000  0.4827610000000  0.4109740000000 1.0
C      1  0.5972070000000  0.4590240000000  0.5004010000000 1.0
C      1  0.4365020000000  0.4642000000000  0.5921210000000 1.0
C      1  0.4372960000000  0.4632920000000  0.4102660000000 1.0
C      1  0.5928110000000  0.3396650000000  0.3434030000000 1.0
C      1  0.3179340000000  0.3263660000000  0.5001260000000 1.0
C      1  0.5929920000000  0.3405260000000  0.6574640000000 1.0
C      1  0.4100500000000  0.3312590000000  0.3407980000000 1.0
C      1  0.6878430000000  0.3249020000000  0.5005070000000 1.0
C      1  0.4111180000000  0.3282300000000  0.6631230000000 1.0
C      1  0.3939690000000  0.5502510000000  0.5005770000000 1.0
C      1  0.5504610000000  0.5959510000000  0.5882920000000 1.0
C      1  0.5507360000000  0.5956190000000  0.4120260000000 1.0
C      1  0.5995390000000  0.5637300000000  0.5002670000000 1.0
C      1  0.4456500000000  0.5738810000000  0.5904350000000 1.0
C      1  0.4458910000000  0.5734040000000  0.4104970000000 1.0
C      1  0.7090210000000  0.6393740000000  0.4999560000000 1.0
C      1  0.3968650000000  0.6513730000000  0.3148580000000 1.0
C      1  0.4000980000000  0.6514750000000  0.6879170000000 1.0
C      1  0.2994510000000  0.6434740000000  0.4962530000000 1.0
C      1  0.6141810000000  0.6577000000000  0.3132070000000 1.0
C      1  0.6139350000000  0.6576030000000  0.6873770000000 1.0
C      1  0.5943700000000  0.4416540000000  0.3291020000000 1.0
C      1  0.2764250000000  0.4240440000000  0.4934620000000 1.0
C      1  0.5943000000000  0.4426730000000  0.6713880000000 1.0
C      1  0.3952860000000  0.4327760000000  0.3182070000000 1.0
C      1  0.6960840000000  0.4270090000000  0.5002970000000 1.0
C      1  0.4003750000000  0.4297240000000  0.6855210000000 1.0
C      1  0.4545650000000  0.2959850000000  0.4177410000000 1.0
C      1  0.4545990000000  0.2948190000000  0.5845490000000 1.0
C      1  0.5984400000000  0.2905580000000  0.5006230000000 1.0
C      1  0.5502630000000  0.2962920000000  0.4175240000000 1.0
C      1  0.5504200000000  0.2962800000000  0.5838340000000 1.0
C      1  0.4072730000000  0.2949890000000  0.5010980000000 1.0
C      1  0.7438170000000  0.5512230000000  0.5000300000000 1.0
C      1  0.3770080000000  0.5614240000000  0.2891930000000 1.0
C      1  0.3827670000000  0.5596370000000  0.7092080000000 1.0
C      1  0.2608960000000  0.5562780000000  0.4954470000000 1.0
C      1  0.6228280000000  0.5653480000000  0.2894350000000 1.0
C      1  0.6236590000000  0.5656980000000  0.7123350000000 1.0
C      1  0.6865590000000  0.5024510000000  0.6604770000000 1.0
C      1  0.5430750000000  0.5084590000000  0.2572860000000 1.0
C      1  0.2725970000000  0.4984970000000  0.5775430000000 1.0
C      1  0.3208600000000  0.5023160000000  0.6530240000000 1.0
C      1  0.4520930000000  0.5032620000000  0.2529540000000 1.0
C      1  0.7335780000000  0.4936200000000  0.5827120000000 1.0
C      1  0.4540110000000  0.6869310000000  0.5977720000000 1.0
C      1  0.6073030000000  0.6781450000000  0.5001040000000 1.0
C      1  0.4541280000000  0.6864330000000  0.4027760000000 1.0
C      1  0.5629400000000  0.7031340000000  0.5992670000000 1.0
C      1  0.4073370000000  0.6640070000000  0.5001430000000 1.0
C      1  0.5628140000000  0.7029560000000  0.4011040000000 1.0
END
