TITL C-3036484-3770-421 0.00797513598487081 3375 -328.473980787189 0 0 60 (C3) n - 1
REM
REM in /home/bkarasulu/work/CARBON/AIRSS/Generating-Clusters/REBO/Higher-Symm/Only-C60
REM
REM
REM
REM
REM
REM ./C.cell (a2850807a9bf4ad07a5b6933b78d9264)
REM AIRSS Version 0.9.1 bugfix July 2018 build 013d7b7c2542+ Fri, 06 Jul 2018 19:26:36 +0100
REM compiler GCC version 9.2.1 20190827 (Red Hat 9.2.1-1)
REM options -cpp -mtune=generic -march=x86-64 -g -O0 -fpre-include=/usr/include/finclude/math-vector-fortran.h
REM seed 206644873 -1296154545 -1001807344 962102071 1230580594 -936665250 1678862761 340621525 546148374 -759693964 -15474034 -219571021 -152883602 -1853940180 1709752938 -464729336 1072650140 -624157241 1526974546 509994053 -2076562926 2036620956 1073878985 -1738434214 1600881290 -939015562 -741489287 -2071353892 -1238952038 961063903 -1015248397 679151992 -1960711412
REM
CELL 1.54180   15.00000   15.00000   15.00000   90.00000   90.00000   90.00000
LATT -1
SFAC C  
C      1  0.3925250000000  0.5690180000000  0.4658900000000 1.0
C      1  0.3924880000000  0.4950500000000  0.5768230000000 1.0
C      1  0.3925050000000  0.4359630000000  0.4572980000000 1.0
C      1  0.4504020000000  0.5813890000000  0.5524480000000 1.0
C      1  0.4503790000000  0.4139110000000  0.5442790000000 1.0
C      1  0.4504130000000  0.5047180000000  0.4033250000000 1.0
C      1  0.6848480000000  0.6300560000000  0.5519740000000 1.0
C      1  0.6849080000000  0.3899150000000  0.5867360000000 1.0
C      1  0.6848760000000  0.4799260000000  0.3613310000000 1.0
C      1  0.3977240000000  0.7077840000000  0.4272500000000 1.0
C      1  0.3977290000000  0.4591540000000  0.7162970000000 1.0
C      1  0.3977340000000  0.3330910000000  0.3564060000000 1.0
C      1  0.5066990000000  0.3311610000000  0.6669710000000 1.0
C      1  0.5066860000000  0.4397950000000  0.2702450000000 1.0
C      1  0.5066990000000  0.7290790000000  0.5627350000000 1.0
C      1  0.3522570000000  0.3267150000000  0.5243270000000 1.0
C      1  0.3522410000000  0.5655090000000  0.3378100000000 1.0
C      1  0.3522430000000  0.6077480000000  0.6378620000000 1.0
C      1  0.5071830000000  0.6324310000000  0.4310170000000 1.0
C      1  0.5072440000000  0.4936660000000  0.6492960000000 1.0
C      1  0.5072250000000  0.3739190000000  0.4197760000000 1.0
C      1  0.5830910000000  0.6158590000000  0.2841620000000 1.0
C      1  0.5830840000000  0.6290510000000  0.7083030000000 1.0
C      1  0.5831420000000  0.2552260000000  0.5075200000000 1.0
C      1  0.4653260000000  0.7515610000000  0.4731290000000 1.0
C      1  0.4653170000000  0.3975110000000  0.7312390000000 1.0
C      1  0.4653240000000  0.3509400000000  0.2955410000000 1.0
C      1  0.5706760000000  0.7253070000000  0.4463490000000 1.0
C      1  0.5706850000000  0.4337860000000  0.7219980000000 1.0
C      1  0.5706920000000  0.3408340000000  0.3315960000000 1.0
C      1  0.4939820000000  0.6430480000000  0.7177810000000 1.0
C      1  0.4940560000000  0.2399330000000  0.5149020000000 1.0
C      1  0.4939890000000  0.6170870000000  0.2673090000000 1.0
C      1  0.3204820000000  0.6605410000000  0.4692270000000 1.0
C      1  0.3204570000000  0.4464320000000  0.6544470000000 1.0
C      1  0.3205080000000  0.3930650000000  0.3763460000000 1.0
C      1  0.2893620000000  0.3905190000000  0.4775470000000 1.0
C      1  0.2893510000000  0.5741510000000  0.4164570000000 1.0
C      1  0.2893410000000  0.5353340000000  0.6060210000000 1.0
C      1  0.6100780000000  0.6065190000000  0.6266210000000 1.0
C      1  0.6100700000000  0.3372240000000  0.5289530000000 1.0
C      1  0.6100870000000  0.5563410000000  0.3444700000000 1.0
C      1  0.4328060000000  0.6400840000000  0.3520680000000 1.0
C      1  0.4328030000000  0.5581320000000  0.6953440000000 1.0
C      1  0.4328130000000  0.3017760000000  0.4526060000000 1.0
C      1  0.5540820000000  0.4761510000000  0.4004040000000 1.0
C      1  0.5540990000000  0.5981110000000  0.5292100000000 1.0
C      1  0.5540240000000  0.4257020000000  0.5704710000000 1.0
C      1  0.4471430000000  0.5215340000000  0.2940210000000 1.0
C      1  0.4471440000000  0.6676460000000  0.6216670000000 1.0
C      1  0.4471460000000  0.3108010000000  0.5842880000000 1.0
C      1  0.6113500000000  0.4368000000000  0.2870360000000 1.0
C      1  0.6113550000000  0.7159760000000  0.5517370000000 1.0
C      1  0.6113540000000  0.3472000000000  0.6612030000000 1.0
C      1  0.6972340000000  0.5201520000000  0.5627160000000 1.0
C      1  0.6972130000000  0.4355500000000  0.4861120000000 1.0
C      1  0.6972370000000  0.5441940000000  0.4511520000000 1.0
C      1  0.6326760000000  0.6304840000000  0.4522230000000 1.0
C      1  0.6326990000000  0.4761170000000  0.6369250000000 1.0
C      1  0.6327170000000  0.3933240000000  0.4108060000000 1.0
END
