TITL C-3036483-1610-94 0.000173074984667245 3375 -348.336511566456 0 0 60 (C2) n - 1
REM
REM in /home/bkarasulu/work/CARBON/AIRSS/Generating-Clusters/REBO/Higher-Symm/Only-C60
REM
REM
REM
REM
REM
REM ./C.cell (a2850807a9bf4ad07a5b6933b78d9264)
REM AIRSS Version 0.9.1 bugfix July 2018 build 013d7b7c2542+ Fri, 06 Jul 2018 19:26:36 +0100
REM compiler GCC version 9.2.1 20190827 (Red Hat 9.2.1-1)
REM options -cpp -mtune=generic -march=x86-64 -g -O0 -fpre-include=/usr/include/finclude/math-vector-fortran.h
REM seed -315567994 1428965006 1441247240 -112687589 1330209841 -1146871657 -1193138831 1058369085 -1007859440 -2046012958 -560057267 1679709518 1165932978 535244871 358497378 1105633051 -636227199 -1309722592 121532784 268174268 -1461574679 20150656 -1803932988 1722841847 1037600665 1638621991 -558150912 1025063941 923798387 -1873422888 1615973402 -1672718312 1717131764
REM
CELL 1.54180   15.00000   15.00000   15.00000   90.00000   90.00000   90.00000
LATT -1
SFAC C  
C      1  0.5005030000000  0.5471400000000  0.5804200000000 1.0
C      1  0.4994970000000  0.4528600000000  0.5804200000000 1.0
C      1  0.4345760000000  0.6925560000000  0.5045380000000 1.0
C      1  0.5654240000000  0.3074440000000  0.5045380000000 1.0
C      1  0.2606890000000  0.6035130000000  0.4480610000000 1.0
C      1  0.7393110000000  0.3964870000000  0.4480610000000 1.0
C      1  0.5272480000000  0.4542000000000  0.4504080000000 1.0
C      1  0.4727520000000  0.5458000000000  0.4504080000000 1.0
C      1  0.6867670000000  0.3950460000000  0.6149050000000 1.0
C      1  0.3132330000000  0.6049540000000  0.6149050000000 1.0
C      1  0.6647010000000  0.2687110000000  0.5029180000000 1.0
C      1  0.3352990000000  0.7312890000000  0.5029180000000 1.0
C      1  0.5965040000000  0.7078630000000  0.5162290000000 1.0
C      1  0.4034960000000  0.2921370000000  0.5162290000000 1.0
C      1  0.3699200000000  0.5561660000000  0.6733450000000 1.0
C      1  0.6300800000000  0.4438340000000  0.6733450000000 1.0
C      1  0.5198620000000  0.5466490000000  0.7131900000000 1.0
C      1  0.4801380000000  0.4533510000000  0.7131900000000 1.0
C      1  0.2808360000000  0.4581490000000  0.5313670000000 1.0
C      1  0.7191640000000  0.5418510000000  0.5313670000000 1.0
C      1  0.5492480000000  0.3886250000000  0.6918110000000 1.0
C      1  0.4507520000000  0.6113750000000  0.6918110000000 1.0
C      1  0.3452860000000  0.6967620000000  0.6024120000000 1.0
C      1  0.6547140000000  0.3032380000000  0.6024120000000 1.0
C      1  0.5849560000000  0.4613420000000  0.3657780000000 1.0
C      1  0.4150440000000  0.5386580000000  0.3657780000000 1.0
C      1  0.4252380000000  0.4157500000000  0.4580320000000 1.0
C      1  0.5747620000000  0.5842500000000  0.4580320000000 1.0
C      1  0.5360640000000  0.5428160000000  0.3026410000000 1.0
C      1  0.4639360000000  0.4571840000000  0.3026410000000 1.0
C      1  0.3967490000000  0.4627850000000  0.6647700000000 1.0
C      1  0.6032510000000  0.5372150000000  0.6647700000000 1.0
C      1  0.4137200000000  0.5883340000000  0.5291390000000 1.0
C      1  0.5862800000000  0.4116660000000  0.5291390000000 1.0
C      1  0.6074160000000  0.3562360000000  0.3530440000000 1.0
C      1  0.3925840000000  0.6437640000000  0.3530440000000 1.0
C      1  0.6887190000000  0.3242310000000  0.4205420000000 1.0
C      1  0.3112810000000  0.6757690000000  0.4205420000000 1.0
C      1  0.4297940000000  0.3139510000000  0.4122630000000 1.0
C      1  0.5702060000000  0.6860490000000  0.4122630000000 1.0
C      1  0.3167620000000  0.3502140000000  0.5369660000000 1.0
C      1  0.6832380000000  0.6497860000000  0.5369660000000 1.0
C      1  0.3645610000000  0.4590870000000  0.2651190000000 1.0
C      1  0.6354390000000  0.5409140000000  0.2651190000000 1.0
C      1  0.6945600000000  0.4467500000000  0.5258400000000 1.0
C      1  0.3054400000000  0.5532500000000  0.5258400000000 1.0
C      1  0.4942310000000  0.3691830000000  0.3354990000000 1.0
C      1  0.5057690000000  0.6308170000000  0.3354990000000 1.0
C      1  0.5363540000000  0.2935630000000  0.4086290000000 1.0
C      1  0.4636460000000  0.7064370000000  0.4086290000000 1.0
C      1  0.2891650000000  0.4020860000000  0.4417910000000 1.0
C      1  0.7108350000000  0.5979130000000  0.4417910000000 1.0
C      1  0.4421840000000  0.6940430000000  0.6375810000000 1.0
C      1  0.5578160000000  0.3059570000000  0.6375810000000 1.0
C      1  0.5154090000000  0.7159500000000  0.5679770000000 1.0
C      1  0.4845910000000  0.2840500000000  0.5679770000000 1.0
C      1  0.4006730000000  0.4142690000000  0.5687550000000 1.0
C      1  0.5993270000000  0.5857310000000  0.5687550000000 1.0
C      1  0.3531110000000  0.4474020000000  0.3760310000000 1.0
C      1  0.6468890000000  0.5525980000000  0.3760310000000 1.0
END
