TITL C-3036484-3770-36 -2.59881339781867e-06 3375 -345.673626397461 0 0 60 (D3) n - 1
REM
REM in /home/bkarasulu/work/CARBON/AIRSS/Generating-Clusters/REBO/Higher-Symm/Only-C60
REM
REM
REM
REM
REM
REM ./C.cell (a2850807a9bf4ad07a5b6933b78d9264)
REM AIRSS Version 0.9.1 bugfix July 2018 build 013d7b7c2542+ Fri, 06 Jul 2018 19:26:36 +0100
REM compiler GCC version 9.2.1 20190827 (Red Hat 9.2.1-1)
REM options -cpp -mtune=generic -march=x86-64 -g -O0 -fpre-include=/usr/include/finclude/math-vector-fortran.h
REM seed -1503031330 -1764932319 -969029176 1035673287 -59453699 1962567335 1132844699 -1930205334 2076082380 1125750319 -372522021 1614088971 1911874003 2005355296 -608724776 -1359969905 -1783746131 -267875207 588943832 -402398154 388695502 -1418863488 -1184940640 -862561857 1788083687 -1306889143 118336550 -238701937 -879919664 -32248381 1284236500 1589334957 -1523438153
REM
CELL 1.54180   15.00000   15.00000   15.00000   90.00000   90.00000   90.00000
LATT -1
SFAC C  
C      1  0.7158700000000  0.4500540000000  0.5854310000000 1.0
C      1  0.4337130000000  0.7135260000000  0.5854510000000 1.0
C      1  0.3466180000000  0.3374340000000  0.5854270000000 1.0
C      1  0.2815930000000  0.4500750000000  0.4183900000000 1.0
C      1  0.5637630000000  0.7135340000000  0.4184040000000 1.0
C      1  0.6508400000000  0.3374380000000  0.4183780000000 1.0
C      1  0.4087130000000  0.3334800000000  0.3477370000000 1.0
C      1  0.6882570000000  0.5058330000000  0.3477450000000 1.0
C      1  0.3992230000000  0.6617490000000  0.3477590000000 1.0
C      1  0.5887460000000  0.3334550000000  0.6560680000000 1.0
C      1  0.3092090000000  0.5058210000000  0.6560830000000 1.0
C      1  0.5982500000000  0.6617240000000  0.6560900000000 1.0
C      1  0.4604540000000  0.4233490000000  0.5813610000000 1.0
C      1  0.5845490000000  0.5056810000000  0.5813650000000 1.0
C      1  0.4511990000000  0.5719850000000  0.5813710000000 1.0
C      1  0.5370090000000  0.4233570000000  0.4224550000000 1.0
C      1  0.4129170000000  0.5056950000000  0.4224620000000 1.0
C      1  0.5462700000000  0.5719940000000  0.4224650000000 1.0
C      1  0.4045010000000  0.6094090000000  0.4431190000000 1.0
C      1  0.4513980000000  0.3642100000000  0.4431030000000 1.0
C      1  0.6402980000000  0.5274230000000  0.4431110000000 1.0
C      1  0.5929700000000  0.6093970000000  0.5607220000000 1.0
C      1  0.5460620000000  0.3642000000000  0.5607060000000 1.0
C      1  0.3571690000000  0.5274220000000  0.5607200000000 1.0
C      1  0.5604990000000  0.2934360000000  0.4071950000000 1.0
C      1  0.6470400000000  0.6572990000000  0.4072190000000 1.0
C      1  0.2886560000000  0.5503140000000  0.4072160000000 1.0
C      1  0.4369570000000  0.2934270000000  0.5966040000000 1.0
C      1  0.3504330000000  0.6572930000000  0.5966290000000 1.0
C      1  0.7088120000000  0.5502920000000  0.5966180000000 1.0
C      1  0.4891100000000  0.3285220000000  0.6753660000000 1.0
C      1  0.6523390000000  0.5779020000000  0.6753810000000 1.0
C      1  0.3547550000000  0.5945720000000  0.6753860000000 1.0
C      1  0.5083480000000  0.3285440000000  0.3284380000000 1.0
C      1  0.3451300000000  0.5779320000000  0.3284570000000 1.0
C      1  0.6427150000000  0.5945890000000  0.3284540000000 1.0
C      1  0.6315400000000  0.4280140000000  0.6508000000000 1.0
C      1  0.4949620000000  0.6515060000000  0.6508170000000 1.0
C      1  0.3697020000000  0.4214800000000  0.6508030000000 1.0
C      1  0.3659220000000  0.4280400000000  0.3530170000000 1.0
C      1  0.5025100000000  0.6515260000000  0.3530300000000 1.0
C      1  0.6277610000000  0.4214940000000  0.3530130000000 1.0
C      1  0.4463450000000  0.5807270000000  0.7137020000000 1.0
C      1  0.4553040000000  0.4147590000000  0.7136900000000 1.0
C      1  0.5945570000000  0.5055010000000  0.7136950000000 1.0
C      1  0.5511240000000  0.5807530000000  0.2901360000000 1.0
C      1  0.5421580000000  0.4147860000000  0.2901250000000 1.0
C      1  0.4029090000000  0.5055340000000  0.2901330000000 1.0
C      1  0.3125870000000  0.6078200000000  0.5019230000000 1.0
C      1  0.6848830000000  0.6078120000000  0.5019190000000 1.0
C      1  0.4987280000000  0.2853980000000  0.5018990000000 1.0
C      1  0.4987380000000  0.7430340000000  0.5019300000000 1.0
C      1  0.7089070000000  0.3789930000000  0.5019030000000 1.0
C      1  0.2885540000000  0.3790030000000  0.5019080000000 1.0
C      1  0.6137560000000  0.4339310000000  0.5019080000000 1.0
C      1  0.4987360000000  0.6331620000000  0.5019220000000 1.0
C      1  0.3837070000000  0.4339370000000  0.5019110000000 1.0
C      1  0.4987360000000  0.5003280000000  0.7300800000000 1.0
C      1  0.4987300000000  0.5003590000000  0.2737470000000 1.0
C      1  0.4987330000000  0.5003440000000  0.5019130000000 1.0
END
