TITL C-3036480-97-40 0.288844334201107 3375 -314.389381752086 0 0 60 (C6) n - 1
REM
REM in /home/bkarasulu/work/CARBON/AIRSS/Generating-Clusters/REBO/Higher-Symm/Only-C60
REM
REM
REM
REM
REM
REM ./C.cell (a2850807a9bf4ad07a5b6933b78d9264)
REM AIRSS Version 0.9.1 bugfix July 2018 build 013d7b7c2542+ Fri, 06 Jul 2018 19:26:36 +0100
REM compiler GCC version 9.2.1 20190827 (Red Hat 9.2.1-1)
REM options -cpp -mtune=generic -march=x86-64 -g -O0 -fpre-include=/usr/include/finclude/math-vector-fortran.h
REM seed 1791866168 1407496738 -1285595859 -2103604722 -1020566211 2050227291 -2123157642 -1899267984 -1415788786 -25088900 -1263240261 1773008735 1163459776 503835897 -1555487942 1313957141 658039387 2035132095 312538584 1201155601 -2031621512 2078492896 -1658327087 1802113392 813072621 1168464012 -1790674297 317943628 1201635278 121547914 -622064489 449874213 -1933081680
REM
CELL 1.54180   15.00000   15.00000   15.00000   90.00000   90.00000   90.00000
LATT -1
SFAC C  
C      1  0.5330260000000  0.4713690000000  0.3968710000000 1.0
C      1  0.5329830000000  0.3962650000000  0.4733690000000 1.0
C      1  0.5333560000000  0.4250210000000  0.5764220000000 1.0
C      1  0.5330260000000  0.5286310000000  0.6031290000000 1.0
C      1  0.5329830000000  0.6037350000000  0.5266310000000 1.0
C      1  0.5333560000000  0.5749790000000  0.4235780000000 1.0
C      1  0.3017630000000  0.4626220000000  0.4077600000000 1.0
C      1  0.3016370000000  0.4014660000000  0.4858340000000 1.0
C      1  0.3016430000000  0.4385890000000  0.5785970000000 1.0
C      1  0.3017630000000  0.5373780000000  0.5922400000000 1.0
C      1  0.3016370000000  0.5985340000000  0.5141660000000 1.0
C      1  0.3016430000000  0.5614110000000  0.4214030000000 1.0
C      1  0.3968650000000  0.4697630000000  0.7132280000000 1.0
C      1  0.3968030000000  0.6689240000000  0.6329600000000 1.0
C      1  0.3968150000000  0.6989200000000  0.4198380000000 1.0
C      1  0.3968650000000  0.5302380000000  0.2867720000000 1.0
C      1  0.3968030000000  0.3310760000000  0.3670390000000 1.0
C      1  0.3968150000000  0.3010800000000  0.5801620000000 1.0
C      1  0.4183000000000  0.4187600000000  0.2977400000000 1.0
C      1  0.4189670000000  0.2839730000000  0.4695110000000 1.0
C      1  0.4184400000000  0.3658760000000  0.6718080000000 1.0
C      1  0.4183000000000  0.5812390000000  0.7022600000000 1.0
C      1  0.4189670000000  0.7160260000000  0.5304890000000 1.0
C      1  0.4184390000000  0.6341230000000  0.3281920000000 1.0
C      1  0.5159360000000  0.5825610000000  0.7385120000000 1.0
C      1  0.5154270000000  0.7477190000000  0.5477750000000 1.0
C      1  0.5158440000000  0.6652810000000  0.3091440000000 1.0
C      1  0.5159360000000  0.4174390000000  0.2614880000000 1.0
C      1  0.5154270000000  0.2522810000000  0.4522250000000 1.0
C      1  0.5158440000000  0.3347190000000  0.6908560000000 1.0
C      1  0.6421090000000  0.3961340000000  0.5052920000000 1.0
C      1  0.6421360000000  0.4525140000000  0.5925720000000 1.0
C      1  0.6423950000000  0.5564560000000  0.5875860000000 1.0
C      1  0.6421090000000  0.6038660000000  0.4947080000000 1.0
C      1  0.6421360000000  0.5474860000000  0.4074280000000 1.0
C      1  0.6423950000000  0.4435430000000  0.4124140000000 1.0
C      1  0.5725360000000  0.5959960000000  0.2696740000000 1.0
C      1  0.5725030000000  0.3486290000000  0.3017670000000 1.0
C      1  0.5725590000000  0.2524740000000  0.5319240000000 1.0
C      1  0.5725360000000  0.4040040000000  0.7303260000000 1.0
C      1  0.5725030000000  0.6513710000000  0.6982330000000 1.0
C      1  0.5725590000000  0.7475260000000  0.4680760000000 1.0
C      1  0.4193280000000  0.3895710000000  0.4836970000000 1.0
C      1  0.4197280000000  0.4314690000000  0.5865590000000 1.0
C      1  0.4196130000000  0.5402410000000  0.6025680000000 1.0
C      1  0.4193280000000  0.6104300000000  0.5163040000000 1.0
C      1  0.4197280000000  0.5685310000000  0.4134410000000 1.0
C      1  0.4196130000000  0.4597600000000  0.3974320000000 1.0
C      1  0.6564780000000  0.5884960000000  0.3141820000000 1.0
C      1  0.6564890000000  0.3833250000000  0.3304040000000 1.0
C      1  0.6565470000000  0.2947460000000  0.5162700000000 1.0
C      1  0.6564780000000  0.4115040000000  0.6858180000000 1.0
C      1  0.6564890000000  0.6166750000000  0.6695960000000 1.0
C      1  0.6565470000000  0.7052540000000  0.4837300000000 1.0
C      1  0.5432620000000  0.5076500000000  0.2390590000000 1.0
C      1  0.5432730000000  0.2777700000000  0.3627990000000 1.0
C      1  0.5432390000000  0.2702100000000  0.6237940000000 1.0
C      1  0.5432620000000  0.4923500000000  0.7609410000000 1.0
C      1  0.5432730000000  0.7222300000000  0.6372010000000 1.0
C      1  0.5432390000000  0.7297900000000  0.3762060000000 1.0
END
