TITL C-3036482-790-726 0.0378854512232379 3375 -319.698424946375 0 0 60 (C1) n - 1
REM
REM in /home/bkarasulu/work/CARBON/AIRSS/Generating-Clusters/REBO/Higher-Symm/Only-C60
REM
REM
REM
REM
REM
REM ./C.cell (a2850807a9bf4ad07a5b6933b78d9264)
REM AIRSS Version 0.9.1 bugfix July 2018 build 013d7b7c2542+ Fri, 06 Jul 2018 19:26:36 +0100
REM compiler GCC version 9.2.1 20190827 (Red Hat 9.2.1-1)
REM options -cpp -mtune=generic -march=x86-64 -g -O0 -fpre-include=/usr/include/finclude/math-vector-fortran.h
REM seed 1016126688 -1199981811 -793819237 2108837011 401341238 750129136 1548397820 927272166 316074328 1516206896 1582000615 -214722244 -1021534231 -521133501 -38908172 -851970077 2118397159 -614432574 878084011 -2046938856 680972891 -327026945 177861552 353784190 -609596690 1566837261 709938177 885141338 -2119951593 1813503271 1351417537 1786185625 -1130238755
REM
CELL 1.54180   15.00000   15.00000   15.00000   90.00000   90.00000   90.00000
LATT -1
SFAC C  
C      1  0.5308220000000  0.6792950000000  0.6218340000000 1.0
C      1  0.6836070000000  0.4382980000000  0.6759670000000 1.0
C      1  0.3028710000000  0.4402430000000  0.5870790000000 1.0
C      1  0.5249400000000  0.3064880000000  0.3801980000000 1.0
C      1  0.6456530000000  0.6245490000000  0.3736420000000 1.0
C      1  0.3149770000000  0.5673000000000  0.3816670000000 1.0
C      1  0.6866970000000  0.5693720000000  0.5499680000000 1.0
C      1  0.4147240000000  0.2869170000000  0.5749540000000 1.0
C      1  0.3427500000000  0.6592620000000  0.5713740000000 1.0
C      1  0.7061830000000  0.4404460000000  0.3975540000000 1.0
C      1  0.4465150000000  0.7091880000000  0.4204490000000 1.0
C      1  0.3369560000000  0.3482010000000  0.4141630000000 1.0
C      1  0.3686850000000  0.4856200000000  0.6534710000000 1.0
C      1  0.5211090000000  0.5843290000000  0.6838590000000 1.0
C      1  0.5732970000000  0.4161090000000  0.6737950000000 1.0
C      1  0.3943900000000  0.5105240000000  0.3228630000000 1.0
C      1  0.5308710000000  0.4001820000000  0.3160100000000 1.0
C      1  0.5557610000000  0.5872600000000  0.3144900000000 1.0
C      1  0.4494370000000  0.4135370000000  0.3958650000000 1.0
C      1  0.4456970000000  0.5800250000000  0.3965140000000 1.0
C      1  0.5936950000000  0.5027180000000  0.3723240000000 1.0
C      1  0.4441790000000  0.5814680000000  0.6001050000000 1.0
C      1  0.4333020000000  0.4147370000000  0.5968400000000 1.0
C      1  0.6038150000000  0.4684470000000  0.5741770000000 1.0
C      1  0.2919310000000  0.5548520000000  0.5706710000000 1.0
C      1  0.6369360000000  0.6684860000000  0.5810740000000 1.0
C      1  0.5259840000000  0.2678830000000  0.5633920000000 1.0
C      1  0.2951640000000  0.4531820000000  0.3923730000000 1.0
C      1  0.6305020000000  0.3537530000000  0.3909940000000 1.0
C      1  0.5566330000000  0.6973490000000  0.3894560000000 1.0
C      1  0.3188740000000  0.3481840000000  0.5821570000000 1.0
C      1  0.4404210000000  0.7136010000000  0.5978650000000 1.0
C      1  0.7200990000000  0.4996320000000  0.6312140000000 1.0
C      1  0.3445550000000  0.6647830000000  0.3960400000000 1.0
C      1  0.4275290000000  0.2830250000000  0.3924390000000 1.0
C      1  0.7167730000000  0.5516460000000  0.3752840000000 1.0
C      1  0.6071410000000  0.5702600000000  0.6287030000000 1.0
C      1  0.4971170000000  0.3412510000000  0.6415020000000 1.0
C      1  0.3496240000000  0.5908970000000  0.6617530000000 1.0
C      1  0.6393790000000  0.4254140000000  0.3063070000000 1.0
C      1  0.4762700000000  0.6603890000000  0.3224670000000 1.0
C      1  0.3651040000000  0.4052330000000  0.3201150000000 1.0
C      1  0.6332530000000  0.6825310000000  0.4705020000000 1.0
C      1  0.5834550000000  0.3009690000000  0.4730930000000 1.0
C      1  0.3141940000000  0.5152940000000  0.4776150000000 1.0
C      1  0.4236260000000  0.6287860000000  0.4974960000000 1.0
C      1  0.6457170000000  0.4990440000000  0.4737700000000 1.0
C      1  0.4156020000000  0.3679160000000  0.4941060000000 1.0
C      1  0.4062860000000  0.4977240000000  0.4980290000000 1.0
C      1  0.5554870000000  0.6161440000000  0.4936200000000 1.0
C      1  0.6101450000000  0.3423900000000  0.5692090000000 1.0
C      1  0.5104480000000  0.4845060000000  0.8199850000000 1.0
C      1  0.4932200000000  0.5002770000000  0.1719880000000 1.0
C      1  0.4959750000000  0.4997220000000  0.2737280000000 1.0
C      1  0.5286350000000  0.4924430000000  0.7334590000000 1.0
C      1  0.4923890000000  0.5022170000000  0.0869567000000 1.0
C      1  0.4940920000000  0.4807220000000  0.9056760000000 1.0
C      1  0.5019670000000  0.4938370000000  0.4062210000000 1.0
C      1  0.4974410000000  0.4901330000000  0.5939340000000 1.0
C      1  0.5127990000000  0.5298560000000  0.4992710000000 1.0
END
