TITL C-3036480-97-991 -5.30950455756784e-06 3375 -373.38361439195 0 0 60 (C6) n - 1
REM
REM in /home/bkarasulu/work/CARBON/AIRSS/Generating-Clusters/REBO/Higher-Symm/Only-C60
REM
REM
REM
REM
REM
REM ./C.cell (a2850807a9bf4ad07a5b6933b78d9264)
REM AIRSS Version 0.9.1 bugfix July 2018 build 013d7b7c2542+ Fri, 06 Jul 2018 19:26:36 +0100
REM compiler GCC version 9.2.1 20190827 (Red Hat 9.2.1-1)
REM options -cpp -mtune=generic -march=x86-64 -g -O0 -fpre-include=/usr/include/finclude/math-vector-fortran.h
REM seed 491461258 -2053366723 -2065644010 213194449 -1891881877 1546807548 -1069645817 -1296101644 -828490128 1282834282 -144585131 1454831446 468468749 1113610241 735825948 184592776 -1177918730 -457696473 -1208769145 874379751 1433332793 200263499 -523399062 -924936809 -170948635 -463733392 344404851 463587471 579951983 77538645 -1056325969 -1237554181 -1244179675
REM
CELL 1.54180   15.00000   15.00000   15.00000   90.00000   90.00000   90.00000
LATT -1
SFAC C  
C      1  0.5395920000000  0.6014370000000  0.5534040000000 1.0
C      1  0.6076430000000  0.5164310000000  0.5534040000000 1.0
C      1  0.5680510000000  0.4149940000000  0.5534040000000 1.0
C      1  0.4604080000000  0.3985630000000  0.5534040000000 1.0
C      1  0.3923570000000  0.4835690000000  0.5534040000000 1.0
C      1  0.4319490000000  0.5850060000000  0.5534040000000 1.0
C      1  0.5395920000000  0.3985630000000  0.4465960000000 1.0
C      1  0.6076430000000  0.4835690000000  0.4465960000000 1.0
C      1  0.5680510000000  0.5850060000000  0.4465960000000 1.0
C      1  0.4604080000000  0.6014370000000  0.4465960000000 1.0
C      1  0.3923570000000  0.5164310000000  0.4465960000000 1.0
C      1  0.4319490000000  0.4149940000000  0.4465960000000 1.0
C      1  0.3838960000000  0.3550210000000  0.3710390000000 1.0
C      1  0.3163920000000  0.5280600000000  0.3710390000000 1.0
C      1  0.4324960000000  0.6730390000000  0.3710390000000 1.0
C      1  0.6161040000000  0.6449790000000  0.3710390000000 1.0
C      1  0.6836080000000  0.4719400000000  0.3710390000000 1.0
C      1  0.5675040000000  0.3269610000000  0.3710390000000 1.0
C      1  0.3838960000000  0.6449790000000  0.6289610000000 1.0
C      1  0.3163920000000  0.4719400000000  0.6289610000000 1.0
C      1  0.4324960000000  0.3269610000000  0.6289610000000 1.0
C      1  0.6161040000000  0.3550210000000  0.6289610000000 1.0
C      1  0.6836080000000  0.5280600000000  0.6289610000000 1.0
C      1  0.5675040000000  0.6730390000000  0.6289610000000 1.0
C      1  0.4961030000000  0.2474480000000  0.6355240000000 1.0
C      1  0.2793350000000  0.3770990000000  0.6355240000000 1.0
C      1  0.2832320000000  0.6296510000000  0.6355240000000 1.0
C      1  0.5038970000000  0.7525520000000  0.6355240000000 1.0
C      1  0.7206650000000  0.6229010000000  0.6355240000000 1.0
C      1  0.7167680000000  0.3703490000000  0.6355240000000 1.0
C      1  0.4961030000000  0.7525520000000  0.3644760000000 1.0
C      1  0.2793350000000  0.6229010000000  0.3644760000000 1.0
C      1  0.2832320000000  0.3703490000000  0.3644760000000 1.0
C      1  0.5038970000000  0.2474480000000  0.3644760000000 1.0
C      1  0.7206650000000  0.3770990000000  0.3644760000000 1.0
C      1  0.7167680000000  0.6296510000000  0.3644760000000 1.0
C      1  0.3318500000000  0.3115200000000  0.6355310000000 1.0
C      1  0.2526970000000  0.5513820000000  0.6355310000000 1.0
C      1  0.4208470000000  0.7398620000000  0.6355310000000 1.0
C      1  0.6681500000000  0.6884800000000  0.6355310000000 1.0
C      1  0.7473030000000  0.4486180000000  0.6355310000000 1.0
C      1  0.5791530000000  0.2601380000000  0.6355310000000 1.0
C      1  0.3318500000000  0.6884800000000  0.3644690000000 1.0
C      1  0.2526970000000  0.4486180000000  0.3644690000000 1.0
C      1  0.4208470000000  0.2601380000000  0.3644690000000 1.0
C      1  0.6681500000000  0.3115200000000  0.3644690000000 1.0
C      1  0.7473030000000  0.5513820000000  0.3644690000000 1.0
C      1  0.5791530000000  0.7398620000000  0.3644690000000 1.0
C      1  0.5585280000000  0.4269160000000  0.6855320000000 1.0
C      1  0.4659720000000  0.4127710000000  0.6855320000000 1.0
C      1  0.4074440000000  0.4858550000000  0.6855320000000 1.0
C      1  0.4414720000000  0.5730840000000  0.6855320000000 1.0
C      1  0.5340280000000  0.5872290000000  0.6855320000000 1.0
C      1  0.5925560000000  0.5141450000000  0.6855320000000 1.0
C      1  0.5585280000000  0.5730840000000  0.3144680000000 1.0
C      1  0.4659720000000  0.5872290000000  0.3144680000000 1.0
C      1  0.4074440000000  0.5141450000000  0.3144680000000 1.0
C      1  0.4414720000000  0.4269160000000  0.3144680000000 1.0
C      1  0.5340280000000  0.4127710000000  0.3144680000000 1.0
C      1  0.5925560000000  0.4858550000000  0.3144680000000 1.0
END
