TITL C-3036484-3770-1189 0.15815790947232 3375 -348.146518472698 0 0 60 (C3) n - 1
REM
REM in /home/bkarasulu/work/CARBON/AIRSS/Generating-Clusters/REBO/Higher-Symm/Only-C60
REM
REM
REM
REM
REM
REM ./C.cell (a2850807a9bf4ad07a5b6933b78d9264)
REM AIRSS Version 0.9.1 bugfix July 2018 build 013d7b7c2542+ Fri, 06 Jul 2018 19:26:36 +0100
REM compiler GCC version 9.2.1 20190827 (Red Hat 9.2.1-1)
REM options -cpp -mtune=generic -march=x86-64 -g -O0 -fpre-include=/usr/include/finclude/math-vector-fortran.h
REM seed -610653426 1181572591 1736990441 1977635770 -30660972 155635382 1639581681 -1813076143 1447235485 275349172 -1710033609 -223295836 325976437 -133152908 96199969 36996654 781253966 -1141103450 873377083 2031645380 1668678335 -759699539 -892676959 -1328659572 304035527 1936031622 -116630814 -1229467437 -1371632303 1692740816 -1672632616 8396020 -830867468
REM
CELL 1.54180   15.00000   15.00000   15.00000   90.00000   90.00000   90.00000
LATT -1
SFAC C  
C      1  0.4029810000000  0.6824530000000  0.5231080000000 1.0
C      1  0.4029760000000  0.4287640000000  0.3304080000000 1.0
C      1  0.4029780000000  0.3887850000000  0.6464640000000 1.0
C      1  0.3679690000000  0.3097740000000  0.4592130000000 1.0
C      1  0.3679800000000  0.5597990000000  0.6851380000000 1.0
C      1  0.3679500000000  0.6304160000000  0.3556320000000 1.0
C      1  0.5625960000000  0.6081130000000  0.6895160000000 1.0
C      1  0.5626030000000  0.6100240000000  0.3117500000000 1.0
C      1  0.5625980000000  0.2818420000000  0.4988850000000 1.0
C      1  0.6263370000000  0.3568600000000  0.5282330000000 1.0
C      1  0.6263290000000  0.5960270000000  0.6098150000000 1.0
C      1  0.6263810000000  0.5471810000000  0.3619280000000 1.0
C      1  0.5690170000000  0.4070220000000  0.2690340000000 1.0
C      1  0.5690450000000  0.3465000000000  0.6959870000000 1.0
C      1  0.5690430000000  0.7464720000000  0.5349250000000 1.0
C      1  0.5692120000000  0.5996340000000  0.5120370000000 1.0
C      1  0.5692410000000  0.4606470000000  0.4076610000000 1.0
C      1  0.5692340000000  0.4397180000000  0.5802740000000 1.0
C      1  0.4921230000000  0.4977650000000  0.6104410000000 1.0
C      1  0.4921510000000  0.5966880000000  0.4466380000000 1.0
C      1  0.4920120000000  0.4055190000000  0.4428000000000 1.0
C      1  0.4070890000000  0.3218310000000  0.5540010000000 1.0
C      1  0.4070770000000  0.6358460000000  0.6272860000000 1.0
C      1  0.4069660000000  0.5423350000000  0.3187290000000 1.0
C      1  0.6154600000000  0.7037990000000  0.4438670000000 1.0
C      1  0.6154470000000  0.3494920000000  0.3515780000000 1.0
C      1  0.6154590000000  0.4467000000000  0.7045710000000 1.0
C      1  0.4907040000000  0.7261820000000  0.5800560000000 1.0
C      1  0.4906510000000  0.4562560000000  0.2641250000000 1.0
C      1  0.4907070000000  0.3175620000000  0.6558450000000 1.0
C      1  0.4991970000000  0.2643900000000  0.5669990000000 1.0
C      1  0.4992010000000  0.6758330000000  0.6705530000000 1.0
C      1  0.4992680000000  0.5597380000000  0.2625730000000 1.0
C      1  0.3087330000000  0.4403160000000  0.3876340000000 1.0
C      1  0.3087080000000  0.4325320000000  0.6078750000000 1.0
C      1  0.3087040000000  0.6271330000000  0.5044810000000 1.0
C      1  0.7419940000000  0.5574100000000  0.4777020000000 1.0
C      1  0.7420200000000  0.4519950000000  0.4614220000000 1.0
C      1  0.7420150000000  0.4905930000000  0.5608570000000 1.0
C      1  0.6592210000000  0.6004490000000  0.4444000000000 1.0
C      1  0.6592470000000  0.4016440000000  0.4407820000000 1.0
C      1  0.6592490000000  0.4978950000000  0.6148030000000 1.0
C      1  0.2703160000000  0.4310490000000  0.5175740000000 1.0
C      1  0.2703240000000  0.5497400000000  0.5509700000000 1.0
C      1  0.2703430000000  0.5192720000000  0.4314630000000 1.0
C      1  0.4388960000000  0.6834550000000  0.4151630000000 1.0
C      1  0.4390200000000  0.3347810000000  0.3835880000000 1.0
C      1  0.4389340000000  0.4817350000000  0.7013080000000 1.0
C      1  0.4874970000000  0.5275010000000  0.3909970000000 1.0
C      1  0.4874020000000  0.3918420000000  0.5305850000000 1.0
C      1  0.4873530000000  0.5806490000000  0.5782950000000 1.0
C      1  0.5419780000000  0.5191910000000  0.7314120000000 1.0
C      1  0.5420110000000  0.6907680000000  0.3676760000000 1.0
C      1  0.5419060000000  0.2900790000000  0.4009530000000 1.0
C      1  0.2914330000000  0.3624720000000  0.4465720000000 1.0
C      1  0.2914250000000  0.5224910000000  0.6458240000000 1.0
C      1  0.2914320000000  0.6150290000000  0.4076030000000 1.0
C      1  0.6572610000000  0.6876730000000  0.5506550000000 1.0
C      1  0.6573130000000  0.4500530000000  0.3121230000000 1.0
C      1  0.6572850000000  0.3622850000000  0.6372160000000 1.0
END
