TITL C-3036484-3770-874 -0.0519998343648104 3375 -338.458076828564 0 0 60 (Ci) n - 1
REM
REM in /home/bkarasulu/work/CARBON/AIRSS/Generating-Clusters/REBO/Higher-Symm/Only-C60
REM
REM
REM
REM
REM
REM ./C.cell (a2850807a9bf4ad07a5b6933b78d9264)
REM AIRSS Version 0.9.1 bugfix July 2018 build 013d7b7c2542+ Fri, 06 Jul 2018 19:26:36 +0100
REM compiler GCC version 9.2.1 20190827 (Red Hat 9.2.1-1)
REM options -cpp -mtune=generic -march=x86-64 -g -O0 -fpre-include=/usr/include/finclude/math-vector-fortran.h
REM seed -1136888165 -1855335220 -787968985 1114678858 1691138135 1107117362 351266398 -1730837299 2078774996 -1407232377 -1948927103 1787230964 349059096 174595757 -1387722542 48954029 -741729828 258891855 -100392745 -1207970320 -1090762615 -636481476 -170957865 -243173174 665880707 -391533604 -1721462096 1017827766 1382743504 -191034837 -360774153 1591425054 -1049491516
REM
CELL 1.54180   15.00000   15.00000   15.00000   90.00000   90.00000   90.00000
LATT -1
SFAC C  
C      1  0.5794230000000  0.7571010000000  0.5138310000000 1.0
C      1  0.4203150000000  0.2427850000000  0.4861420000000 1.0
C      1  0.5074640000000  0.5672330000000  0.2501250000000 1.0
C      1  0.4927560000000  0.4327430000000  0.7500510000000 1.0
C      1  0.4972670000000  0.2438300000000  0.4262880000000 1.0
C      1  0.5023830000000  0.7557380000000  0.5735070000000 1.0
C      1  0.3943200000000  0.4585970000000  0.6989300000000 1.0
C      1  0.6058470000000  0.5414400000000  0.3012410000000 1.0
C      1  0.2917200000000  0.3969930000000  0.5028600000000 1.0
C      1  0.7084480000000  0.6029300000000  0.4970530000000 1.0
C      1  0.6494350000000  0.7355610000000  0.5736800000000 1.0
C      1  0.3502710000000  0.2644580000000  0.4263480000000 1.0
C      1  0.5354030000000  0.4583150000000  0.2652110000000 1.0
C      1  0.4645960000000  0.5416410000000  0.7350270000000 1.0
C      1  0.3671560000000  0.3945170000000  0.4450650000000 1.0
C      1  0.6328810000000  0.6054870000000  0.5548870000000 1.0
C      1  0.5689180000000  0.5892650000000  0.7219330000000 1.0
C      1  0.4311670000000  0.4106970000000  0.2781040000000 1.0
C      1  0.4726130000000  0.5985560000000  0.4725070000000 1.0
C      1  0.5274660000000  0.4015690000000  0.5272470000000 1.0
C      1  0.5870450000000  0.4975100000000  0.4565630000000 1.0
C      1  0.4130670000000  0.5027960000000  0.5435060000000 1.0
C      1  0.2356050000000  0.5408630000000  0.7092570000000 1.0
C      1  0.7644960000000  0.4590720000000  0.2906470000000 1.0
C      1  0.5584030000000  0.5725230000000  0.5065190000000 1.0
C      1  0.4415110000000  0.4275240000000  0.4937080000000 1.0
C      1  0.6115580000000  0.6368350000000  0.3635510000000 1.0
C      1  0.3885310000000  0.3633040000000  0.6365050000000 1.0
C      1  0.4156400000000  0.5124070000000  0.2826420000000 1.0
C      1  0.5843690000000  0.4876380000000  0.7173960000000 1.0
C      1  0.5427890000000  0.3853410000000  0.3457810000000 1.0
C      1  0.4571650000000  0.6145760000000  0.6545920000000 1.0
C      1  0.3858260000000  0.3435190000000  0.3527110000000 1.0
C      1  0.6141760000000  0.6564790000000  0.6473830000000 1.0
C      1  0.5419150000000  0.4516140000000  0.6278840000000 1.0
C      1  0.4582040000000  0.5484750000000  0.3721110000000 1.0
C      1  0.5584590000000  0.7167630000000  0.4243560000000 1.0
C      1  0.4415110000000  0.2831910000000  0.5755540000000 1.0
C      1  0.4772030000000  0.5301980000000  0.6033690000000 1.0
C      1  0.5226670000000  0.4697690000000  0.3969080000000 1.0
C      1  0.3064960000000  0.4124150000000  0.5922540000000 1.0
C      1  0.6936520000000  0.5876650000000  0.4076130000000 1.0
C      1  0.5019250000000  0.6447750000000  0.3518270000000 1.0
C      1  0.4981440000000  0.3551620000000  0.6483550000000 1.0
C      1  0.1818940000000  0.6053950000000  0.3816810000000 1.0
C      1  0.8179970000000  0.3945800000000  0.6181070000000 1.0
C      1  0.5110310000000  0.6881560000000  0.6408120000000 1.0
C      1  0.4888540000000  0.3116770000000  0.3592300000000 1.0
C      1  0.6730620000000  0.4597830000000  0.4395070000000 1.0
C      1  0.3269210000000  0.5403460000000  0.5604020000000 1.0
C      1  0.3923340000000  0.6623260000000  0.4827580000000 1.0
C      1  0.6075720000000  0.3376650000000  0.5170250000000 1.0
C      1  0.2392640000000  0.6171170000000  0.4466670000000 1.0
C      1  0.7606710000000  0.3830480000000  0.5530270000000 1.0
C      1  0.7014830000000  0.4977130000000  0.3441340000000 1.0
C      1  0.2987770000000  0.5021950000000  0.6559660000000 1.0
C      1  0.6890250000000  0.3826750000000  0.4932820000000 1.0
C      1  0.3109250000000  0.6174120000000  0.5065320000000 1.0
C      1  0.4455710000000  0.7154600000000  0.4152660000000 1.0
C      1  0.5544150000000  0.2845840000000  0.5845750000000 1.0
END
