TITL C-3036480-97-916 0.00259369787681329 3375 -346.530281695046 0 0 60 (Ci) n - 1
REM
REM in /home/bkarasulu/work/CARBON/AIRSS/Generating-Clusters/REBO/Higher-Symm/Only-C60
REM
REM
REM
REM
REM
REM ./C.cell (a2850807a9bf4ad07a5b6933b78d9264)
REM AIRSS Version 0.9.1 bugfix July 2018 build 013d7b7c2542+ Fri, 06 Jul 2018 19:26:36 +0100
REM compiler GCC version 9.2.1 20190827 (Red Hat 9.2.1-1)
REM options -cpp -mtune=generic -march=x86-64 -g -O0 -fpre-include=/usr/include/finclude/math-vector-fortran.h
REM seed -63440764 1802087230 -437447594 377795701 -1524370724 -342968406 1298069419 1715657487 943100113 2018349146 1901409780 -60211737 -2078353727 830743080 -264578956 1259838956 -665963090 -1876575737 1724643032 -1749112966 -1051550741 -1322187074 -1565604798 421958001 1618915783 -2026400783 798757391 1613320606 399438867 -996651017 -1361977905 1711764931 -224953569
REM
CELL 1.54180   15.00000   15.00000   15.00000   90.00000   90.00000   90.00000
LATT -1
SFAC C  
C      1  0.4496860000000  0.3756290000000  0.5076240000000 1.0
C      1  0.5502860000000  0.6244110000000  0.4922600000000 1.0
C      1  0.4985140000000  0.5403230000000  0.5354820000000 1.0
C      1  0.5014930000000  0.4596740000000  0.4643030000000 1.0
C      1  0.6912050000000  0.4755310000000  0.6686810000000 1.0
C      1  0.3086330000000  0.5245610000000  0.3315340000000 1.0
C      1  0.4574060000000  0.7102890000000  0.5336760000000 1.0
C      1  0.5425850000000  0.2897350000000  0.4662950000000 1.0
C      1  0.4013510000000  0.5351540000000  0.3199200000000 1.0
C      1  0.5984630000000  0.4648760000000  0.6803280000000 1.0
C      1  0.5850730000000  0.6420260000000  0.5994300000000 1.0
C      1  0.4149720000000  0.3580020000000  0.4004600000000 1.0
C      1  0.6303890000000  0.5583130000000  0.5366710000000 1.0
C      1  0.3696040000000  0.4417220000000  0.4631880000000 1.0
C      1  0.7025610000000  0.6977070000000  0.4286220000000 1.0
C      1  0.2974190000000  0.3022900000000  0.5713890000000 1.0
C      1  0.4368360000000  0.6257440000000  0.2933920000000 1.0
C      1  0.5632270000000  0.3740150000000  0.7066220000000 1.0
C      1  0.3740430000000  0.7594700000000  0.6660410000000 1.0
C      1  0.6260150000000  0.2405020000000  0.3339970000000 1.0
C      1  0.2113530000000  0.2906790000000  0.5969870000000 1.0
C      1  0.7886400000000  0.7093280000000  0.4030720000000 1.0
C      1  0.6500620000000  0.3928900000000  0.5309670000000 1.0
C      1  0.3498540000000  0.6071530000000  0.4691450000000 1.0
C      1  0.4666730000000  0.5026820000000  0.7147520000000 1.0
C      1  0.5335900000000  0.4973720000000  0.2852010000000 1.0
C      1  0.6358470000000  0.6593740000000  0.3706070000000 1.0
C      1  0.3641580000000  0.3405970000000  0.6293850000000 1.0
C      1  0.4602640000000  0.6825590000000  0.3683630000000 1.0
C      1  0.5396790000000  0.3173470000000  0.6316130000000 1.0
C      1  0.6217850000000  0.4819800000000  0.3831530000000 1.0
C      1  0.3783870000000  0.5179550000000  0.6168470000000 1.0
C      1  0.6393640000000  0.5658440000000  0.3541200000000 1.0
C      1  0.3607410000000  0.4341180000000  0.6458710000000 1.0
C      1  0.4731930000000  0.4833750000000  0.3703620000000 1.0
C      1  0.5268160000000  0.5166310000000  0.6293860000000 1.0
C      1  0.2754230000000  0.4575060000000  0.4123440000000 1.0
C      1  0.7244050000000  0.5425220000000  0.5878170000000 1.0
C      1  0.7234020000000  0.4284360000000  0.5810970000000 1.0
C      1  0.2764430000000  0.5715950000000  0.4191240000000 1.0
C      1  0.3263730000000  0.2963460000000  0.4807950000000 1.0
C      1  0.6735670000000  0.7036590000000  0.5192010000000 1.0
C      1  0.7172130000000  0.6499600000000  0.5788530000000 1.0
C      1  0.2826830000000  0.3500700000000  0.4211980000000 1.0
C      1  0.4144290000000  0.6774160000000  0.4544400000000 1.0
C      1  0.5854920000000  0.3226120000000  0.5455590000000 1.0
C      1  0.4281070000000  0.5974340000000  0.6678780000000 1.0
C      1  0.5719790000000  0.4025410000000  0.3320910000000 1.0
C      1  0.4891900000000  0.4209560000000  0.7559310000000 1.0
C      1  0.5111170000000  0.5792300000000  0.2441380000000 1.0
C      1  0.4708110000000  0.3585350000000  0.3248470000000 1.0
C      1  0.5292500000000  0.6414120000000  0.6750420000000 1.0
C      1  0.5523300000000  0.7032950000000  0.3687700000000 1.0
C      1  0.4476260000000  0.2966110000000  0.6312470000000 1.0
C      1  0.6071750000000  0.4719270000000  0.4848880000000 1.0
C      1  0.3928370000000  0.5280760000000  0.5150800000000 1.0
C      1  0.5660550000000  0.7299210000000  0.5298250000000 1.0
C      1  0.4339090000000  0.2701080000000  0.4701080000000 1.0
C      1  0.5807170000000  0.3069180000000  0.3797670000000 1.0
C      1  0.4193010000000  0.6930580000000  0.6202170000000 1.0
END
