TITL C-3036479-9801-45 2.20471554526918e-06 3375 -325.260400442134 0 0 60 (C5) n - 1
REM
REM in /home/bkarasulu/work/CARBON/AIRSS/Generating-Clusters/REBO/Higher-Symm/Only-C60
REM
REM
REM
REM
REM
REM ./C.cell (a2850807a9bf4ad07a5b6933b78d9264)
REM AIRSS Version 0.9.1 bugfix July 2018 build 013d7b7c2542+ Fri, 06 Jul 2018 19:26:36 +0100
REM compiler GCC version 9.2.1 20190827 (Red Hat 9.2.1-1)
REM options -cpp -mtune=generic -march=x86-64 -g -O0 -fpre-include=/usr/include/finclude/math-vector-fortran.h
REM seed -1051233713 -585906832 -2095151910 747459514 -536426807 -845939701 -2104111708 -841737997 -1667235396 -207460845 -1629193545 -1638979214 -1384764741 38158932 -1307568753 503746667 -840080694 -545388825 -1180137969 -164200010 -1130146409 1075207706 -1258652076 330858223 1880798152 -1447711339 257201728 -485281321 581883946 1615282486 401571311 299138642 -824872865
REM
CELL 1.54180   15.00000   15.00000   15.00000   90.00000   90.00000   90.00000
LATT -1
SFAC C  
C      1  0.4149430000000  0.4141680000000  0.6778310000000 1.0
C      1  0.4149400000000  0.3043510000000  0.4733220000000 1.0
C      1  0.4149380000000  0.4649150000000  0.3056830000000 1.0
C      1  0.4149410000000  0.6739660000000  0.4065850000000 1.0
C      1  0.4149440000000  0.6426030000000  0.6365850000000 1.0
C      1  0.3119420000000  0.3368530000000  0.4969430000000 1.0
C      1  0.3119410000000  0.4524950000000  0.3438940000000 1.0
C      1  0.3119430000000  0.6337890000000  0.4065820000000 1.0
C      1  0.3119450000000  0.6301920000000  0.5983730000000 1.0
C      1  0.3119450000000  0.4466760000000  0.6542200000000 1.0
C      1  0.4996720000000  0.6532510000000  0.3319730000000 1.0
C      1  0.4996760000000  0.7071600000000  0.5938270000000 1.0
C      1  0.4996760000000  0.4747810000000  0.7260150000000 1.0
C      1  0.4996730000000  0.2772540000000  0.5458580000000 1.0
C      1  0.4996700000000  0.3875540000000  0.3023270000000 1.0
C      1  0.4514180000000  0.5396620000000  0.6485270000000 1.0
C      1  0.4514160000000  0.3710000000000  0.5836190000000 1.0
C      1  0.4514130000000  0.3806110000000  0.4031530000000 1.0
C      1  0.4514140000000  0.5552140000000  0.3565280000000 1.0
C      1  0.4514160000000  0.6535130000000  0.5081770000000 1.0
C      1  0.6958660000000  0.4472790000000  0.6374670000000 1.0
C      1  0.6958630000000  0.3529670000000  0.4923360000000 1.0
C      1  0.6958620000000  0.4618480000000  0.3577930000000 1.0
C      1  0.6958640000000  0.6234520000000  0.4197710000000 1.0
C      1  0.6958660000000  0.6144490000000  0.5926190000000 1.0
C      1  0.5161580000000  0.7253530000000  0.4171320000000 1.0
C      1  0.5161610000000  0.6484500000000  0.6887170000000 1.0
C      1  0.5161600000000  0.3663940000000  0.6995010000000 1.0
C      1  0.5161560000000  0.2689770000000  0.4345810000000 1.0
C      1  0.5161550000000  0.4908260000000  0.2600680000000 1.0
C      1  0.3572640000000  0.3639050000000  0.3696890000000 1.0
C      1  0.3572650000000  0.5818800000000  0.3302990000000 1.0
C      1  0.3572680000000  0.6867000000000  0.5254320000000 1.0
C      1  0.3572690000000  0.5335080000000  0.6854220000000 1.0
C      1  0.3572670000000  0.3340100000000  0.5891680000000 1.0
C      1  0.5338830000000  0.5225050000000  0.5847120000000 1.0
C      1  0.5338820000000  0.4263880000000  0.5475810000000 1.0
C      1  0.5338810000000  0.4320000000000  0.4446940000000 1.0
C      1  0.5338810000000  0.5315860000000  0.4182380000000 1.0
C      1  0.5338830000000  0.5875200000000  0.5047740000000 1.0
C      1  0.5645070000000  0.7224150000000  0.5056680000000 1.0
C      1  0.5645090000000  0.5633380000000  0.7132810000000 1.0
C      1  0.5645070000000  0.3167300000000  0.6261450000000 1.0
C      1  0.5645030000000  0.3233940000000  0.3646800000000 1.0
C      1  0.5645030000000  0.5741210000000  0.2902210000000 1.0
C      1  0.2661430000000  0.4238890000000  0.5545100000000 1.0
C      1  0.2661420000000  0.4246420000000  0.4444590000000 1.0
C      1  0.2661420000000  0.5295390000000  0.4111690000000 1.0
C      1  0.2661440000000  0.5936160000000  0.5006440000000 1.0
C      1  0.2661440000000  0.5283200000000  0.5892340000000 1.0
C      1  0.7593150000000  0.5546020000000  0.3575980000000 1.0
C      1  0.7593180000000  0.6522990000000  0.5079250000000 1.0
C      1  0.7593180000000  0.5395240000000  0.6472980000000 1.0
C      1  0.7593180000000  0.3721260000000  0.5831010000000 1.0
C      1  0.7593140000000  0.3814420000000  0.4040590000000 1.0
C      1  0.6288920000000  0.5360650000000  0.6352540000000 1.0
C      1  0.6288920000000  0.3825090000000  0.5760950000000 1.0
C      1  0.6288890000000  0.3913200000000  0.4117730000000 1.0
C      1  0.6288890000000  0.5503220000000  0.3693750000000 1.0
C      1  0.6288920000000  0.6397800000000  0.5074940000000 1.0
END
