TITL C-3036479-9801-9 -9.43933054570297e-06 3375 -334.098726316426 0 0 60 (C1) n - 1
REM
REM in /home/bkarasulu/work/CARBON/AIRSS/Generating-Clusters/REBO/Higher-Symm/Only-C60
REM
REM
REM
REM
REM
REM ./C.cell (a2850807a9bf4ad07a5b6933b78d9264)
REM AIRSS Version 0.9.1 bugfix July 2018 build 013d7b7c2542+ Fri, 06 Jul 2018 19:26:36 +0100
REM compiler GCC version 9.2.1 20190827 (Red Hat 9.2.1-1)
REM options -cpp -mtune=generic -march=x86-64 -g -O0 -fpre-include=/usr/include/finclude/math-vector-fortran.h
REM seed 1210485264 -493741387 1153987100 502780417 1071174703 1845839994 -392095502 1181705179 -12423982 -1437283748 -75362783 2094045577 -853707392 678115485 -433929733 41110275 1853712977 1871724138 1535715024 719044978 -924705568 303561833 559207980 20437868 185254554 -995276334 706018500 -1201785015 -742776650 -721825217 1355289649 -74191662 1966553269
REM
CELL 1.54180   15.00000   15.00000   15.00000   90.00000   90.00000   90.00000
LATT -1
SFAC C  
C      1  0.3163200000000  0.4015760000000  0.4488690000000 1.0
C      1  0.3990290000000  0.4516910000000  0.3172440000000 1.0
C      1  0.4468580000000  0.3189920000000  0.3981200000000 1.0
C      1  0.6798610000000  0.6000760000000  0.4518470000000 1.0
C      1  0.3293710000000  0.6120740000000  0.5362860000000 1.0
C      1  0.6764770000000  0.4065360000000  0.5530570000000 1.0
C      1  0.5958580000000  0.5470250000000  0.3222150000000 1.0
C      1  0.3923550000000  0.5307880000000  0.6694900000000 1.0
C      1  0.6094250000000  0.4585580000000  0.6903750000000 1.0
C      1  0.5467340000000  0.6799300000000  0.4027800000000 1.0
C      1  0.4657990000000  0.6710850000000  0.6139020000000 1.0
C      1  0.5427610000000  0.3271480000000  0.6112820000000 1.0
C      1  0.3799050000000  0.3240850000000  0.4576620000000 1.0
C      1  0.4595730000000  0.3853770000000  0.3235390000000 1.0
C      1  0.3218970000000  0.4616950000000  0.3820560000000 1.0
C      1  0.6147990000000  0.6766810000000  0.4614500000000 1.0
C      1  0.6062100000000  0.3329190000000  0.5456840000000 1.0
C      1  0.4057070000000  0.6769510000000  0.5473080000000 1.0
C      1  0.5353670000000  0.6134190000000  0.3277080000000 1.0
C      1  0.5491550000000  0.3933350000000  0.6875990000000 1.0
C      1  0.4581620000000  0.5920190000000  0.6767000000000 1.0
C      1  0.6720610000000  0.5374870000000  0.3878320000000 1.0
C      1  0.6781090000000  0.4685590000000  0.6181480000000 1.0
C      1  0.3255330000000  0.5436950000000  0.5944660000000 1.0
C      1  0.7153430000000  0.5671540000000  0.6306450000000 1.0
C      1  0.5551140000000  0.6325420000000  0.7040210000000 1.0
C      1  0.6366380000000  0.7186710000000  0.5562290000000 1.0
C      1  0.3000630000000  0.4449380000000  0.6280220000000 1.0
C      1  0.7084640000000  0.4392860000000  0.3727900000000 1.0
C      1  0.2831090000000  0.5583360000000  0.3629170000000 1.0
C      1  0.4509110000000  0.3554810000000  0.7028620000000 1.0
C      1  0.5582640000000  0.3677200000000  0.2892330000000 1.0
C      1  0.4378700000000  0.6312420000000  0.2902840000000 1.0
C      1  0.3632440000000  0.2848790000000  0.5540410000000 1.0
C      1  0.6219830000000  0.2921000000000  0.4484640000000 1.0
C      1  0.3696080000000  0.7038080000000  0.4493080000000 1.0
C      1  0.5599090000000  0.7145070000000  0.6351270000000 1.0
C      1  0.6393210000000  0.5601530000000  0.7060620000000 1.0
C      1  0.7085960000000  0.6397100000000  0.5476730000000 1.0
C      1  0.4469510000000  0.2822020000000  0.6254110000000 1.0
C      1  0.4467980000000  0.7029300000000  0.3694740000000 1.0
C      1  0.5467010000000  0.2954090000000  0.3675050000000 1.0
C      1  0.3719160000000  0.4328130000000  0.7060280000000 1.0
C      1  0.3629590000000  0.5500310000000  0.2920100000000 1.0
C      1  0.6327630000000  0.4487150000000  0.2974570000000 1.0
C      1  0.2940750000000  0.3671700000000  0.5491230000000 1.0
C      1  0.2876270000000  0.6350800000000  0.4416860000000 1.0
C      1  0.6976010000000  0.3668490000000  0.4556910000000 1.0
C      1  0.1917590000000  0.6221450000000  0.3827760000000 1.0
C      1  0.3774200000000  0.6102600000000  0.1970090000000 1.0
C      1  0.3868070000000  0.3656860000000  0.7958580000000 1.0
C      1  0.3877700000000  0.7978370000000  0.3886030000000 1.0
C      1  0.6031220000000  0.1989900000000  0.3870120000000 1.0
C      1  0.7957050000000  0.3724120000000  0.3990140000000 1.0
C      1  0.2027920000000  0.3886580000000  0.6128400000000 1.0
C      1  0.8065040000000  0.6284880000000  0.6038000000000 1.0
C      1  0.6238720000000  0.3911060000000  0.2001640000000 1.0
C      1  0.3865310000000  0.1880180000000  0.6077590000000 1.0
C      1  0.6173670000000  0.8107850000000  0.6191330000000 1.0
C      1  0.6171950000000  0.6221880000000  0.7983490000000 1.0
END
