TITL C-3036479-9801-243 0.000862800054485568 3375 -348.552172358832 0 0 60 (C3) n - 1
REM
REM in /home/bkarasulu/work/CARBON/AIRSS/Generating-Clusters/REBO/Higher-Symm/Only-C60
REM
REM
REM
REM
REM
REM ./C.cell (a2850807a9bf4ad07a5b6933b78d9264)
REM AIRSS Version 0.9.1 bugfix July 2018 build 013d7b7c2542+ Fri, 06 Jul 2018 19:26:36 +0100
REM compiler GCC version 9.2.1 20190827 (Red Hat 9.2.1-1)
REM options -cpp -mtune=generic -march=x86-64 -g -O0 -fpre-include=/usr/include/finclude/math-vector-fortran.h
REM seed 535688538 -2126805870 1296264556 1639508733 -919267882 -991495029 -1749837338 -1402608229 1874723299 -1963353094 -604493734 -2005207439 -479948976 1779595097 -2135442551 -172841472 -819963709 -871717323 761743123 -1646479146 2012783080 780375477 -967967536 205814010 -1795978463 -767568734 576770877 -1598830652 -756737421 -1456448443 -1175347662 1794347029 1316183971
REM
CELL 1.54180   15.00000   15.00000   15.00000   90.00000   90.00000   90.00000
LATT -1
SFAC C  
C      1  0.5975750000000  0.5495770000000  0.7008760000000 1.0
C      1  0.5975740000000  0.3012460000000  0.4424930000000 1.0
C      1  0.5975820000000  0.6491750000000  0.3566240000000 1.0
C      1  0.6719050000000  0.4895350000000  0.6932870000000 1.0
C      1  0.6719020000000  0.3378420000000  0.3942940000000 1.0
C      1  0.6719040000000  0.6726300000000  0.4124250000000 1.0
C      1  0.4594530000000  0.6893680000000  0.6513730000000 1.0
C      1  0.4594490000000  0.2742210000000  0.5883120000000 1.0
C      1  0.4594500000000  0.5364100000000  0.2603340000000 1.0
C      1  0.5172800000000  0.3030220000000  0.3930150000000 1.0
C      1  0.5172840000000  0.6911370000000  0.3828880000000 1.0
C      1  0.5172790000000  0.5058450000000  0.7240860000000 1.0
C      1  0.2917920000000  0.6419800000000  0.3659080000000 1.0
C      1  0.2917950000000  0.5451360000000  0.6899920000000 1.0
C      1  0.2917970000000  0.3128990000000  0.4440950000000 1.0
C      1  0.3276680000000  0.3673240000000  0.6331240000000 1.0
C      1  0.3276730000000  0.4510310000000  0.3185470000000 1.0
C      1  0.3276770000000  0.6816190000000  0.5483400000000 1.0
C      1  0.3589720000000  0.5863220000000  0.7371290000000 1.0
C      1  0.3589700000000  0.2514830000000  0.4561920000000 1.0
C      1  0.3589660000000  0.6622100000000  0.3066680000000 1.0
C      1  0.7398380000000  0.2885540000000  0.3608190000000 1.0
C      1  0.7398350000000  0.7262590000000  0.3864730000000 1.0
C      1  0.7398370000000  0.4851870000000  0.7527090000000 1.0
C      1  0.4300510000000  0.6964250000000  0.5518970000000 1.0
C      1  0.4300540000000  0.3568540000000  0.6441570000000 1.0
C      1  0.4300650000000  0.4467200000000  0.3039520000000 1.0
C      1  0.4332330000000  0.2925100000000  0.4977220000000 1.0
C      1  0.4332290000000  0.6057220000000  0.3214520000000 1.0
C      1  0.4332360000000  0.6017710000000  0.6808350000000 1.0
C      1  0.4401210000000  0.5302640000000  0.5956670000000 1.0
C      1  0.4401230000000  0.4020200000000  0.4783840000000 1.0
C      1  0.4401460000000  0.5677340000000  0.4259600000000 1.0
C      1  0.3023810000000  0.4755500000000  0.4046640000000 1.0
C      1  0.3023760000000  0.5947730000000  0.5264800000000 1.0
C      1  0.3023590000000  0.4296610000000  0.5688410000000 1.0
C      1  0.3266930000000  0.4069720000000  0.4732430000000 1.0
C      1  0.3266770000000  0.5696950000000  0.4328100000000 1.0
C      1  0.3266840000000  0.5233370000000  0.5939440000000 1.0
C      1  0.7402620000000  0.4735950000000  0.4438510000000 1.0
C      1  0.7402750000000  0.5618310000000  0.5052040000000 1.0
C      1  0.7402710000000  0.4645780000000  0.5509430000000 1.0
C      1  0.5999620000000  0.5591880000000  0.3193990000000 1.0
C      1  0.5999530000000  0.6268140000000  0.6415620000000 1.0
C      1  0.5999540000000  0.3139930000000  0.5390420000000 1.0
C      1  0.4821950000000  0.4661650000000  0.4030860000000 1.0
C      1  0.4821900000000  0.6008620000000  0.5191380000000 1.0
C      1  0.4821970000000  0.4330060000000  0.5776980000000 1.0
C      1  0.6695110000000  0.6240520000000  0.4944800000000 1.0
C      1  0.6695160000000  0.4427500000000  0.6101980000000 1.0
C      1  0.6695130000000  0.4331880000000  0.3953180000000 1.0
C      1  0.4714650000000  0.3526220000000  0.3342810000000 1.0
C      1  0.4714810000000  0.7171690000000  0.4552450000000 1.0
C      1  0.4714730000000  0.4301740000000  0.7105270000000 1.0
C      1  0.5888590000000  0.4051780000000  0.5741380000000 1.0
C      1  0.5888660000000  0.4832100000000  0.3808200000000 1.0
C      1  0.5888570000000  0.6116120000000  0.5450540000000 1.0
C      1  0.5507710000000  0.2517310000000  0.5915920000000 1.0
C      1  0.5507710000000  0.5448090000000  0.2392100000000 1.0
C      1  0.5507730000000  0.7034550000000  0.6692050000000 1.0
END
