TITL C-3036482-790-351 -2.52289097988626e-06 3375 -368.856391421623 0 0 60 (C1) n - 1
REM
REM in /home/bkarasulu/work/CARBON/AIRSS/Generating-Clusters/REBO/Higher-Symm/Only-C60
REM
REM
REM
REM
REM
REM ./C.cell (a2850807a9bf4ad07a5b6933b78d9264)
REM AIRSS Version 0.9.1 bugfix July 2018 build 013d7b7c2542+ Fri, 06 Jul 2018 19:26:36 +0100
REM compiler GCC version 9.2.1 20190827 (Red Hat 9.2.1-1)
REM options -cpp -mtune=generic -march=x86-64 -g -O0 -fpre-include=/usr/include/finclude/math-vector-fortran.h
REM seed -2084285541 283389125 466050076 246805431 1597453038 1329187019 -635053420 1844566529 934619121 -63865874 200737551 -2066163758 1586233300 1259074188 715370245 -1623939477 330752428 -512375396 -1826152851 -1204981553 -168290158 2121133232 1903846832 2029968829 2020737723 -970479572 -985633594 -151776361 791288995 -938527831 -21075422 1021065406 442714804
REM
CELL 1.54180   15.00000   15.00000   15.00000   90.00000   90.00000   90.00000
LATT -1
SFAC C  
C      1  0.6293440000000  0.4283030000000  0.3436530000000 1.0
C      1  0.6274250000000  0.3306580000000  0.5203900000000 1.0
C      1  0.6305650000000  0.4675820000000  0.6712280000000 1.0
C      1  0.6345670000000  0.6561050000000  0.5854050000000 1.0
C      1  0.6336050000000  0.6292670000000  0.3797110000000 1.0
C      1  0.3650980000000  0.4243720000000  0.3405330000000 1.0
C      1  0.3631600000000  0.3233880000000  0.5221370000000 1.0
C      1  0.3666950000000  0.4660150000000  0.6709700000000 1.0
C      1  0.3707240000000  0.6487600000000  0.5835610000000 1.0
C      1  0.3700890000000  0.6255470000000  0.3826210000000 1.0
C      1  0.4154560000000  0.3414190000000  0.3414340000000 1.0
C      1  0.4156970000000  0.3001050000000  0.6001320000000 1.0
C      1  0.4201070000000  0.5323770000000  0.7167730000000 1.0
C      1  0.4221780000000  0.7146170000000  0.5346280000000 1.0
C      1  0.4190680000000  0.5996420000000  0.3031440000000 1.0
C      1  0.5765730000000  0.3471400000000  0.3450810000000 1.0
C      1  0.5769940000000  0.3054470000000  0.5992310000000 1.0
C      1  0.5813060000000  0.5353200000000  0.7201750000000 1.0
C      1  0.5832780000000  0.7216870000000  0.5358140000000 1.0
C      1  0.5803930000000  0.6021890000000  0.3035790000000 1.0
C      1  0.3097440000000  0.4851230000000  0.5880830000000 1.0
C      1  0.3114470000000  0.5780050000000  0.5403890000000 1.0
C      1  0.3117250000000  0.5618630000000  0.4372780000000 1.0
C      1  0.3095960000000  0.4581720000000  0.4203140000000 1.0
C      1  0.3082250000000  0.4103010000000  0.5140560000000 1.0
C      1  0.6874900000000  0.4872960000000  0.5880450000000 1.0
C      1  0.6892740000000  0.5812600000000  0.5404600000000 1.0
C      1  0.6897130000000  0.5645970000000  0.4366130000000 1.0
C      1  0.6877290000000  0.4608820000000  0.4207430000000 1.0
C      1  0.6864710000000  0.4135760000000  0.5136990000000 1.0
C      1  0.5636320000000  0.4341830000000  0.4675630000000 1.0
C      1  0.5626790000000  0.4526300000000  0.5585350000000 1.0
C      1  0.5650460000000  0.5445480000000  0.5699660000000 1.0
C      1  0.5678090000000  0.5843860000000  0.4855660000000 1.0
C      1  0.5667390000000  0.5155890000000  0.4214490000000 1.0
C      1  0.4315070000000  0.4217640000000  0.4658220000000 1.0
C      1  0.4306580000000  0.4391960000000  0.5579940000000 1.0
C      1  0.4328850000000  0.5325050000000  0.5688970000000 1.0
C      1  0.4357590000000  0.5710540000000  0.4839930000000 1.0
C      1  0.4346180000000  0.5031200000000  0.4210620000000 1.0
C      1  0.5483600000000  0.3294890000000  0.4425030000000 1.0
C      1  0.5500280000000  0.3925990000000  0.6480400000000 1.0
C      1  0.5579820000000  0.6128800000000  0.6547040000000 1.0
C      1  0.5604210000000  0.6841350000000  0.4416540000000 1.0
C      1  0.5544280000000  0.5029270000000  0.3138520000000 1.0
C      1  0.4380730000000  0.3160830000000  0.4399270000000 1.0
C      1  0.4396570000000  0.3858120000000  0.6530700000000 1.0
C      1  0.4477560000000  0.6046480000000  0.6489270000000 1.0
C      1  0.4502340000000  0.6714920000000  0.4452680000000 1.0
C      1  0.4440760000000  0.4992980000000  0.3126090000000 1.0
C      1  0.4991480000000  0.6511350000000  0.2794160000000 1.0
C      1  0.4981360000000  0.2482860000000  0.5889750000000 1.0
C      1  0.5005590000000  0.7562470000000  0.5756520000000 1.0
C      1  0.4998880000000  0.5074360000000  0.7674570000000 1.0
C      1  0.4978000000000  0.3370560000000  0.2881560000000 1.0
C      1  0.4978310000000  0.7366930000000  0.2503540000000 1.0
C      1  0.4993470000000  0.4555190000000  0.8414190000000 1.0
C      1  0.4998140000000  0.3359050000000  0.1978160000000 1.0
C      1  0.4977080000000  0.8100750000000  0.6481860000000 1.0
C      1  0.5008260000000  0.1623010000000  0.5612840000000 1.0
END
