TITL C-3036480-97-137 -7.96738174750121e-06 3375 -342.591156060558 0 0 60 (C1) n - 1
REM
REM in /home/bkarasulu/work/CARBON/AIRSS/Generating-Clusters/REBO/Higher-Symm/Only-C60
REM
REM
REM
REM
REM
REM ./C.cell (a2850807a9bf4ad07a5b6933b78d9264)
REM AIRSS Version 0.9.1 bugfix July 2018 build 013d7b7c2542+ Fri, 06 Jul 2018 19:26:36 +0100
REM compiler GCC version 9.2.1 20190827 (Red Hat 9.2.1-1)
REM options -cpp -mtune=generic -march=x86-64 -g -O0 -fpre-include=/usr/include/finclude/math-vector-fortran.h
REM seed 749256265 -1988165508 1964910295 -1812102769 1247238692 399477637 -1692634010 230858630 101552885 1849173355 -1350420428 -2013658775 408812720 1088719874 -341495219 1545837030 392014776 -7434570 509506538 -1070959846 657388762 -1496594965 170931597 74567148 -1431498680 -1018143777 -549166145 -2092121728 -128859369 -1233240147 1055017535 1960159182 -840650445
REM
CELL 1.54180   15.00000   15.00000   15.00000   90.00000   90.00000   90.00000
LATT -1
SFAC C  
C      1  0.3469940000000  0.3598870000000  0.5879830000000 1.0
C      1  0.4817800000000  0.4032970000000  0.4471600000000 1.0
C      1  0.4390640000000  0.7510720000000  0.6302320000000 1.0
C      1  0.3326970000000  0.6438000000000  0.5211430000000 1.0
C      1  0.6426990000000  0.6117770000000  0.6495890000000 1.0
C      1  0.6038080000000  0.4051310000000  0.6206500000000 1.0
C      1  0.6065330000000  0.2326450000000  0.4216430000000 1.0
C      1  0.3932410000000  0.6609640000000  0.6129440000000 1.0
C      1  0.3780380000000  0.4657370000000  0.3283700000000 1.0
C      1  0.5295410000000  0.5936160000000  0.4677660000000 1.0
C      1  0.6576790000000  0.6191170000000  0.3825310000000 1.0
C      1  0.4819050000000  0.4891260000000  0.2021040000000 1.0
C      1  0.5760130000000  0.7238040000000  0.3709630000000 1.0
C      1  0.6873340000000  0.3464750000000  0.5351390000000 1.0
C      1  0.4653420000000  0.3080560000000  0.4215870000000 1.0
C      1  0.2442310000000  0.5101760000000  0.5113570000000 1.0
C      1  0.4927820000000  0.3449580000000  0.2967970000000 1.0
C      1  0.4538550000000  0.5968440000000  0.5474490000000 1.0
C      1  0.2926160000000  0.4153870000000  0.5136480000000 1.0
C      1  0.6241800000000  0.4810780000000  0.3057820000000 1.0
C      1  0.5453560000000  0.4283740000000  0.2615550000000 1.0
C      1  0.5615320000000  0.4196520000000  0.5177830000000 1.0
C      1  0.5611240000000  0.3875570000000  0.6996240000000 1.0
C      1  0.5152680000000  0.3188650000000  0.5446360000000 1.0
C      1  0.3827520000000  0.5039230000000  0.4152720000000 1.0
C      1  0.2647200000000  0.5920800000000  0.4553990000000 1.0
C      1  0.5364460000000  0.2714470000000  0.3514920000000 1.0
C      1  0.6737750000000  0.5591290000000  0.5710220000000 1.0
C      1  0.3797600000000  0.6047580000000  0.6996920000000 1.0
C      1  0.3971340000000  0.5884560000000  0.4550050000000 1.0
C      1  0.5969560000000  0.5216450000000  0.4970430000000 1.0
C      1  0.6002010000000  0.5696960000000  0.7212510000000 1.0
C      1  0.7092950000000  0.7026970000000  0.4288350000000 1.0
C      1  0.4030680000000  0.3729140000000  0.3179250000000 1.0
C      1  0.5308540000000  0.7642840000000  0.6200300000000 1.0
C      1  0.4072140000000  0.5244890000000  0.2496100000000 1.0
C      1  0.4288800000000  0.5320590000000  0.7369260000000 1.0
C      1  0.5698680000000  0.6877770000000  0.4556890000000 1.0
C      1  0.2990380000000  0.5160490000000  0.6006260000000 1.0
C      1  0.6006180000000  0.3904310000000  0.7810370000000 1.0
C      1  0.3921890000000  0.5981420000000  0.3223030000000 1.0
C      1  0.3966710000000  0.4360340000000  0.4906410000000 1.0
C      1  0.3253290000000  0.4344950000000  0.6538880000000 1.0
C      1  0.5883160000000  0.7357600000000  0.5328080000000 1.0
C      1  0.3022540000000  0.6013110000000  0.3630730000000 1.0
C      1  0.5202420000000  0.5458160000000  0.7552440000000 1.0
C      1  0.3978110000000  0.5076670000000  0.5692460000000 1.0
C      1  0.6193660000000  0.2963830000000  0.5044910000000 1.0
C      1  0.5063340000000  0.4595980000000  0.3633150000000 1.0
C      1  0.6811540000000  0.4362870000000  0.3658240000000 1.0
C      1  0.6870400000000  0.4523960000000  0.5658320000000 1.0
C      1  0.4665580000000  0.3756530000000  0.6900250000000 1.0
C      1  0.4386010000000  0.3322660000000  0.6077220000000 1.0
C      1  0.6740820000000  0.4504860000000  0.4534580000000 1.0
C      1  0.6933800000000  0.6128440000000  0.4850110000000 1.0
C      1  0.5097850000000  0.2298140000000  0.4750830000000 1.0
C      1  0.4922370000000  0.5672700000000  0.3661870000000 1.0
C      1  0.6166430000000  0.6990320000000  0.6294910000000 1.0
C      1  0.5967630000000  0.5660520000000  0.3366930000000 1.0
C      1  0.4010550000000  0.4434620000000  0.7143760000000 1.0
END
