TITL C-3036484-3770-1140 2.8630981800307e-05 3375 -351.258517235763 0 0 60 (T23) n - 1
REM
REM in /home/bkarasulu/work/CARBON/AIRSS/Generating-Clusters/REBO/Higher-Symm/Only-C60
REM
REM
REM
REM
REM
REM ./C.cell (a2850807a9bf4ad07a5b6933b78d9264)
REM AIRSS Version 0.9.1 bugfix July 2018 build 013d7b7c2542+ Fri, 06 Jul 2018 19:26:36 +0100
REM compiler GCC version 9.2.1 20190827 (Red Hat 9.2.1-1)
REM options -cpp -mtune=generic -march=x86-64 -g -O0 -fpre-include=/usr/include/finclude/math-vector-fortran.h
REM seed -1721406227 1030203342 -1793699747 -1070021596 1519421673 1253609129 1335734806 -1241049340 2102266859 -1823599371 1767741491 1629281868 -253315347 267514640 375008496 -417272425 -1528105675 619595229 897349400 1749028207 1818538571 734567720 764600486 1056618141 1194023547 1812874701 -1844237248 1790783469 -756131069 1076185190 -666873206 289713706 -133372018
REM
CELL 1.54180   15.00000   15.00000   15.00000   90.00000   90.00000   90.00000
LATT -1
SFAC C  
C      1  0.4066140000000  0.2534490000000  0.4671410000000 1.0
C      1  0.2534490000000  0.4671410000000  0.4066140000000 1.0
C      1  0.4671410000000  0.4066140000000  0.2534490000000 1.0
C      1  0.5933860000000  0.2534490000000  0.5328590000000 1.0
C      1  0.5933860000000  0.7465510000000  0.4671410000000 1.0
C      1  0.4066140000000  0.7465510000000  0.5328590000000 1.0
C      1  0.7465510000000  0.4671410000000  0.5933860000000 1.0
C      1  0.7465510000000  0.5328590000000  0.4066140000000 1.0
C      1  0.2534490000000  0.5328590000000  0.5933860000000 1.0
C      1  0.5328590000000  0.4066140000000  0.7465510000000 1.0
C      1  0.5328590000000  0.5933860000000  0.2534490000000 1.0
C      1  0.4671410000000  0.5933860000000  0.7465510000000 1.0
C      1  0.5910700000000  0.3197220000000  0.6133480000000 1.0
C      1  0.3197220000000  0.6133480000000  0.5910700000000 1.0
C      1  0.6133480000000  0.5910700000000  0.3197220000000 1.0
C      1  0.4089300000000  0.3197220000000  0.3866520000000 1.0
C      1  0.4089300000000  0.6802780000000  0.6133480000000 1.0
C      1  0.5910700000000  0.6802780000000  0.3866520000000 1.0
C      1  0.6802780000000  0.6133480000000  0.4089300000000 1.0
C      1  0.6802780000000  0.3866520000000  0.5910700000000 1.0
C      1  0.3197220000000  0.3866520000000  0.4089300000000 1.0
C      1  0.3866520000000  0.5910700000000  0.6802780000000 1.0
C      1  0.3866520000000  0.4089300000000  0.3197220000000 1.0
C      1  0.6133480000000  0.4089300000000  0.6802780000000 1.0
C      1  0.3338220000000  0.2848650000000  0.5373740000000 1.0
C      1  0.2848650000000  0.5373740000000  0.3338220000000 1.0
C      1  0.5373740000000  0.3338220000000  0.2848650000000 1.0
C      1  0.6661780000000  0.2848650000000  0.4626260000000 1.0
C      1  0.6661780000000  0.7151350000000  0.5373740000000 1.0
C      1  0.3338220000000  0.7151350000000  0.4626260000000 1.0
C      1  0.7151350000000  0.5373740000000  0.6661780000000 1.0
C      1  0.7151350000000  0.4626260000000  0.3338220000000 1.0
C      1  0.2848650000000  0.4626260000000  0.6661780000000 1.0
C      1  0.4626260000000  0.3338220000000  0.7151350000000 1.0
C      1  0.4626260000000  0.6661780000000  0.2848650000000 1.0
C      1  0.5373740000000  0.6661780000000  0.7151350000000 1.0
C      1  0.7346060000000  0.5706750000000  0.5650310000000 1.0
C      1  0.5706750000000  0.5650310000000  0.7346060000000 1.0
C      1  0.5650310000000  0.7346060000000  0.5706750000000 1.0
C      1  0.2653940000000  0.5706750000000  0.4349690000000 1.0
C      1  0.2653940000000  0.4293250000000  0.5650310000000 1.0
C      1  0.7346060000000  0.4293250000000  0.4349690000000 1.0
C      1  0.4293250000000  0.5650310000000  0.2653940000000 1.0
C      1  0.4293250000000  0.4349690000000  0.7346060000000 1.0
C      1  0.5706750000000  0.4349690000000  0.2653940000000 1.0
C      1  0.4349690000000  0.7346060000000  0.4293250000000 1.0
C      1  0.4349690000000  0.2653940000000  0.5706750000000 1.0
C      1  0.5650310000000  0.2653940000000  0.4293250000000 1.0
C      1  0.2907330000000  0.3632870000000  0.5072880000000 1.0
C      1  0.3632870000000  0.5072880000000  0.2907330000000 1.0
C      1  0.5072880000000  0.2907330000000  0.3632870000000 1.0
C      1  0.7092670000000  0.3632870000000  0.4927120000000 1.0
C      1  0.7092670000000  0.6367130000000  0.5072880000000 1.0
C      1  0.2907330000000  0.6367130000000  0.4927120000000 1.0
C      1  0.6367130000000  0.5072880000000  0.7092670000000 1.0
C      1  0.6367130000000  0.4927120000000  0.2907330000000 1.0
C      1  0.3632870000000  0.4927120000000  0.7092670000000 1.0
C      1  0.4927120000000  0.2907330000000  0.6367130000000 1.0
C      1  0.4927120000000  0.7092670000000  0.3632870000000 1.0
C      1  0.5072880000000  0.7092670000000  0.6367130000000 1.0
END
