TITL C-3036485-3770-456 -5.90811332611015e-06 3375 -361.18950120605 0 0 60 (C5) n - 1
REM
REM in /home/bkarasulu/work/CARBON/AIRSS/Generating-Clusters/REBO/Higher-Symm/Only-C60
REM
REM
REM
REM
REM
REM ./C.cell (a2850807a9bf4ad07a5b6933b78d9264)
REM AIRSS Version 0.9.1 bugfix July 2018 build 013d7b7c2542+ Fri, 06 Jul 2018 19:26:36 +0100
REM compiler GCC version 9.2.1 20190827 (Red Hat 9.2.1-1)
REM options -cpp -mtune=generic -march=x86-64 -g -O0 -fpre-include=/usr/include/finclude/math-vector-fortran.h
REM seed 1871446902 -1482277265 728194564 1919951701 1634215208 -1620136867 -558907502 1588912346 975303430 -848782908 -1780519805 2139360542 -1296569437 1684686642 1724212966 -1829318954 1723138120 -115344633 1760554195 -1779494175 -33602543 231852780 63326288 1671862530 638333644 -1690896928 -1154185517 -2141665512 -1977817007 2030270441 -1131565540 -1218751486 -327939158
REM
CELL 1.54180   15.00000   15.00000   15.00000   90.00000   90.00000   90.00000
LATT -1
SFAC C  
C      1  0.6335250000000  0.5750960000000  0.3783880000000 1.0
C      1  0.6569230000000  0.5750950000000  0.5894070000000 1.0
C      1  0.4634620000000  0.5751010000000  0.6768690000000 1.0
C      1  0.3204980000000  0.5751050000000  0.5199040000000 1.0
C      1  0.4256030000000  0.5751020000000  0.3354320000000 1.0
C      1  0.7358240000000  0.5948650000000  0.5135260000000 1.0
C      1  0.5600110000000  0.5948690000000  0.7284600000000 1.0
C      1  0.3012680000000  0.5948760000000  0.6276700000000 1.0
C      1  0.3171690000000  0.5948760000000  0.3504440000000 1.0
C      1  0.5857400000000  0.5948690000000  0.2799000000000 1.0
C      1  0.6295270000000  0.5198860000000  0.7609560000000 1.0
C      1  0.2918420000000  0.5198960000000  0.7038270000000 1.0
C      1  0.2418250000000  0.5198970000000  0.3650160000000 1.0
C      1  0.5485980000000  0.5198890000000  0.2127480000000 1.0
C      1  0.7882100000000  0.5198820000000  0.4574530000000 1.0
C      1  0.2817580000000  0.4070850000000  0.5696150000000 1.0
C      1  0.3663500000000  0.4070830000000  0.3139540000000 1.0
C      1  0.6356390000000  0.4070760000000  0.3154020000000 1.0
C      1  0.7174760000000  0.4070730000000  0.5719590000000 1.0
C      1  0.4987650000000  0.4070790000000  0.7290710000000 1.0
C      1  0.3461200000000  0.6386240000000  0.4420280000000 1.0
C      1  0.5075860000000  0.6386190000000  0.3357330000000 1.0
C      1  0.6585740000000  0.6386150000000  0.4564500000000 1.0
C      1  0.5904230000000  0.6386170000000  0.6373510000000 1.0
C      1  0.3973160000000  0.6386220000000  0.6284380000000 1.0
C      1  0.5328090000000  0.3515150000000  0.5742920000000 1.0
C      1  0.4394800000000  0.3515170000000  0.5541650000000 1.0
C      1  0.4297820000000  0.3515180000000  0.4591840000000 1.0
C      1  0.5171170000000  0.3515150000000  0.4206090000000 1.0
C      1  0.5807920000000  0.3515130000000  0.4917500000000 1.0
C      1  0.4202090000000  0.5483580000000  0.5061480000000 1.0
C      1  0.4694970000000  0.5483570000000  0.4260130000000 1.0
C      1  0.5609410000000  0.5483550000000  0.4481260000000 1.0
C      1  0.5681680000000  0.5483540000000  0.5419270000000 1.0
C      1  0.4811910000000  0.5483570000000  0.5777870000000 1.0
C      1  0.3144440000000  0.4407600000000  0.6942490000000 1.0
C      1  0.2579180000000  0.4407620000000  0.3835530000000 1.0
C      1  0.5359390000000  0.4407540000000  0.2337830000000 1.0
C      1  0.7642920000000  0.4407480000000  0.4519160000000 1.0
C      1  0.6274000000000  0.4407510000000  0.7364990000000 1.0
C      1  0.5820180000000  0.6890930000000  0.4813010000000 1.0
C      1  0.5431320000000  0.6890940000000  0.5722200000000 1.0
C      1  0.4446470000000  0.6890970000000  0.5633340000000 1.0
C      1  0.4226640000000  0.6890980000000  0.4669220000000 1.0
C      1  0.5075640000000  0.6890950000000  0.4162230000000 1.0
C      1  0.3562830000000  0.4994130000000  0.3004010000000 1.0
C      1  0.6454190000000  0.4994060000000  0.3016370000000 1.0
C      1  0.7335910000000  0.4994030000000  0.5770050000000 1.0
C      1  0.4989480000000  0.4994090000000  0.7459540000000 1.0
C      1  0.2657590000000  0.4994160000000  0.5750040000000 1.0
C      1  0.3671810000000  0.3705950000000  0.6229600000000 1.0
C      1  0.3420120000000  0.3705960000000  0.4116820000000 1.0
C      1  0.5351730000000  0.3705910000000  0.3224560000000 1.0
C      1  0.6797210000000  0.3705870000000  0.4785900000000 1.0
C      1  0.5758960000000  0.3705890000000  0.6643120000000 1.0
C      1  0.2663140000000  0.3647230000000  0.4897530000000 1.0
C      1  0.4375300000000  0.3647190000000  0.2745880000000 1.0
C      1  0.6950730000000  0.3647120000000  0.3709350000000 1.0
C      1  0.6830260000000  0.3647120000000  0.6456460000000 1.0
C      1  0.4180390000000  0.3647190000000  0.7190790000000 1.0
END
