TITL C-3036482-790-983 0.13432237498034 3375 -338.56728513719 0 0 60 (C1) n - 1
REM
REM in /home/bkarasulu/work/CARBON/AIRSS/Generating-Clusters/REBO/Higher-Symm/Only-C60
REM
REM
REM
REM
REM
REM ./C.cell (a2850807a9bf4ad07a5b6933b78d9264)
REM AIRSS Version 0.9.1 bugfix July 2018 build 013d7b7c2542+ Fri, 06 Jul 2018 19:26:36 +0100
REM compiler GCC version 9.2.1 20190827 (Red Hat 9.2.1-1)
REM options -cpp -mtune=generic -march=x86-64 -g -O0 -fpre-include=/usr/include/finclude/math-vector-fortran.h
REM seed 1900687794 323397503 -1877421036 304384855 554948568 280539048 1743943105 551220706 741529309 -2121010011 165304468 -1345681292 540910132 -776264437 1985250766 -1653943625 -508512689 965792323 -2127297608 1351429144 822792757 1242772913 1248881055 -567990027 186256212 790447789 1390236659 -2035311617 -1617347044 -1984308427 -548499538 -903815367 -1325653436
REM
CELL 1.54180   15.00000   15.00000   15.00000   90.00000   90.00000   90.00000
LATT -1
SFAC C  
C      1  0.3923320000000  0.4519610000000  0.4106270000000 1.0
C      1  0.5619690000000  0.3975710000000  0.4237370000000 1.0
C      1  0.5295730000000  0.6402550000000  0.4113490000000 1.0
C      1  0.3014890000000  0.4585980000000  0.5967080000000 1.0
C      1  0.6653730000000  0.3160390000000  0.6017320000000 1.0
C      1  0.5494080000000  0.7307370000000  0.5964140000000 1.0
C      1  0.4179660000000  0.2931980000000  0.3354770000000 1.0
C      1  0.6502490000000  0.5262740000000  0.3405670000000 1.0
C      1  0.3917720000000  0.6437000000000  0.3175320000000 1.0
C      1  0.6315330000000  0.3001780000000  0.3514510000000 1.0
C      1  0.6147240000000  0.7259490000000  0.3569540000000 1.0
C      1  0.2814150000000  0.4792120000000  0.3424800000000 1.0
C      1  0.4488170000000  0.7347900000000  0.5537990000000 1.0
C      1  0.3330370000000  0.3747440000000  0.5687220000000 1.0
C      1  0.6877780000000  0.4196150000000  0.5681240000000 1.0
C      1  0.3777460000000  0.5286760000000  0.6217730000000 1.0
C      1  0.5600960000000  0.3390560000000  0.6343260000000 1.0
C      1  0.5628240000000  0.6315840000000  0.6498140000000 1.0
C      1  0.5760350000000  0.5812300000000  0.4797270000000 1.0
C      1  0.3947890000000  0.5509890000000  0.4628020000000 1.0
C      1  0.5154090000000  0.3170180000000  0.4654800000000 1.0
C      1  0.6467670000000  0.3869510000000  0.6892560000000 1.0
C      1  0.4771310000000  0.7004600000000  0.6784820000000 1.0
C      1  0.4783330000000  0.3906410000000  0.6302020000000 1.0
C      1  0.6122190000000  0.6517220000000  0.5493020000000 1.0
C      1  0.3122780000000  0.5465770000000  0.5303810000000 1.0
C      1  0.5787370000000  0.2756660000000  0.5420180000000 1.0
C      1  0.2614810000000  0.5210040000000  0.4421380000000 1.0
C      1  0.6316670000000  0.2547470000000  0.4511370000000 1.0
C      1  0.6348470000000  0.7166740000000  0.4659160000000 1.0
C      1  0.5495650000000  0.6578140000000  0.3125240000000 1.0
C      1  0.3683310000000  0.4426030000000  0.3060740000000 1.0
C      1  0.5851060000000  0.3820910000000  0.3185340000000 1.0
C      1  0.6202030000000  0.4617600000000  0.2813320000000 1.0
C      1  0.4670900000000  0.6581560000000  0.2649490000000 1.0
C      1  0.3955050000000  0.3582910000000  0.2734740000000 1.0
C      1  0.3475010000000  0.3675620000000  0.4693560000000 1.0
C      1  0.6605400000000  0.4269710000000  0.4724480000000 1.0
C      1  0.4577940000000  0.7157870000000  0.4556280000000 1.0
C      1  0.4255540000000  0.3055790000000  0.4301480000000 1.0
C      1  0.6437070000000  0.5216600000000  0.4320430000000 1.0
C      1  0.3973340000000  0.6383840000000  0.4091770000000 1.0
C      1  0.5482560000000  0.7701350000000  0.4297560000000 1.0
C      1  0.2635150000000  0.4151310000000  0.4255460000000 1.0
C      1  0.6948590000000  0.3377150000000  0.4277960000000 1.0
C      1  0.3894430000000  0.7195670000000  0.6326940000000 1.0
C      1  0.4018350000000  0.3428120000000  0.6223230000000 1.0
C      1  0.6867930000000  0.4726620000000  0.6532350000000 1.0
C      1  0.5588590000000  0.4645250000000  0.8317100000000 1.0
C      1  0.4848710000000  0.4876070000000  0.0807996000000 1.0
C      1  0.5436220000000  0.5387360000000  0.6743630000000 1.0
C      1  0.5104770000000  0.5312630000000  0.3385140000000 1.0
C      1  0.5031350000000  0.4631240000000  0.9979490000000 1.0
C      1  0.5659340000000  0.4979110000000  0.7499160000000 1.0
C      1  0.4983290000000  0.5294270000000  0.2510570000000 1.0
C      1  0.4917740000000  0.5270780000000  0.5168020000000 1.0
C      1  0.5326280000000  0.4524490000000  0.9153500000000 1.0
C      1  0.4964900000000  0.4744950000000  0.4235730000000 1.0
C      1  0.4768370000000  0.4937200000000  0.6133730000000 1.0
C      1  0.4846170000000  0.5132760000000  0.1652950000000 1.0
END
