TITL C-3036483-1610-960 -2.16294581109882e-06 3375 -341.236415543233 0 0 60 (Ci) n - 1
REM
REM in /home/bkarasulu/work/CARBON/AIRSS/Generating-Clusters/REBO/Higher-Symm/Only-C60
REM
REM
REM
REM
REM
REM ./C.cell (a2850807a9bf4ad07a5b6933b78d9264)
REM AIRSS Version 0.9.1 bugfix July 2018 build 013d7b7c2542+ Fri, 06 Jul 2018 19:26:36 +0100
REM compiler GCC version 9.2.1 20190827 (Red Hat 9.2.1-1)
REM options -cpp -mtune=generic -march=x86-64 -g -O0 -fpre-include=/usr/include/finclude/math-vector-fortran.h
REM seed 1447730632 -1071275622 1831266127 816888942 656066178 983864068 2052700891 -776685963 201275794 639657572 -1251427194 1503533809 -1159703196 -1659084959 1967501582 -1264999360 172345954 1280983710 1227269617 673162427 1688876044 -1413647702 1730589155 -550596323 200804920 -888689735 358198608 -1170902358 81307151 1041085247 313916536 -976714959 -244095652
REM
CELL 1.54180   15.00000   15.00000   15.00000   90.00000   90.00000   90.00000
LATT -1
SFAC C  
C      1  0.3757580000000  0.6564030000000  0.6493520000000 1.0
C      1  0.4606040000000  0.6739400000000  0.3087860000000 1.0
C      1  0.7147630000000  0.6940990000000  0.5587680000000 1.0
C      1  0.6274360000000  0.3469440000000  0.6454600000000 1.0
C      1  0.5392200000000  0.3196100000000  0.3027590000000 1.0
C      1  0.2871570000000  0.3310220000000  0.5388360000000 1.0
C      1  0.6242420000000  0.3435970000000  0.3506480000000 1.0
C      1  0.5393960000000  0.3260600000000  0.6912140000000 1.0
C      1  0.2852370000000  0.3059010000000  0.4412320000000 1.0
C      1  0.3725640000000  0.6530560000000  0.3545400000000 1.0
C      1  0.4607800000000  0.6803900000000  0.6972410000000 1.0
C      1  0.7128430000000  0.6689780000000  0.4611640000000 1.0
C      1  0.5042400000000  0.5871070000000  0.3994940000000 1.0
C      1  0.6002780000000  0.6262600000000  0.5551470000000 1.0
C      1  0.4393920000000  0.5780330000000  0.5636370000000 1.0
C      1  0.4812470000000  0.4053560000000  0.3863640000000 1.0
C      1  0.4090100000000  0.3835620000000  0.5396520000000 1.0
C      1  0.5824770000000  0.4202870000000  0.5442370000000 1.0
C      1  0.4957600000000  0.4128930000000  0.6005060000000 1.0
C      1  0.3997220000000  0.3737400000000  0.4448520000000 1.0
C      1  0.5606080000000  0.4219670000000  0.4363630000000 1.0
C      1  0.5187530000000  0.5946440000000  0.6136360000000 1.0
C      1  0.5909900000000  0.6164380000000  0.4603480000000 1.0
C      1  0.4175230000000  0.5797130000000  0.4557630000000 1.0
C      1  0.6291880000000  0.3301130000000  0.4528930000000 1.0
C      1  0.4533710000000  0.3126710000000  0.6425660000000 1.0
C      1  0.3700080000000  0.2732410000000  0.3981800000000 1.0
C      1  0.3627990000000  0.6826290000000  0.4502330000000 1.0
C      1  0.5448520000000  0.7020940000000  0.6487150000000 1.0
C      1  0.6344710000000  0.7048790000000  0.4035320000000 1.0
C      1  0.3708120000000  0.6698870000000  0.5471070000000 1.0
C      1  0.5466300000000  0.6873290000000  0.3574340000000 1.0
C      1  0.6299920000000  0.7267590000000  0.6018210000000 1.0
C      1  0.6372010000000  0.3173710000000  0.5497670000000 1.0
C      1  0.4551480000000  0.2979060000000  0.3512850000000 1.0
C      1  0.3655290000000  0.2951220000000  0.5964680000000 1.0
C      1  0.3680880000000  0.4417090000000  0.6284260000000 1.0
C      1  0.4427310000000  0.4574910000000  0.2937720000000 1.0
C      1  0.6802920000000  0.4788900000000  0.5525390000000 1.0
C      1  0.6457300000000  0.5685150000000  0.6425310000000 1.0
C      1  0.5476330000000  0.5359300000000  0.3073330000000 1.0
C      1  0.3319220000000  0.5431010000000  0.5522640000000 1.0
C      1  0.6319120000000  0.5582910000000  0.3715740000000 1.0
C      1  0.5572680000000  0.5425090000000  0.7062280000000 1.0
C      1  0.3197080000000  0.5211100000000  0.4474610000000 1.0
C      1  0.3542700000000  0.4314850000000  0.3574690000000 1.0
C      1  0.4523670000000  0.4640700000000  0.6926670000000 1.0
C      1  0.6680780000000  0.4568990000000  0.4477360000000 1.0
C      1  0.3550790000000  0.5443360000000  0.3436580000000 1.0
C      1  0.7116610000000  0.5607340000000  0.4524650000000 1.0
C      1  0.4485270000000  0.5731240000000  0.7238240000000 1.0
C      1  0.6444130000000  0.4505730000000  0.3368700000000 1.0
C      1  0.2748280000000  0.4171500000000  0.4378500000000 1.0
C      1  0.5550170000000  0.4305550000000  0.7184890000000 1.0
C      1  0.6449210000000  0.4556640000000  0.6563420000000 1.0
C      1  0.2883390000000  0.4392660000000  0.5475350000000 1.0
C      1  0.5514730000000  0.4268760000000  0.2761760000000 1.0
C      1  0.3555870000000  0.5494270000000  0.6631300000000 1.0
C      1  0.7251720000000  0.5828500000000  0.5621500000000 1.0
C      1  0.4449830000000  0.5694450000000  0.2815110000000 1.0
END
