TITL C-3036480-97-284 0.0222254328633609 3375 -351.122209190452 0 0 60 (C1) n - 1
REM
REM in /home/bkarasulu/work/CARBON/AIRSS/Generating-Clusters/REBO/Higher-Symm/Only-C60
REM
REM
REM
REM
REM
REM ./C.cell (a2850807a9bf4ad07a5b6933b78d9264)
REM AIRSS Version 0.9.1 bugfix July 2018 build 013d7b7c2542+ Fri, 06 Jul 2018 19:26:36 +0100
REM compiler GCC version 9.2.1 20190827 (Red Hat 9.2.1-1)
REM options -cpp -mtune=generic -march=x86-64 -g -O0 -fpre-include=/usr/include/finclude/math-vector-fortran.h
REM seed 1091254765 -77946709 -1372429160 -1657686802 1623358487 -267166554 1805509471 422742184 -968761922 -2088654683 1214638894 -169758677 -1196991837 -675700377 -859844389 264936724 -1381875879 1328162186 -566646938 708058006 103667573 -1382036362 -489994162 1169412674 -1388395209 762321198 -1516380074 -705453043 1347559348 -1519525681 1476201187 237249642 -2106846654
REM
CELL 1.54180   15.00000   15.00000   15.00000   90.00000   90.00000   90.00000
LATT -1
SFAC C  
C      1  0.3400150000000  0.5023370000000  0.6024210000000 1.0
C      1  0.7504810000000  0.4077860000000  0.6431520000000 1.0
C      1  0.4443160000000  0.4359030000000  0.4423340000000 1.0
C      1  0.4345680000000  0.6086910000000  0.4842170000000 1.0
C      1  0.7360410000000  0.5715570000000  0.5589100000000 1.0
C      1  0.3243040000000  0.6198650000000  0.4980210000000 1.0
C      1  0.6543650000000  0.6447540000000  0.3869190000000 1.0
C      1  0.6723890000000  0.5848020000000  0.4651320000000 1.0
C      1  0.4435250000000  0.4653260000000  0.5720790000000 1.0
C      1  0.4668770000000  0.4193570000000  0.7120110000000 1.0
C      1  0.5677730000000  0.7114520000000  0.3962600000000 1.0
C      1  0.5115940000000  0.3999860000000  0.5199580000000 1.0
C      1  0.4660630000000  0.6997820000000  0.4393740000000 1.0
C      1  0.5731860000000  0.4233170000000  0.6910320000000 1.0
C      1  0.4565790000000  0.2662180000000  0.5069630000000 1.0
C      1  0.4195010000000  0.3590470000000  0.6577750000000 1.0
C      1  0.6185350000000  0.4687850000000  0.3222730000000 1.0
C      1  0.3544360000000  0.5499520000000  0.3547090000000 1.0
C      1  0.2588090000000  0.5421150000000  0.4121440000000 1.0
C      1  0.5726550000000  0.5719650000000  0.5921970000000 1.0
C      1  0.5621960000000  0.6183970000000  0.7162100000000 1.0
C      1  0.3423500000000  0.3910840000000  0.6150900000000 1.0
C      1  0.5491220000000  0.3313480000000  0.4370660000000 1.0
C      1  0.4786840000000  0.3421230000000  0.3544860000000 1.0
C      1  0.2906130000000  0.4654810000000  0.3344740000000 1.0
C      1  0.6710300000000  0.3954710000000  0.3432050000000 1.0
C      1  0.4431540000000  0.5126600000000  0.7338850000000 1.0
C      1  0.5437140000000  0.5259560000000  0.7321260000000 1.0
C      1  0.6860730000000  0.3545600000000  0.5076810000000 1.0
C      1  0.5726310000000  0.7065510000000  0.5785990000000 1.0
C      1  0.4357570000000  0.5377530000000  0.4088770000000 1.0
C      1  0.4833640000000  0.2980870000000  0.6126320000000 1.0
C      1  0.4653080000000  0.5033290000000  0.2772210000000 1.0
C      1  0.5698760000000  0.6355710000000  0.3118550000000 1.0
C      1  0.5425230000000  0.7483740000000  0.4994710000000 1.0
C      1  0.6498930000000  0.3425480000000  0.4175870000000 1.0
C      1  0.5318560000000  0.4881010000000  0.3926780000000 1.0
C      1  0.4187270000000  0.3059040000000  0.4306830000000 1.0
C      1  0.3053660000000  0.6444650000000  0.3899290000000 1.0
C      1  0.4028050000000  0.5633780000000  0.6593960000000 1.0
C      1  0.6120630000000  0.4325500000000  0.5263010000000 1.0
C      1  0.5644220000000  0.2793420000000  0.5367880000000 1.0
C      1  0.2991960000000  0.4077530000000  0.5207440000000 1.0
C      1  0.4236220000000  0.6639080000000  0.6386410000000 1.0
C      1  0.6169130000000  0.5006000000000  0.4517000000000 1.0
C      1  0.7214900000000  0.4967320000000  0.6197850000000 1.0
C      1  0.3683610000000  0.6905590000000  0.5695690000000 1.0
C      1  0.4596370000000  0.6116410000000  0.3007160000000 1.0
C      1  0.4359020000000  0.4102140000000  0.2984890000000 1.0
C      1  0.3537850000000  0.3798380000000  0.4507910000000 1.0
C      1  0.5188970000000  0.6788760000000  0.6528770000000 1.0
C      1  0.3392690000000  0.4002140000000  0.2950950000000 1.0
C      1  0.6483670000000  0.6394700000000  0.5592520000000 1.0
C      1  0.2759540000000  0.5186460000000  0.5153770000000 1.0
C      1  0.5910280000000  0.3297860000000  0.6354260000000 1.0
C      1  0.4068610000000  0.6713040000000  0.3576420000000 1.0
C      1  0.6184010000000  0.4833630000000  0.6157940000000 1.0
C      1  0.5633940000000  0.5353030000000  0.2729280000000 1.0
C      1  0.4770130000000  0.5660630000000  0.5665670000000 1.0
C      1  0.6943670000000  0.3397020000000  0.6044840000000 1.0
END
