TITL C-3036479-9801-40 -0.0183180991242005 3375 -320.644130016254 0 0 60 (C2) n - 1
REM
REM in /home/bkarasulu/work/CARBON/AIRSS/Generating-Clusters/REBO/Higher-Symm/Only-C60
REM
REM
REM
REM
REM
REM ./C.cell (a2850807a9bf4ad07a5b6933b78d9264)
REM AIRSS Version 0.9.1 bugfix July 2018 build 013d7b7c2542+ Fri, 06 Jul 2018 19:26:36 +0100
REM compiler GCC version 9.2.1 20190827 (Red Hat 9.2.1-1)
REM options -cpp -mtune=generic -march=x86-64 -g -O0 -fpre-include=/usr/include/finclude/math-vector-fortran.h
REM seed 378104875 -1402318459 1951666479 -788114466 -464571862 -1046920829 -1791556958 642494651 224587698 -1772967477 -928334106 725680900 -167248759 -1102664467 -476805029 -731157883 1515165999 -1751109366 -822445536 976594912 -1220763863 1379957820 914386683 -34080285 -1259928066 1470748832 293866989 -661060730 1918736388 -1967521666 966414975 1121050938 1043828766
REM
CELL 1.54180   15.00000   15.00000   15.00000   90.00000   90.00000   90.00000
LATT -1
SFAC C  
C      1  0.3488850000000  0.5274830000000  0.3252210000000 1.0
C      1  0.6510320000000  0.5274270000000  0.6747710000000 1.0
C      1  0.5451990000000  0.3000040000000  0.4104350000000 1.0
C      1  0.4545880000000  0.2999860000000  0.5894770000000 1.0
C      1  0.3668190000000  0.5645370000000  0.5819470000000 1.0
C      1  0.6331520000000  0.5644920000000  0.4181740000000 1.0
C      1  0.5701500000000  0.4730540000000  0.4163200000000 1.0
C      1  0.4298640000000  0.4731270000000  0.5839270000000 1.0
C      1  0.5048720000000  0.3768380000000  0.2972340000000 1.0
C      1  0.4953700000000  0.3771150000000  0.7025580000000 1.0
C      1  0.5888470000000  0.2709160000000  0.4868960000000 1.0
C      1  0.4108450000000  0.2711330000000  0.5129650000000 1.0
C      1  0.5527970000000  0.6894130000000  0.5794900000000 1.0
C      1  0.4472590000000  0.6893950000000  0.4204820000000 1.0
C      1  0.2396060000000  0.5043190000000  0.4964970000000 1.0
C      1  0.7604070000000  0.5043400000000  0.5036170000000 1.0
C      1  0.5098080000000  0.5552450000000  0.7342170000000 1.0
C      1  0.4902560000000  0.5551100000000  0.2658320000000 1.0
C      1  0.5193180000000  0.7642300000000  0.5414370000000 1.0
C      1  0.4806350000000  0.7642740000000  0.4585030000000 1.0
C      1  0.3722590000000  0.6102670000000  0.2929420000000 1.0
C      1  0.6278160000000  0.6102620000000  0.7069460000000 1.0
C      1  0.3011770000000  0.5986420000000  0.4272780000000 1.0
C      1  0.6989190000000  0.5986230000000  0.5727880000000 1.0
C      1  0.5920330000000  0.3796600000000  0.6435140000000 1.0
C      1  0.4080110000000  0.3797290000000  0.3560250000000 1.0
C      1  0.4389200000000  0.4868070000000  0.3678070000000 1.0
C      1  0.5609650000000  0.4867610000000  0.6322190000000 1.0
C      1  0.7225230000000  0.4679890000000  0.6528000000000 1.0
C      1  0.2773900000000  0.4679180000000  0.3469250000000 1.0
C      1  0.5876470000000  0.4115970000000  0.5093100000000 1.0
C      1  0.4126280000000  0.4116060000000  0.4911740000000 1.0
C      1  0.2897930000000  0.4926090000000  0.5806270000000 1.0
C      1  0.7101730000000  0.4926420000000  0.4195330000000 1.0
C      1  0.3091220000000  0.3637640000000  0.4877610000000 1.0
C      1  0.6911580000000  0.3634110000000  0.5120240000000 1.0
C      1  0.4497690000000  0.3216930000000  0.4299110000000 1.0
C      1  0.5501310000000  0.3215360000000  0.5698890000000 1.0
C      1  0.3086770000000  0.3863500000000  0.3883980000000 1.0
C      1  0.6913030000000  0.3863670000000  0.6114170000000 1.0
C      1  0.5414930000000  0.5345080000000  0.5311570000000 1.0
C      1  0.4583700000000  0.5345060000000  0.4689500000000 1.0
C      1  0.6376880000000  0.7104280000000  0.4549110000000 1.0
C      1  0.3621980000000  0.7104760000000  0.5450740000000 1.0
C      1  0.5478420000000  0.5663480000000  0.3552170000000 1.0
C      1  0.4520900000000  0.5664430000000  0.6449710000000 1.0
C      1  0.4667850000000  0.6419810000000  0.3358560000000 1.0
C      1  0.5332470000000  0.6420960000000  0.6641450000000 1.0
C      1  0.3490310000000  0.5017090000000  0.4620970000000 1.0
C      1  0.6510780000000  0.5019190000000  0.5382280000000 1.0
C      1  0.5330650000000  0.4617330000000  0.7458110000000 1.0
C      1  0.4669180000000  0.4615590000000  0.2542950000000 1.0
C      1  0.4096470000000  0.3793560000000  0.6384850000000 1.0
C      1  0.5904130000000  0.3793990000000  0.3615620000000 1.0
C      1  0.6822790000000  0.4016060000000  0.4157120000000 1.0
C      1  0.3178040000000  0.4015430000000  0.5842880000000 1.0
C      1  0.2309590000000  0.6310900000000  0.3896860000000 1.0
C      1  0.7690560000000  0.6312930000000  0.6102260000000 1.0
C      1  0.3890180000000  0.6256630000000  0.4898930000000 1.0
C      1  0.6108980000000  0.6256690000000  0.5101480000000 1.0
END
