TITL C-3036480-97-1010 0.0140651398426544 3375 -333.721917123471 0 0 60 (C2) n - 1
REM
REM in /home/bkarasulu/work/CARBON/AIRSS/Generating-Clusters/REBO/Higher-Symm/Only-C60
REM
REM
REM
REM
REM
REM ./C.cell (a2850807a9bf4ad07a5b6933b78d9264)
REM AIRSS Version 0.9.1 bugfix July 2018 build 013d7b7c2542+ Fri, 06 Jul 2018 19:26:36 +0100
REM compiler GCC version 9.2.1 20190827 (Red Hat 9.2.1-1)
REM options -cpp -mtune=generic -march=x86-64 -g -O0 -fpre-include=/usr/include/finclude/math-vector-fortran.h
REM seed -1886010000 -2066783211 -1476150247 -2033721660 802671498 -296303162 -1596546466 122698589 358666519 -266744080 -656394578 856791835 -1505365559 -479154252 -1397512541 1696193163 1080511243 66053927 2027303987 2106770841 -1849344137 -535143676 -979689511 468635614 -694281459 73729843 711334707 -1682791818 -1510415331 -1026981194 -2058021934 -52261259 -1769928222
REM
CELL 1.54180   15.00000   15.00000   15.00000   90.00000   90.00000   90.00000
LATT -1
SFAC C  
C      1  0.2992150000000  0.5644600000000  0.5164030000000 1.0
C      1  0.2992150000000  0.4355400000000  0.4835970000000 1.0
C      1  0.5201820000000  0.2772090000000  0.4528270000000 1.0
C      1  0.5201830000000  0.7227910000000  0.5471720000000 1.0
C      1  0.5688560000000  0.3759860000000  0.4244910000000 1.0
C      1  0.5688550000000  0.6240140000000  0.5755090000000 1.0
C      1  0.7198160000000  0.4890410000000  0.3585130000000 1.0
C      1  0.7198150000000  0.5109590000000  0.6414880000000 1.0
C      1  0.5382300000000  0.3941930000000  0.2569660000000 1.0
C      1  0.5382300000000  0.6058080000000  0.7430350000000 1.0
C      1  0.5024370000000  0.7008760000000  0.6589770000000 1.0
C      1  0.5024380000000  0.2991260000000  0.3410220000000 1.0
C      1  0.4498860000000  0.6129200000000  0.3309500000000 1.0
C      1  0.4498850000000  0.3870780000000  0.6690510000000 1.0
C      1  0.4027950000000  0.5529930000000  0.5992300000000 1.0
C      1  0.4027960000000  0.4470090000000  0.4007710000000 1.0
C      1  0.4186750000000  0.7369860000000  0.5887560000000 1.0
C      1  0.4186740000000  0.2630140000000  0.4112430000000 1.0
C      1  0.5686630000000  0.5310680000000  0.6372750000000 1.0
C      1  0.5686630000000  0.4689320000000  0.3627260000000 1.0
C      1  0.5220560000000  0.3917820000000  0.5198900000000 1.0
C      1  0.5220560000000  0.6082180000000  0.4801100000000 1.0
C      1  0.4722720000000  0.4576930000000  0.3254450000000 1.0
C      1  0.4722710000000  0.5423080000000  0.6745530000000 1.0
C      1  0.4311520000000  0.3259030000000  0.5992000000000 1.0
C      1  0.4311520000000  0.6740950000000  0.4008000000000 1.0
C      1  0.3772530000000  0.5509080000000  0.3213590000000 1.0
C      1  0.3772550000000  0.4490940000000  0.6786400000000 1.0
C      1  0.3230010000000  0.5214890000000  0.4134540000000 1.0
C      1  0.3230020000000  0.4785100000000  0.5865450000000 1.0
C      1  0.6027490000000  0.5460380000000  0.3304020000000 1.0
C      1  0.6027480000000  0.4539610000000  0.6695980000000 1.0
C      1  0.3751990000000  0.4979940000000  0.2435030000000 1.0
C      1  0.3751980000000  0.5020050000000  0.7564990000000 1.0
C      1  0.4521320000000  0.4418060000000  0.2149790000000 1.0
C      1  0.4521320000000  0.5581950000000  0.7850220000000 1.0
C      1  0.3502830000000  0.6451420000000  0.4546880000000 1.0
C      1  0.3502830000000  0.3548580000000  0.5453120000000 1.0
C      1  0.3994530000000  0.3489540000000  0.3433750000000 1.0
C      1  0.3994540000000  0.6510460000000  0.6566250000000 1.0
C      1  0.4295870000000  0.4185320000000  0.4971560000000 1.0
C      1  0.4295870000000  0.5814680000000  0.5028440000000 1.0
C      1  0.5769090000000  0.7056320000000  0.3520230000000 1.0
C      1  0.5769090000000  0.2943670000000  0.6479750000000 1.0
C      1  0.5474580000000  0.6217840000000  0.3115730000000 1.0
C      1  0.5474590000000  0.3782150000000  0.6884270000000 1.0
C      1  0.3370180000000  0.6623690000000  0.5621780000000 1.0
C      1  0.3370170000000  0.3376290000000  0.4378220000000 1.0
C      1  0.6891900000000  0.3938260000000  0.4779130000000 1.0
C      1  0.6891900000000  0.6061740000000  0.5220870000000 1.0
C      1  0.7004370000000  0.4408470000000  0.5798710000000 1.0
C      1  0.7004370000000  0.5591530000000  0.4201290000000 1.0
C      1  0.6911230000000  0.6009300000000  0.6196740000000 1.0
C      1  0.6911220000000  0.3990700000000  0.3803260000000 1.0
C      1  0.6057160000000  0.6525030000000  0.6753280000000 1.0
C      1  0.6057160000000  0.3474980000000  0.3246720000000 1.0
C      1  0.6067990000000  0.4547500000000  0.5235830000000 1.0
C      1  0.6067990000000  0.5452500000000  0.4764170000000 1.0
C      1  0.5214590000000  0.7152740000000  0.4421130000000 1.0
C      1  0.5214580000000  0.2847260000000  0.5578860000000 1.0
END
