TITL C-3036479-9801-294 -0.00487690497385464 3375 -332.591603042886 0 0 60 (C3) n - 1
REM
REM in /home/bkarasulu/work/CARBON/AIRSS/Generating-Clusters/REBO/Higher-Symm/Only-C60
REM
REM
REM
REM
REM
REM ./C.cell (a2850807a9bf4ad07a5b6933b78d9264)
REM AIRSS Version 0.9.1 bugfix July 2018 build 013d7b7c2542+ Fri, 06 Jul 2018 19:26:36 +0100
REM compiler GCC version 9.2.1 20190827 (Red Hat 9.2.1-1)
REM options -cpp -mtune=generic -march=x86-64 -g -O0 -fpre-include=/usr/include/finclude/math-vector-fortran.h
REM seed 354720472 -335778893 1053696899 142173993 -2027541366 1624409726 -496510676 1117727744 -1692911008 1152903127 -1062414058 2140499975 -1885067974 -1708406925 -1337145925 884873098 916010728 -1737559140 -66152165 1897436270 705870683 -1046493213 40744507 -1017598176 -833176894 1636875145 -757058865 -756470503 -1549364555 -1754534653 1375704052 149236332 237538754
REM
CELL 1.54180   15.00000   15.00000   15.00000   90.00000   90.00000   90.00000
LATT -1
SFAC C  
C      1  0.5794750000000  0.4694470000000  0.7299220000000 1.0
C      1  0.6593720000000  0.4694600000000  0.3162080000000 1.0
C      1  0.2611520000000  0.4694530000000  0.4538720000000 1.0
C      1  0.3897790000000  0.5855010000000  0.3205750000000 1.0
C      1  0.3997150000000  0.5854940000000  0.6851760000000 1.0
C      1  0.7105230000000  0.5855150000000  0.4942440000000 1.0
C      1  0.6565280000000  0.3945630000000  0.4017500000000 1.0
C      1  0.3366590000000  0.3945580000000  0.4135620000000 1.0
C      1  0.5068020000000  0.3945520000000  0.6846790000000 1.0
C      1  0.4818880000000  0.3128260000000  0.4072900000000 1.0
C      1  0.4287640000000  0.3128200000000  0.5620400000000 1.0
C      1  0.5893420000000  0.3128340000000  0.5306630000000 1.0
C      1  0.4081390000000  0.4935750000000  0.2674130000000 1.0
C      1  0.3444900000000  0.4935660000000  0.6958570000000 1.0
C      1  0.7473540000000  0.4935800000000  0.5367410000000 1.0
C      1  0.4098010000000  0.3289620000000  0.4701080000000 1.0
C      1  0.5192110000000  0.3289720000000  0.5930470000000 1.0
C      1  0.5709650000000  0.3289800000000  0.4368320000000 1.0
C      1  0.6011120000000  0.5501680000000  0.5789710000000 1.0
C      1  0.5177970000000  0.5501630000000  0.3729250000000 1.0
C      1  0.3810530000000  0.5501510000000  0.5481150000000 1.0
C      1  0.2254920000000  0.4895170000000  0.5351550000000 1.0
C      1  0.6676840000000  0.4895200000000  0.7201480000000 1.0
C      1  0.6068010000000  0.4895260000000  0.2446890000000 1.0
C      1  0.4589500000000  0.6447980000000  0.3742730000000 1.0
C      1  0.4116580000000  0.6447800000000  0.5984200000000 1.0
C      1  0.6294200000000  0.6447730000000  0.5273110000000 1.0
C      1  0.2801580000000  0.6108300000000  0.3337040000000 1.0
C      1  0.4658860000000  0.6108150000000  0.7735590000000 1.0
C      1  0.7539480000000  0.6108360000000  0.3927470000000 1.0
C      1  0.2552580000000  0.6761000000000  0.4783870000000 1.0
C      1  0.6037330000000  0.6761640000000  0.7227580000000 1.0
C      1  0.6411140000000  0.6760770000000  0.2988460000000 1.0
C      1  0.3442250000000  0.6476750000000  0.5085800000000 1.0
C      1  0.5853450000000  0.6477000000000  0.6306370000000 1.0
C      1  0.5704720000000  0.6476740000000  0.3607950000000 1.0
C      1  0.6221580000000  0.4859160000000  0.4925090000000 1.0
C      1  0.4324460000000  0.4858980000000  0.3979470000000 1.0
C      1  0.4453940000000  0.4858890000000  0.6095390000000 1.0
C      1  0.3658140000000  0.3326440000000  0.6396160000000 1.0
C      1  0.6879980000000  0.3326660000000  0.5463880000000 1.0
C      1  0.4461760000000  0.3326540000000  0.3139840000000 1.0
C      1  0.3260180000000  0.5252400000000  0.3926670000000 1.0
C      1  0.4940240000000  0.5252200000000  0.7043470000000 1.0
C      1  0.6799360000000  0.5252580000000  0.4030010000000 1.0
C      1  0.5467350000000  0.4590780000000  0.6014600000000 1.0
C      1  0.5644910000000  0.4591030000000  0.4087890000000 1.0
C      1  0.3887600000000  0.4590910000000  0.4897620000000 1.0
C      1  0.7307100000000  0.4093940000000  0.4816940000000 1.0
C      1  0.3687950000000  0.4093770000000  0.3093410000000 1.0
C      1  0.4004770000000  0.4093650000000  0.7089540000000 1.0
C      1  0.4397130000000  0.6804140000000  0.4733040000000 1.0
C      1  0.5070390000000  0.6804080000000  0.5655720000000 1.0
C      1  0.5532830000000  0.6804030000000  0.4611320000000 1.0
C      1  0.3590710000000  0.4240590000000  0.5840680000000 1.0
C      1  0.6432550000000  0.4240770000000  0.5800100000000 1.0
C      1  0.4976590000000  0.4240630000000  0.3359210000000 1.0
C      1  0.7131660000000  0.4792960000000  0.6365890000000 1.0
C      1  0.5117040000000  0.4792860000000  0.2470870000000 1.0
C      1  0.2751140000000  0.4792790000000  0.6163170000000 1.0
END
