TITL C-3036479-9801-896 0.000181123445008847 3375 -356.159965567087 0 0 60 (C1) n - 1
REM
REM in /home/bkarasulu/work/CARBON/AIRSS/Generating-Clusters/REBO/Higher-Symm/Only-C60
REM
REM
REM
REM
REM
REM ./C.cell (a2850807a9bf4ad07a5b6933b78d9264)
REM AIRSS Version 0.9.1 bugfix July 2018 build 013d7b7c2542+ Fri, 06 Jul 2018 19:26:36 +0100
REM compiler GCC version 9.2.1 20190827 (Red Hat 9.2.1-1)
REM options -cpp -mtune=generic -march=x86-64 -g -O0 -fpre-include=/usr/include/finclude/math-vector-fortran.h
REM seed 1602621428 741599409 -1294374864 1586458009 285578552 -1864646226 -553207348 -224679172 -671577905 -1865032526 -1348209032 1701729382 629953412 -1881045054 159468968 -757990373 -88454514 -1724272286 702727261 -535578663 356405293 1621480109 -1177781011 370140442 -1989122752 1164257470 -730985839 -504357557 1272738021 417791950 835196784 -2069803092 125537239
REM
CELL 1.54180   15.00000   15.00000   15.00000   90.00000   90.00000   90.00000
LATT -1
SFAC C  
C      1  0.5199940000000  0.5929460000000  0.6787170000000 1.0
C      1  0.5698620000000  0.4387580000000  0.6792820000000 1.0
C      1  0.4118610000000  0.4715510000000  0.6806140000000 1.0
C      1  0.2725370000000  0.4386440000000  0.5005060000000 1.0
C      1  0.5583730000000  0.7321000000000  0.4997970000000 1.0
C      1  0.6736310000000  0.3313270000000  0.5064870000000 1.0
C      1  0.4320880000000  0.2785490000000  0.4248730000000 1.0
C      1  0.3431280000000  0.6719290000000  0.4277170000000 1.0
C      1  0.7234050000000  0.5440950000000  0.4260960000000 1.0
C      1  0.6509420000000  0.6632140000000  0.3481310000000 1.0
C      1  0.5724210000000  0.2810760000000  0.3465560000000 1.0
C      1  0.2802220000000  0.5528250000000  0.3415360000000 1.0
C      1  0.2959370000000  0.4647350000000  0.3910710000000 1.0
C      1  0.5732950000000  0.6875790000000  0.3961790000000 1.0
C      1  0.6392550000000  0.3427230000000  0.3912380000000 1.0
C      1  0.6067550000000  0.4380480000000  0.3717890000000 1.0
C      1  0.3948400000000  0.4344360000000  0.3697180000000 1.0
C      1  0.4959540000000  0.6321650000000  0.3742440000000 1.0
C      1  0.3981950000000  0.4974800000000  0.5169160000000 1.0
C      1  0.5448030000000  0.5852810000000  0.5167690000000 1.0
C      1  0.5481200000000  0.4127920000000  0.5172430000000 1.0
C      1  0.5793050000000  0.4730880000000  0.4544290000000 1.0
C      1  0.4328450000000  0.4377480000000  0.4562790000000 1.0
C      1  0.4758450000000  0.5859030000000  0.4549010000000 1.0
C      1  0.4287860000000  0.5655780000000  0.6968330000000 1.0
C      1  0.5929960000000  0.5311520000000  0.6949460000000 1.0
C      1  0.4808410000000  0.4062580000000  0.6980630000000 1.0
C      1  0.6192360000000  0.2982410000000  0.5964710000000 1.0
C      1  0.2656590000000  0.4993740000000  0.5954170000000 1.0
C      1  0.6167190000000  0.7029830000000  0.5913750000000 1.0
C      1  0.2713040000000  0.5812540000000  0.6452650000000 1.0
C      1  0.6860100000000  0.6569190000000  0.6389860000000 1.0
C      1  0.5459950000000  0.2619370000000  0.6469370000000 1.0
C      1  0.3283680000000  0.3439770000000  0.5293450000000 1.0
C      1  0.4501580000000  0.7311880000000  0.5357150000000 1.0
C      1  0.7302000000000  0.4256950000000  0.5347950000000 1.0
C      1  0.3939030000000  0.6634980000000  0.5787150000000 1.0
C      1  0.6940340000000  0.5069830000000  0.5758760000000 1.0
C      1  0.4088630000000  0.3230600000000  0.5848560000000 1.0
C      1  0.6761010000000  0.5603520000000  0.6531720000000 1.0
C      1  0.4664690000000  0.3179270000000  0.6598090000000 1.0
C      1  0.3598870000000  0.6216310000000  0.6569420000000 1.0
C      1  0.7423620000000  0.3606360000000  0.4210370000000 1.0
C      1  0.2633780000000  0.3612940000000  0.4168040000000 1.0
C      1  0.4925070000000  0.7878330000000  0.4252460000000 1.0
C      1  0.3344440000000  0.2893830000000  0.4391680000000 1.0
C      1  0.3967560000000  0.7522800000000  0.4450740000000 1.0
C      1  0.7696400000000  0.4585190000000  0.4419390000000 1.0
C      1  0.3598020000000  0.4617620000000  0.5982650000000 1.0
C      1  0.5369890000000  0.6409730000000  0.5946460000000 1.0
C      1  0.6011460000000  0.3977700000000  0.5961090000000 1.0
C      1  0.6885870000000  0.5753710000000  0.3422280000000 1.0
C      1  0.4779870000000  0.2964840000000  0.3430270000000 1.0
C      1  0.3368970000000  0.6295950000000  0.3419320000000 1.0
C      1  0.3795600000000  0.6008070000000  0.4962290000000 1.0
C      1  0.6427070000000  0.5474070000000  0.4945170000000 1.0
C      1  0.4652220000000  0.3459540000000  0.4978040000000 1.0
C      1  0.4272610000000  0.6292980000000  0.3073820000000 1.0
C      1  0.6378760000000  0.5008210000000  0.3069340000000 1.0
C      1  0.4377370000000  0.3768150000000  0.3070500000000 1.0
END
