TITL C-3036484-3770-252 -3.17430777859676e-08 3375 -326.418925921215 0 0 60 (C2) n - 1
REM
REM in /home/bkarasulu/work/CARBON/AIRSS/Generating-Clusters/REBO/Higher-Symm/Only-C60
REM
REM
REM
REM
REM
REM ./C.cell (a2850807a9bf4ad07a5b6933b78d9264)
REM AIRSS Version 0.9.1 bugfix July 2018 build 013d7b7c2542+ Fri, 06 Jul 2018 19:26:36 +0100
REM compiler GCC version 9.2.1 20190827 (Red Hat 9.2.1-1)
REM options -cpp -mtune=generic -march=x86-64 -g -O0 -fpre-include=/usr/include/finclude/math-vector-fortran.h
REM seed -1432847672 127043286 1695583060 -1908629036 -881950357 1510261325 -1516266399 -1396661507 -1570128100 -89642869 461556681 529013472 145860100 1629861868 -1949280505 996193578 1956493983 1757611826 2099513959 -521284452 -1592933355 -1432345796 -351303126 1968061010 -1395375164 -1493219050 1850371806 -97778169 -1111462330 127980074 -1980453630 170793624 -203310094
REM
CELL 1.54180   15.00000   15.00000   15.00000   90.00000   90.00000   90.00000
LATT -1
SFAC C  
C      1  0.6078370000000  0.3973330000000  0.4740820000000 1.0
C      1  0.6065370000000  0.5236220000000  0.4091340000000 1.0
C      1  0.6078370000000  0.6026670000000  0.5259180000000 1.0
C      1  0.6065370000000  0.4763780000000  0.5908660000000 1.0
C      1  0.3851110000000  0.3968980000000  0.4795270000000 1.0
C      1  0.3854610000000  0.5172910000000  0.4092990000000 1.0
C      1  0.3851110000000  0.6031020000000  0.5204730000000 1.0
C      1  0.3854610000000  0.4827090000000  0.5907010000000 1.0
C      1  0.4588840000000  0.3005230000000  0.4288170000000 1.0
C      1  0.4607100000000  0.5681590000000  0.3144290000000 1.0
C      1  0.4588840000000  0.6994770000000  0.5711830000000 1.0
C      1  0.4607110000000  0.4318410000000  0.6855710000000 1.0
C      1  0.5536850000000  0.2967860000000  0.4105420000000 1.0
C      1  0.5543240000000  0.5861560000000  0.3071320000000 1.0
C      1  0.5536850000000  0.7032140000000  0.5894580000000 1.0
C      1  0.5543240000000  0.4138440000000  0.6928680000000 1.0
C      1  0.3294770000000  0.3339830000000  0.6763060000000 1.0
C      1  0.3262550000000  0.3280270000000  0.3293890000000 1.0
C      1  0.3294770000000  0.6660170000000  0.3236940000000 1.0
C      1  0.3262560000000  0.6719730000000  0.6706110000000 1.0
C      1  0.6746080000000  0.3154390000000  0.6589790000000 1.0
C      1  0.6753330000000  0.3476300000000  0.3133870000000 1.0
C      1  0.6746070000000  0.6845610000000  0.3410210000000 1.0
C      1  0.6753340000000  0.6523700000000  0.6866130000000 1.0
C      1  0.2985230000000  0.6287530000000  0.5902320000000 1.0
C      1  0.3035050000000  0.4175700000000  0.6366220000000 1.0
C      1  0.2985230000000  0.3712470000000  0.4097690000000 1.0
C      1  0.3035050000000  0.5824300000000  0.3633780000000 1.0
C      1  0.6953000000000  0.6222260000000  0.5976210000000 1.0
C      1  0.6896160000000  0.4076840000000  0.6301370000000 1.0
C      1  0.6953000000000  0.3777740000000  0.4023790000000 1.0
C      1  0.6896160000000  0.5923160000000  0.3698630000000 1.0
C      1  0.7058500000000  0.5834490000000  0.4737240000000 1.0
C      1  0.7049260000000  0.5201770000000  0.5634550000000 1.0
C      1  0.7058500000000  0.4165510000000  0.5262760000000 1.0
C      1  0.7049260000000  0.4798230000000  0.4365440000000 1.0
C      1  0.2863870000000  0.5826210000000  0.4685620000000 1.0
C      1  0.2864020000000  0.5244590000000  0.5618990000000 1.0
C      1  0.2863870000000  0.4173790000000  0.5314380000000 1.0
C      1  0.2864020000000  0.4755410000000  0.4381010000000 1.0
C      1  0.4189370000000  0.3547150000000  0.3556120000000 1.0
C      1  0.4202720000000  0.6460560000000  0.3591260000000 1.0
C      1  0.4189370000000  0.6452850000000  0.6443880000000 1.0
C      1  0.4202730000000  0.3539440000000  0.6408740000000 1.0
C      1  0.5794530000000  0.3617090000000  0.3391680000000 1.0
C      1  0.5785360000000  0.6646250000000  0.3653270000000 1.0
C      1  0.5794530000000  0.6382910000000  0.6608320000000 1.0
C      1  0.5785360000000  0.3353750000000  0.6346730000000 1.0
C      1  0.4425880000000  0.4569030000000  0.3381410000000 1.0
C      1  0.4422840000000  0.6744670000000  0.4600370000000 1.0
C      1  0.4425880000000  0.5430970000000  0.6618590000000 1.0
C      1  0.4422840000000  0.3255330000000  0.5399630000000 1.0
C      1  0.5503090000000  0.4710060000000  0.3300340000000 1.0
C      1  0.5509760000000  0.6830430000000  0.4740510000000 1.0
C      1  0.5503090000000  0.5289940000000  0.6699660000000 1.0
C      1  0.5509760000000  0.3169570000000  0.5259490000000 1.0
C      1  0.4962720000000  0.5778370000000  0.5333130000000 1.0
C      1  0.4958770000000  0.4729050000000  0.5623920000000 1.0
C      1  0.4962720000000  0.4221630000000  0.4666870000000 1.0
C      1  0.4958770000000  0.5270950000000  0.4376080000000 1.0
END
