TITL C-3036486-2224-940 2.90101177053045e-06 3375 -325.972091785312 0 0 60 (C6) n - 1
REM
REM in /home/bkarasulu/work/CARBON/AIRSS/Generating-Clusters/REBO/Higher-Symm/Only-C60
REM
REM
REM
REM
REM
REM ./C.cell (a2850807a9bf4ad07a5b6933b78d9264)
REM AIRSS Version 0.9.1 bugfix July 2018 build 013d7b7c2542+ Fri, 06 Jul 2018 19:26:36 +0100
REM compiler GCC version 9.2.1 20190827 (Red Hat 9.2.1-1)
REM options -cpp -mtune=generic -march=x86-64 -g -O0 -fpre-include=/usr/include/finclude/math-vector-fortran.h
REM seed 451548463 1594258590 -1896014589 -1271545177 2012076191 548885685 1175387047 766577669 1760900756 -1002725757 426822936 -1472665997 -968603652 1885582536 22786431 -1608302177 79612876 -1060457845 2064765652 518305630 1564813883 1608184619 -185723343 2122860073 -1628373617 -43865857 850323756 -1993999413 -1218168548 -1800384642 368338661 -2108017049 854713204
REM
CELL 1.54180   15.00000   15.00000   15.00000   90.00000   90.00000   90.00000
LATT -1
SFAC C  
C      1  0.5324520000000  0.3104900000000  0.3149560000000 1.0
C      1  0.5324510000000  0.2449910000000  0.5715990000000 1.0
C      1  0.5324510000000  0.4345020000000  0.7566430000000 1.0
C      1  0.5324520000000  0.6895110000000  0.6850440000000 1.0
C      1  0.5324510000000  0.7550090000000  0.4284010000000 1.0
C      1  0.5324510000000  0.5654980000000  0.2433570000000 1.0
C      1  0.5859940000000  0.4711780000000  0.2806370000000 1.0
C      1  0.5859930000000  0.2956140000000  0.4152800000000 1.0
C      1  0.5859930000000  0.3244360000000  0.6346430000000 1.0
C      1  0.5859940000000  0.5288220000000  0.7193630000000 1.0
C      1  0.5859930000000  0.7043860000000  0.5847210000000 1.0
C      1  0.5859930000000  0.6755640000000  0.3653570000000 1.0
C      1  0.4109710000000  0.6053110000000  0.4910950000000 1.0
C      1  0.4109710000000  0.5449430000000  0.4043450000000 1.0
C      1  0.4109710000000  0.4396320000000  0.4132500000000 1.0
C      1  0.4109710000000  0.3946890000000  0.5089050000000 1.0
C      1  0.4109710000000  0.4550570000000  0.5956550000000 1.0
C      1  0.4109710000000  0.5603680000000  0.5867500000000 1.0
C      1  0.4742250000000  0.3045380000000  0.4343390000000 1.0
C      1  0.4742250000000  0.3454040000000  0.6364450000000 1.0
C      1  0.4742250000000  0.5408670000000  0.7021060000000 1.0
C      1  0.4742250000000  0.6954620000000  0.5656610000000 1.0
C      1  0.4742250000000  0.6545960000000  0.3635550000000 1.0
C      1  0.4742250000000  0.4591330000000  0.2978940000000 1.0
C      1  0.6101770000000  0.7289790000000  0.4851010000000 1.0
C      1  0.6101770000000  0.6015870000000  0.2942500000000 1.0
C      1  0.6101770000000  0.3726100000000  0.3091500000000 1.0
C      1  0.6101770000000  0.2710210000000  0.5148990000000 1.0
C      1  0.6101770000000  0.3984130000000  0.7057500000000 1.0
C      1  0.6101770000000  0.6273900000000  0.6908500000000 1.0
C      1  0.5217900000000  0.5269110000000  0.6027180000000 1.0
C      1  0.5217900000000  0.6024120000000  0.5280530000000 1.0
C      1  0.5217900000000  0.5755020000000  0.4253350000000 1.0
C      1  0.5217900000000  0.4730890000000  0.3972820000000 1.0
C      1  0.5217900000000  0.3975880000000  0.4719470000000 1.0
C      1  0.5217900000000  0.4244980000000  0.5746650000000 1.0
C      1  0.6783690000000  0.5330200000000  0.3042720000000 1.0
C      1  0.6783690000000  0.3470050000000  0.3735430000000 1.0
C      1  0.6783690000000  0.3139830000000  0.5692690000000 1.0
C      1  0.6783690000000  0.4669800000000  0.6957280000000 1.0
C      1  0.6783690000000  0.6529950000000  0.6264570000000 1.0
C      1  0.6783690000000  0.6860170000000  0.4307310000000 1.0
C      1  0.3570760000000  0.6204600000000  0.3119900000000 1.0
C      1  0.3570760000000  0.3974080000000  0.3016730000000 1.0
C      1  0.3570760000000  0.2769490000000  0.4896840000000 1.0
C      1  0.3570760000000  0.3795400000000  0.6880100000000 1.0
C      1  0.3570760000000  0.6025920000000  0.6983270000000 1.0
C      1  0.3570760000000  0.7230510000000  0.5103160000000 1.0
C      1  0.3745350000000  0.6645790000000  0.6047930000000 1.0
C      1  0.3745350000000  0.6730430000000  0.4098670000000 1.0
C      1  0.3745360000000  0.5084640000000  0.3050740000000 1.0
C      1  0.3745350000000  0.3354220000000  0.3952070000000 1.0
C      1  0.3745350000000  0.3269570000000  0.5901330000000 1.0
C      1  0.3745350000000  0.4915360000000  0.6949260000000 1.0
C      1  0.4544130000000  0.3530750000000  0.2896700000000 1.0
C      1  0.4544120000000  0.2443860000000  0.5220760000000 1.0
C      1  0.4544120000000  0.3913110000000  0.7324060000000 1.0
C      1  0.4544130000000  0.6469250000000  0.7103300000000 1.0
C      1  0.4544120000000  0.7556140000000  0.4779240000000 1.0
C      1  0.4544120000000  0.6086890000000  0.2675940000000 1.0
END
