TITL C-3036479-9801-911 3.0901613707671e-06 3375 -343.529135892926 0 0 60 (C3) n - 1
REM
REM in /home/bkarasulu/work/CARBON/AIRSS/Generating-Clusters/REBO/Higher-Symm/Only-C60
REM
REM
REM
REM
REM
REM ./C.cell (a2850807a9bf4ad07a5b6933b78d9264)
REM AIRSS Version 0.9.1 bugfix July 2018 build 013d7b7c2542+ Fri, 06 Jul 2018 19:26:36 +0100
REM compiler GCC version 9.2.1 20190827 (Red Hat 9.2.1-1)
REM options -cpp -mtune=generic -march=x86-64 -g -O0 -fpre-include=/usr/include/finclude/math-vector-fortran.h
REM seed -420870374 -701845305 -686346436 115980688 -26765763 143249451 -1777815067 -889330054 -619769127 -1719834485 -1092251114 -1248426055 -2068604576 571373864 1477247767 -597635602 193399509 -1382109167 1674951643 343630169 425540394 996065131 -105893239 -443146734 99389958 2033190117 2009647801 2115189317 -594735060 -1737698 1419675186 1387079461 -711889512
REM
CELL 1.54180   15.00000   15.00000   15.00000   90.00000   90.00000   90.00000
LATT -1
SFAC C  
C      1  0.5017210000000  0.4487480000000  0.3032790000000 1.0
C      1  0.6721480000000  0.4486560000000  0.6000620000000 1.0
C      1  0.3299130000000  0.4486850000000  0.5992640000000 1.0
C      1  0.6552510000000  0.5137160000000  0.4357110000000 1.0
C      1  0.4807160000000  0.5136710000000  0.6668280000000 1.0
C      1  0.3678310000000  0.5137500000000  0.4001170000000 1.0
C      1  0.6015170000000  0.5816170000000  0.4796840000000 1.0
C      1  0.4695250000000  0.5815970000000  0.5983290000000 1.0
C      1  0.4327720000000  0.5816460000000  0.4246970000000 1.0
C      1  0.5933570000000  0.4206080000000  0.5258140000000 1.0
C      1  0.4335990000000  0.4206100000000  0.5681450000000 1.0
C      1  0.4768180000000  0.4206480000000  0.4086250000000 1.0
C      1  0.3017760000000  0.5580900000000  0.5290370000000 1.0
C      1  0.5766470000000  0.5581230000000  0.3140600000000 1.0
C      1  0.6253860000000  0.5580290000000  0.6595950000000 1.0
C      1  0.3855490000000  0.7126450000000  0.3050750000000 1.0
C      1  0.7287710000000  0.7125660000000  0.4986410000000 1.0
C      1  0.3895270000000  0.7125420000000  0.6990970000000 1.0
C      1  0.4763320000000  0.3553570000000  0.6415070000000 1.0
C      1  0.3918960000000  0.3554240000000  0.4089310000000 1.0
C      1  0.6355300000000  0.3553930000000  0.4520950000000 1.0
C      1  0.6528390000000  0.2777460000000  0.5565220000000 1.0
C      1  0.3772140000000  0.2777570000000  0.6042580000000 1.0
C      1  0.4736860000000  0.2778170000000  0.3416920000000 1.0
C      1  0.6114220000000  0.3878630000000  0.3551930000000 1.0
C      1  0.5723170000000  0.3877850000000  0.6690900000000 1.0
C      1  0.3200270000000  0.3878560000000  0.4782760000000 1.0
C      1  0.7229900000000  0.4758020000000  0.5026510000000 1.0
C      1  0.3888620000000  0.4757810000000  0.6920100000000 1.0
C      1  0.3919360000000  0.4758810000000  0.3079670000000 1.0
C      1  0.5905900000000  0.2906070000000  0.6295950000000 1.0
C      1  0.3450600000000  0.2906580000000  0.5138170000000 1.0
C      1  0.5680910000000  0.2906800000000  0.3590700000000 1.0
C      1  0.3359960000000  0.5571870000000  0.6320580000000 1.0
C      1  0.4703170000000  0.5572640000000  0.2921860000000 1.0
C      1  0.6974950000000  0.5571700000000  0.5784480000000 1.0
C      1  0.3956390000000  0.6517170000000  0.6313200000000 1.0
C      1  0.4411680000000  0.6517880000000  0.3442370000000 1.0
C      1  0.6670250000000  0.6517210000000  0.5272080000000 1.0
C      1  0.5752420000000  0.6412040000000  0.6531390000000 1.0
C      1  0.3324680000000  0.6412670000000  0.4888640000000 1.0
C      1  0.5961200000000  0.6412780000000  0.3607530000000 1.0
C      1  0.4876500000000  0.2518130000000  0.6010460000000 1.0
C      1  0.4212400000000  0.2518610000000  0.4389310000000 1.0
C      1  0.5948410000000  0.2518400000000  0.4624750000000 1.0
C      1  0.4231650000000  0.3666560000000  0.3005540000000 1.0
C      1  0.7137570000000  0.3665710000000  0.5333680000000 1.0
C      1  0.3668380000000  0.3665650000000  0.6686200000000 1.0
C      1  0.3132370000000  0.4824470000000  0.4716910000000 1.0
C      1  0.6205520000000  0.4824520000000  0.3526350000000 1.0
C      1  0.5700000000000  0.4823710000000  0.6783060000000 1.0
C      1  0.4064690000000  0.6796150000000  0.5298860000000 1.0
C      1  0.5236080000000  0.6796380000000  0.4043410000000 1.0
C      1  0.5737630000000  0.6795900000000  0.5685590000000 1.0
C      1  0.5012420000000  0.2260270000000  0.5008110000000 1.0
C      1  0.5012830000000  0.7124040000000  0.5009370000000 1.0
C      1  0.5013050000000  0.9008160000000  0.5009900000000 1.0
C      1  0.5012610000000  0.4546940000000  0.5008700000000 1.0
C      1  0.5012930000000  0.8157510000000  0.5009650000000 1.0
C      1  0.5012700000000  0.5592300000000  0.5008970000000 1.0
END
