TITL C-3036485-3770-415 0.0106179885806787 3375 -350.156757924953 0 0 60 (C1) n - 1
REM
REM in /home/bkarasulu/work/CARBON/AIRSS/Generating-Clusters/REBO/Higher-Symm/Only-C60
REM
REM
REM
REM
REM
REM ./C.cell (a2850807a9bf4ad07a5b6933b78d9264)
REM AIRSS Version 0.9.1 bugfix July 2018 build 013d7b7c2542+ Fri, 06 Jul 2018 19:26:36 +0100
REM compiler GCC version 9.2.1 20190827 (Red Hat 9.2.1-1)
REM options -cpp -mtune=generic -march=x86-64 -g -O0 -fpre-include=/usr/include/finclude/math-vector-fortran.h
REM seed 1019042165 457294760 -1585272658 665140774 2087326980 1369982905 744951082 1689148538 -869929556 1033817979 -436772148 1843210772 535266159 -1100441956 -956324304 331396637 -1038732478 1352084926 -1783492388 1649985472 1834650193 1385304069 93464617 -2088672739 1786404491 -1573282778 -431607383 489086614 1460627788 455318064 673035066 1874143111 1103085084
REM
CELL 1.54180   15.00000   15.00000   15.00000   90.00000   90.00000   90.00000
LATT -1
SFAC C  
C      1  0.3102550000000  0.5722290000000  0.3527800000000 1.0
C      1  0.6578520000000  0.5731380000000  0.5080310000000 1.0
C      1  0.5089660000000  0.7710480000000  0.4523990000000 1.0
C      1  0.6570190000000  0.6524880000000  0.4554480000000 1.0
C      1  0.5202140000000  0.6966510000000  0.3897110000000 1.0
C      1  0.3078590000000  0.3323700000000  0.4615930000000 1.0
C      1  0.2580250000000  0.5957090000000  0.5165040000000 1.0
C      1  0.5843660000000  0.6641100000000  0.6501150000000 1.0
C      1  0.6271690000000  0.2565280000000  0.6623700000000 1.0
C      1  0.3924380000000  0.5215720000000  0.2932700000000 1.0
C      1  0.7281170000000  0.5095160000000  0.5176630000000 1.0
C      1  0.4322800000000  0.4950520000000  0.6575010000000 1.0
C      1  0.3818470000000  0.3076250000000  0.6194570000000 1.0
C      1  0.3907000000000  0.4185380000000  0.5978240000000 1.0
C      1  0.4208260000000  0.5750880000000  0.7319090000000 1.0
C      1  0.3462870000000  0.5684540000000  0.6564370000000 1.0
C      1  0.6944190000000  0.4222500000000  0.5219420000000 1.0
C      1  0.5627000000000  0.4285980000000  0.3010430000000 1.0
C      1  0.6092920000000  0.2596610000000  0.4688090000000 1.0
C      1  0.4818650000000  0.2850960000000  0.3883270000000 1.0
C      1  0.2811590000000  0.5464300000000  0.5935270000000 1.0
C      1  0.4363910000000  0.3819070000000  0.5088730000000 1.0
C      1  0.8047440000000  0.3646020000000  0.3999230000000 1.0
C      1  0.5906030000000  0.7988170000000  0.4926320000000 1.0
C      1  0.4241470000000  0.7485820000000  0.5009200000000 1.0
C      1  0.5736160000000  0.3180000000000  0.6193400000000 1.0
C      1  0.4460800000000  0.2986230000000  0.4710440000000 1.0
C      1  0.5744120000000  0.3195530000000  0.3319160000000 1.0
C      1  0.4421240000000  0.7201400000000  0.5902440000000 1.0
C      1  0.6624350000000  0.5094470000000  0.3367740000000 1.0
C      1  0.5628000000000  0.4223910000000  0.4702120000000 1.0
C      1  0.3384190000000  0.4155860000000  0.4249550000000 1.0
C      1  0.5628150000000  0.6356000000000  0.8059550000000 1.0
C      1  0.4727110000000  0.3297480000000  0.6550820000000 1.0
C      1  0.4915810000000  0.5692060000000  0.5534670000000 1.0
C      1  0.6614160000000  0.7391550000000  0.4957770000000 1.0
C      1  0.5683830000000  0.3255940000000  0.5163080000000 1.0
C      1  0.7166270000000  0.3686020000000  0.4257390000000 1.0
C      1  0.4644760000000  0.4554480000000  0.4410140000000 1.0
C      1  0.6076660000000  0.4240520000000  0.5952110000000 1.0
C      1  0.4713980000000  0.3663150000000  0.3151750000000 1.0
C      1  0.2983540000000  0.3319540000000  0.5594280000000 1.0
C      1  0.6015750000000  0.6497810000000  0.3754270000000 1.0
C      1  0.4775510000000  0.6050620000000  0.7965430000000 1.0
C      1  0.3409250000000  0.4830990000000  0.4927650000000 1.0
C      1  0.5747160000000  0.5144600000000  0.5341930000000 1.0
C      1  0.5107140000000  0.4278800000000  0.6540260000000 1.0
C      1  0.3752730000000  0.6799550000000  0.4474720000000 1.0
C      1  0.2826010000000  0.4420470000000  0.5782500000000 1.0
C      1  0.3001680000000  0.6219620000000  0.4358080000000 1.0
C      1  0.6154640000000  0.6611540000000  0.7355250000000 1.0
C      1  0.4525350000000  0.5422220000000  0.3834410000000 1.0
C      1  0.5990490000000  0.5727750000000  0.3199190000000 1.0
C      1  0.6305910000000  0.4243310000000  0.3920630000000 1.0
C      1  0.5074400000000  0.5245920000000  0.2905640000000 1.0
C      1  0.4066760000000  0.5457930000000  0.5193940000000 1.0
C      1  0.5051400000000  0.6494640000000  0.6017360000000 1.0
C      1  0.4472020000000  0.6397330000000  0.3995240000000 1.0
C      1  0.6497820000000  0.2926520000000  0.3930990000000 1.0
C      1  0.3977430000000  0.4275650000000  0.3436000000000 1.0
END
