TITL C-3036481-494-174 4.10495561729569e-06 3375 -340.493916351435 0 0 60 (Td) n - 1
REM
REM in /home/bkarasulu/work/CARBON/AIRSS/Generating-Clusters/REBO/Higher-Symm/Only-C60
REM
REM
REM
REM
REM
REM ./C.cell (a2850807a9bf4ad07a5b6933b78d9264)
REM AIRSS Version 0.9.1 bugfix July 2018 build 013d7b7c2542+ Fri, 06 Jul 2018 19:26:36 +0100
REM compiler GCC version 9.2.1 20190827 (Red Hat 9.2.1-1)
REM options -cpp -mtune=generic -march=x86-64 -g -O0 -fpre-include=/usr/include/finclude/math-vector-fortran.h
REM seed 380051492 -1964791638 1797158801 -1821266491 -1800382094 -1977483038 -351278294 848301114 -1514248481 1641101264 514021303 1954695279 -1346907294 1290404639 -1120459898 -1697337674 2137641071 828480793 -1130891825 1700747097 1333178385 -2123390516 1940795893 -1733418784 2127281395 647998760 -219641153 1877578005 814742948 1611890024 1761008171 56141232 3282015
REM
CELL 1.54180   15.00000   15.00000   15.00000   90.00000   90.00000   90.00000
LATT -1
SFAC C  
C      1  0.4948310000000  0.5785280000000  0.2913680000000 1.0
C      1  0.2913680000000  0.4948310000000  0.5785280000000 1.0
C      1  0.5785280000000  0.2913680000000  0.4948310000000 1.0
C      1  0.5051690000000  0.5785280000000  0.7086320000000 1.0
C      1  0.4948310000000  0.4214720000000  0.7086320000000 1.0
C      1  0.5051690000000  0.4214720000000  0.2913680000000 1.0
C      1  0.7086320000000  0.4948310000000  0.4214720000000 1.0
C      1  0.2913680000000  0.5051690000000  0.4214720000000 1.0
C      1  0.7086320000000  0.5051690000000  0.5785280000000 1.0
C      1  0.4214720000000  0.2913680000000  0.5051690000000 1.0
C      1  0.5785280000000  0.7086320000000  0.5051690000000 1.0
C      1  0.4214720000000  0.7086320000000  0.4948310000000 1.0
C      1  0.2913680000000  0.5785280000000  0.4948310000000 1.0
C      1  0.5785280000000  0.4948310000000  0.2913680000000 1.0
C      1  0.4948310000000  0.2913680000000  0.5785280000000 1.0
C      1  0.7086320000000  0.5785280000000  0.5051690000000 1.0
C      1  0.7086320000000  0.4214720000000  0.4948310000000 1.0
C      1  0.2913680000000  0.4214720000000  0.5051690000000 1.0
C      1  0.4214720000000  0.4948310000000  0.7086320000000 1.0
C      1  0.4214720000000  0.5051690000000  0.2913680000000 1.0
C      1  0.5785280000000  0.5051690000000  0.7086320000000 1.0
C      1  0.5051690000000  0.2913680000000  0.4214720000000 1.0
C      1  0.5051690000000  0.7086320000000  0.5785280000000 1.0
C      1  0.4948310000000  0.7086320000000  0.4214720000000 1.0
C      1  0.3495440000000  0.5796490000000  0.7171700000000 1.0
C      1  0.7171700000000  0.3495440000000  0.5796490000000 1.0
C      1  0.5796490000000  0.7171700000000  0.3495440000000 1.0
C      1  0.6504560000000  0.5796490000000  0.2828300000000 1.0
C      1  0.3495440000000  0.4203510000000  0.2828300000000 1.0
C      1  0.6504560000000  0.4203510000000  0.7171700000000 1.0
C      1  0.2828300000000  0.3495440000000  0.4203510000000 1.0
C      1  0.7171700000000  0.6504560000000  0.4203510000000 1.0
C      1  0.2828300000000  0.6504560000000  0.5796490000000 1.0
C      1  0.4203510000000  0.7171700000000  0.6504560000000 1.0
C      1  0.5796490000000  0.2828300000000  0.6504560000000 1.0
C      1  0.4203510000000  0.2828300000000  0.3495440000000 1.0
C      1  0.7171700000000  0.5796490000000  0.3495440000000 1.0
C      1  0.5796490000000  0.3495440000000  0.7171700000000 1.0
C      1  0.3495440000000  0.7171700000000  0.5796490000000 1.0
C      1  0.2828300000000  0.5796490000000  0.6504560000000 1.0
C      1  0.2828300000000  0.4203510000000  0.3495440000000 1.0
C      1  0.7171700000000  0.4203510000000  0.6504560000000 1.0
C      1  0.4203510000000  0.3495440000000  0.2828300000000 1.0
C      1  0.4203510000000  0.6504560000000  0.7171700000000 1.0
C      1  0.5796490000000  0.6504560000000  0.2828300000000 1.0
C      1  0.6504560000000  0.7171700000000  0.4203510000000 1.0
C      1  0.6504560000000  0.2828300000000  0.5796490000000 1.0
C      1  0.3495440000000  0.2828300000000  0.4203510000000 1.0
C      1  0.3950800000000  0.6049200000000  0.5246200000000 1.0
C      1  0.5246200000000  0.3950800000000  0.6049200000000 1.0
C      1  0.6049200000000  0.5246200000000  0.3950800000000 1.0
C      1  0.6049200000000  0.3950800000000  0.5246200000000 1.0
C      1  0.4753800000000  0.3950800000000  0.3950800000000 1.0
C      1  0.5246200000000  0.6049200000000  0.3950800000000 1.0
C      1  0.4753800000000  0.6049200000000  0.6049200000000 1.0
C      1  0.3950800000000  0.5246200000000  0.6049200000000 1.0
C      1  0.6049200000000  0.4753800000000  0.6049200000000 1.0
C      1  0.3950800000000  0.4753800000000  0.3950800000000 1.0
C      1  0.6049200000000  0.6049200000000  0.4753800000000 1.0
C      1  0.3950800000000  0.3950800000000  0.4753800000000 1.0
END
