TITL C-3036481-494-36 -0.0325798649767555 3375 -315.868264560566 0 0 60 (Th) n - 1
REM
REM in /home/bkarasulu/work/CARBON/AIRSS/Generating-Clusters/REBO/Higher-Symm/Only-C60
REM
REM
REM
REM
REM
REM ./C.cell (a2850807a9bf4ad07a5b6933b78d9264)
REM AIRSS Version 0.9.1 bugfix July 2018 build 013d7b7c2542+ Fri, 06 Jul 2018 19:26:36 +0100
REM compiler GCC version 9.2.1 20190827 (Red Hat 9.2.1-1)
REM options -cpp -mtune=generic -march=x86-64 -g -O0 -fpre-include=/usr/include/finclude/math-vector-fortran.h
REM seed 882983499 1435920647 -2047723836 -1254894845 1391549571 -72060477 155344981 1732987104 1110675821 288349346 -19922396 -1883081125 1045880981 -1656041099 1055830020 1314164257 839899158 1770230929 1782204753 624387461 -376756019 37439995 -1469300907 385922934 1631178165 2094944762 1343511617 -976004247 -1858420647 2104437096 843683767 -1435248710 300869617
REM
CELL 1.54180   15.00000   15.00000   15.00000   90.00000   90.00000   90.00000
LATT -1
SFAC C  
C      1  0.5532060000000  0.6553120000000  0.2854200000000 1.0
C      1  0.2854310000000  0.5532760000000  0.6553810000000 1.0
C      1  0.6550840000000  0.2854420000000  0.5529560000000 1.0
C      1  0.4466050000000  0.6554920000000  0.7145800000000 1.0
C      1  0.5534800000000  0.3443920000000  0.7145240000000 1.0
C      1  0.4466460000000  0.3445190000000  0.2854940000000 1.0
C      1  0.7145660000000  0.5534210000000  0.3444720000000 1.0
C      1  0.2854820000000  0.4466770000000  0.3445470000000 1.0
C      1  0.7145360000000  0.4465840000000  0.6555370000000 1.0
C      1  0.3448610000000  0.2854610000000  0.4469860000000 1.0
C      1  0.6558400000000  0.7145450000000  0.4462610000000 1.0
C      1  0.3441670000000  0.7145480000000  0.5537220000000 1.0
C      1  0.5533670000000  0.3445280000000  0.2854260000000 1.0
C      1  0.2854480000000  0.4465580000000  0.6555440000000 1.0
C      1  0.6551110000000  0.7145450000000  0.5529740000000 1.0
C      1  0.4467630000000  0.3446670000000  0.7145910000000 1.0
C      1  0.5533200000000  0.6554570000000  0.7145170000000 1.0
C      1  0.4464880000000  0.6556320000000  0.2854910000000 1.0
C      1  0.7145800000000  0.4467020000000  0.3446040000000 1.0
C      1  0.2854680000000  0.5533980000000  0.3444750000000 1.0
C      1  0.7145240000000  0.5532980000000  0.6554350000000 1.0
C      1  0.3448900000000  0.7145640000000  0.4470060000000 1.0
C      1  0.6558590000000  0.2854630000000  0.4462420000000 1.0
C      1  0.3441840000000  0.2854560000000  0.5537040000000 1.0
C      1  0.5569610000000  0.7520930000000  0.4433210000000 1.0
C      1  0.4432540000000  0.5567550000000  0.7521840000000 1.0
C      1  0.7521420000000  0.4432920000000  0.5567580000000 1.0
C      1  0.4430460000000  0.7521020000000  0.5566830000000 1.0
C      1  0.5564240000000  0.2477540000000  0.5567880000000 1.0
C      1  0.4435620000000  0.2477840000000  0.4432500000000 1.0
C      1  0.5568190000000  0.5566230000000  0.2477760000000 1.0
C      1  0.4433140000000  0.4433580000000  0.2478710000000 1.0
C      1  0.5566470000000  0.4432390000000  0.7521210000000 1.0
C      1  0.2478540000000  0.4432720000000  0.4433310000000 1.0
C      1  0.7521690000000  0.5567010000000  0.4432760000000 1.0
C      1  0.2477970000000  0.5567640000000  0.5566260000000 1.0
C      1  0.5569490000000  0.2479150000000  0.4433170000000 1.0
C      1  0.4432380000000  0.4433610000000  0.7522200000000 1.0
C      1  0.7521540000000  0.5567050000000  0.5566760000000 1.0
C      1  0.4430460000000  0.2478960000000  0.5567230000000 1.0
C      1  0.5564410000000  0.7522290000000  0.5567460000000 1.0
C      1  0.4435650000000  0.7522390000000  0.4432520000000 1.0
C      1  0.5568060000000  0.4432590000000  0.2478090000000 1.0
C      1  0.4433290000000  0.5567470000000  0.2478960000000 1.0
C      1  0.5566590000000  0.5566550000000  0.7521430000000 1.0
C      1  0.2478520000000  0.5567540000000  0.4432510000000 1.0
C      1  0.7522010000000  0.4432750000000  0.4433620000000 1.0
C      1  0.2478440000000  0.4432840000000  0.5567140000000 1.0
C      1  0.6463690000000  0.4999730000000  0.2747990000000 1.0
C      1  0.3536300000000  0.5000240000000  0.7251970000000 1.0
C      1  0.4998820000000  0.2748020000000  0.6463360000000 1.0
C      1  0.5001130000000  0.7251940000000  0.3536720000000 1.0
C      1  0.3537310000000  0.5000220000000  0.2748060000000 1.0
C      1  0.6462970000000  0.4999750000000  0.7251930000000 1.0
C      1  0.2748020000000  0.6463330000000  0.4999740000000 1.0
C      1  0.5001110000000  0.2748060000000  0.3536940000000 1.0
C      1  0.4998840000000  0.7251960000000  0.6463290000000 1.0
C      1  0.7251950000000  0.6463260000000  0.4999840000000 1.0
C      1  0.2748050000000  0.3536940000000  0.5000110000000 1.0
C      1  0.7251950000000  0.3536650000000  0.5000210000000 1.0
END
