TITL C-3036480-97-417 0.0591508481336332 3375 -338.557487174523 0 0 60 (C1) n - 1
REM
REM in /home/bkarasulu/work/CARBON/AIRSS/Generating-Clusters/REBO/Higher-Symm/Only-C60
REM
REM
REM
REM
REM
REM ./C.cell (a2850807a9bf4ad07a5b6933b78d9264)
REM AIRSS Version 0.9.1 bugfix July 2018 build 013d7b7c2542+ Fri, 06 Jul 2018 19:26:36 +0100
REM compiler GCC version 9.2.1 20190827 (Red Hat 9.2.1-1)
REM options -cpp -mtune=generic -march=x86-64 -g -O0 -fpre-include=/usr/include/finclude/math-vector-fortran.h
REM seed -944503363 -469244612 2131407601 1455658964 -1133058024 704819179 62109935 1070021693 -1039803283 743352997 1854719718 713085912 1148909571 -983376199 354131451 1597403250 -1221419658 -1877122170 1557983594 -1363899551 1445464446 530748657 1871807552 1434259400 -1185715564 -64265888 -1727108089 870006538 -1915357099 -629725987 375128088 -507396607 -1835349708
REM
CELL 1.54180   15.00000   15.00000   15.00000   90.00000   90.00000   90.00000
LATT -1
SFAC C  
C      1  0.5732850000000  0.5762280000000  0.4942970000000 1.0
C      1  0.5650300000000  0.4034600000000  0.5299740000000 1.0
C      1  0.4147140000000  0.4740460000000  0.3128010000000 1.0
C      1  0.5007430000000  0.5395170000000  0.3049740000000 1.0
C      1  0.3916280000000  0.7069390000000  0.4239330000000 1.0
C      1  0.4948610000000  0.5115550000000  0.7319150000000 1.0
C      1  0.4703500000000  0.3608380000000  0.5656490000000 1.0
C      1  0.6627210000000  0.4857510000000  0.2745530000000 1.0
C      1  0.6616300000000  0.4351110000000  0.6594440000000 1.0
C      1  0.4939980000000  0.4073980000000  0.6878100000000 1.0
C      1  0.6631980000000  0.3716600000000  0.5654840000000 1.0
C      1  0.6917390000000  0.3946010000000  0.4657130000000 1.0
C      1  0.4247140000000  0.3677760000000  0.3054570000000 1.0
C      1  0.4723590000000  0.6348180000000  0.3475070000000 1.0
C      1  0.4741360000000  0.4495180000000  0.3982520000000 1.0
C      1  0.3384180000000  0.3150640000000  0.6679790000000 1.0
C      1  0.7045890000000  0.5371980000000  0.6669720000000 1.0
C      1  0.3479210000000  0.6410230000000  0.5032710000000 1.0
C      1  0.4280180000000  0.5959080000000  0.4417340000000 1.0
C      1  0.4451980000000  0.3059880000000  0.3565870000000 1.0
C      1  0.2650140000000  0.3548460000000  0.6318770000000 1.0
C      1  0.6319200000000  0.3588710000000  0.4055870000000 1.0
C      1  0.4061370000000  0.5649830000000  0.5688690000000 1.0
C      1  0.7120400000000  0.6205660000000  0.6292390000000 1.0
C      1  0.5889660000000  0.2889280000000  0.5926900000000 1.0
C      1  0.7460790000000  0.5439680000000  0.5047350000000 1.0
C      1  0.6198580000000  0.4161590000000  0.2037300000000 1.0
C      1  0.3296920000000  0.5520880000000  0.6517820000000 1.0
C      1  0.5923570000000  0.7125620000000  0.3822450000000 1.0
C      1  0.4994750000000  0.6567110000000  0.7436200000000 1.0
C      1  0.6720080000000  0.5248840000000  0.3656240000000 1.0
C      1  0.5656210000000  0.5498210000000  0.3900510000000 1.0
C      1  0.3683220000000  0.6685000000000  0.3227940000000 1.0
C      1  0.3095470000000  0.6017210000000  0.3054070000000 1.0
C      1  0.7233240000000  0.4794700000000  0.4426650000000 1.0
C      1  0.6432840000000  0.6314390000000  0.3957020000000 1.0
C      1  0.4808860000000  0.6400420000000  0.6133140000000 1.0
C      1  0.2938200000000  0.4958420000000  0.4290020000000 1.0
C      1  0.2625770000000  0.5204890000000  0.5853880000000 1.0
C      1  0.3071460000000  0.4131690000000  0.4813880000000 1.0
C      1  0.4253570000000  0.4960690000000  0.4789770000000 1.0
C      1  0.5315670000000  0.3764680000000  0.4298990000000 1.0
C      1  0.4206130000000  0.5906860000000  0.6986820000000 1.0
C      1  0.6033860000000  0.5208600000000  0.7065950000000 1.0
C      1  0.4054270000000  0.3828110000000  0.4898070000000 1.0
C      1  0.6776540000000  0.6203020000000  0.5011210000000 1.0
C      1  0.5328510000000  0.2483290000000  0.5323980000000 1.0
C      1  0.3263430000000  0.5158280000000  0.3415040000000 1.0
C      1  0.4760100000000  0.2885960000000  0.4558080000000 1.0
C      1  0.5264050000000  0.6709900000000  0.5202430000000 1.0
C      1  0.5029070000000  0.7090640000000  0.4294540000000 1.0
C      1  0.5836780000000  0.3613900000000  0.6697860000000 1.0
C      1  0.5529100000000  0.4999670000000  0.5529120000000 1.0
C      1  0.5641740000000  0.5031860000000  0.2356970000000 1.0
C      1  0.5719040000000  0.6199380000000  0.6789020000000 1.0
C      1  0.4807800000000  0.4992650000000  0.6222710000000 1.0
C      1  0.4263840000000  0.3371890000000  0.6529120000000 1.0
C      1  0.2613160000000  0.4234440000000  0.5681600000000 1.0
C      1  0.6174880000000  0.6617290000000  0.5863600000000 1.0
C      1  0.2755240000000  0.5644320000000  0.4984980000000 1.0
END
