TITL C-3036479-9801-489 -0.0198241493096406 3375 -333.679479492175 0 0 60 (Cs) n - 1
REM
REM in /home/bkarasulu/work/CARBON/AIRSS/Generating-Clusters/REBO/Higher-Symm/Only-C60
REM
REM
REM
REM
REM
REM ./C.cell (a2850807a9bf4ad07a5b6933b78d9264)
REM AIRSS Version 0.9.1 bugfix July 2018 build 013d7b7c2542+ Fri, 06 Jul 2018 19:26:36 +0100
REM compiler GCC version 9.2.1 20190827 (Red Hat 9.2.1-1)
REM options -cpp -mtune=generic -march=x86-64 -g -O0 -fpre-include=/usr/include/finclude/math-vector-fortran.h
REM seed 2035795633 -1695078782 -259439501 331337403 1977706885 1663241478 408230894 -279868665 -1240134656 -1724166038 1262318725 805261784 -1762945876 -1236538296 -14249578 -1152199261 1856481224 1324727659 -1393648504 264153421 819430176 -368826405 61592480 -72851520 -751953507 1139065273 91667962 120009046 -124475075 471773434 -105084966 -567094602 29611878
REM
CELL 1.54180   15.00000   15.00000   15.00000   90.00000   90.00000   90.00000
LATT -1
SFAC C  
C      1  0.3795440000000  0.6942830000000  0.5270800000000 1.0
C      1  0.3795420000000  0.3065770000000  0.5270780000000 1.0
C      1  0.4801360000000  0.6470060000000  0.6632720000000 1.0
C      1  0.4801360000000  0.3538550000000  0.6632710000000 1.0
C      1  0.6597610000000  0.4084010000000  0.3622990000000 1.0
C      1  0.6597690000000  0.5924550000000  0.3622980000000 1.0
C      1  0.6300890000000  0.6992220000000  0.5103690000000 1.0
C      1  0.6300890000000  0.3016360000000  0.5103680000000 1.0
C      1  0.3621430000000  0.3970830000000  0.3365130000000 1.0
C      1  0.3621460000000  0.6037760000000  0.3365140000000 1.0
C      1  0.6409210000000  0.3171740000000  0.3978640000000 1.0
C      1  0.6409320000000  0.6836930000000  0.3978590000000 1.0
C      1  0.6004850000000  0.5503920000000  0.2899930000000 1.0
C      1  0.6004810000000  0.4504630000000  0.2899960000000 1.0
C      1  0.3979710000000  0.5901110000000  0.4945810000000 1.0
C      1  0.3979640000000  0.4107440000000  0.4945810000000 1.0
C      1  0.5495970000000  0.7199180000000  0.3669530000000 1.0
C      1  0.5496000000000  0.2809360000000  0.3669500000000 1.0
C      1  0.4629850000000  0.2793230000000  0.4189860000000 1.0
C      1  0.4629830000000  0.7215460000000  0.4189830000000 1.0
C      1  0.3868290000000  0.3580350000000  0.6497810000000 1.0
C      1  0.3868310000000  0.6428250000000  0.6497830000000 1.0
C      1  0.4923810000000  0.5931580000000  0.5442980000000 1.0
C      1  0.4923770000000  0.4076990000000  0.5443000000000 1.0
C      1  0.5367010000000  0.3073220000000  0.5758560000000 1.0
C      1  0.5367000000000  0.6935370000000  0.5758590000000 1.0
C      1  0.7207970000000  0.6688320000000  0.5577450000000 1.0
C      1  0.7207940000000  0.3320260000000  0.5577450000000 1.0
C      1  0.7322230000000  0.6439780000000  0.6548700000000 1.0
C      1  0.7322220000000  0.3568790000000  0.6548700000000 1.0
C      1  0.4031810000000  0.3540540000000  0.4048510000000 1.0
C      1  0.4031860000000  0.6468120000000  0.4048490000000 1.0
C      1  0.4626610000000  0.7438980000000  0.5171500000000 1.0
C      1  0.4626620000000  0.2569640000000  0.5171470000000 1.0
C      1  0.5173510000000  0.4400460000000  0.6993200000000 1.0
C      1  0.5173520000000  0.5608140000000  0.6993210000000 1.0
C      1  0.6713050000000  0.4273380000000  0.5175290000000 1.0
C      1  0.6713070000000  0.5735200000000  0.5175290000000 1.0
C      1  0.6762540000000  0.5658710000000  0.6268080000000 1.0
C      1  0.6762540000000  0.4349860000000  0.6268080000000 1.0
C      1  0.4955150000000  0.4258700000000  0.2911870000000 1.0
C      1  0.4955180000000  0.5749880000000  0.2911830000000 1.0
C      1  0.5300600000000  0.6111760000000  0.3847260000000 1.0
C      1  0.5300690000000  0.3896780000000  0.3847260000000 1.0
C      1  0.2662150000000  0.4203890000000  0.5087100000000 1.0
C      1  0.2662170000000  0.5804730000000  0.5087090000000 1.0
C      1  0.5729960000000  0.6073610000000  0.4817850000000 1.0
C      1  0.5730100000000  0.3934690000000  0.4817860000000 1.0
C      1  0.3207800000000  0.4077370000000  0.6013540000000 1.0
C      1  0.3207800000000  0.5931250000000  0.6013540000000 1.0
C      1  0.3633760000000  0.5004300000000  0.5506670000000 1.0
C      1  0.6571690000000  0.5004290000000  0.4311290000000 1.0
C      1  0.4347980000000  0.5004290000000  0.2955470000000 1.0
C      1  0.4960950000000  0.5004430000000  0.5000710000000 1.0
C      1  0.4466950000000  0.5004300000000  0.7567810000000 1.0
C      1  0.3743190000000  0.5004300000000  0.8030130000000 1.0
C      1  0.3363870000000  0.5004320000000  0.3549630000000 1.0
C      1  0.5446590000000  0.5004360000000  0.4088440000000 1.0
C      1  0.2758050000000  0.5004320000000  0.4509250000000 1.0
C      1  0.6060430000000  0.5004300000000  0.6694170000000 1.0
END
