TITL C-3036483-1610-325 1.99760205978973e-06 3375 -329.262617166846 0 0 60 (Td) n - 1
REM
REM in /home/bkarasulu/work/CARBON/AIRSS/Generating-Clusters/REBO/Higher-Symm/Only-C60
REM
REM
REM
REM
REM
REM ./C.cell (a2850807a9bf4ad07a5b6933b78d9264)
REM AIRSS Version 0.9.1 bugfix July 2018 build 013d7b7c2542+ Fri, 06 Jul 2018 19:26:36 +0100
REM compiler GCC version 9.2.1 20190827 (Red Hat 9.2.1-1)
REM options -cpp -mtune=generic -march=x86-64 -g -O0 -fpre-include=/usr/include/finclude/math-vector-fortran.h
REM seed 1203182223 -480008613 -949905350 -1799902701 -1199707244 1470835081 -1328493915 -2067132838 2009536666 -832451198 296130743 1875289398 -1873444518 102403528 -1349630205 1311776197 1293685975 -369762905 78733567 254424794 2501147 242771525 1759426567 -517386338 -729306032 1021169693 1525719909 323262684 1409487554 2138838619 1104446242 -1449574635 145728475
REM
CELL 1.54180   15.00000   15.00000   15.00000   90.00000   90.00000   90.00000
LATT -1
SFAC C  
C      1  0.4253630000000  0.3545850000000  0.5027580000000 1.0
C      1  0.5027580000000  0.4253630000000  0.3545850000000 1.0
C      1  0.3545850000000  0.5027580000000  0.4253630000000 1.0
C      1  0.5746370000000  0.6454150000000  0.5027580000000 1.0
C      1  0.5746370000000  0.3545850000000  0.4972420000000 1.0
C      1  0.4253630000000  0.6454150000000  0.4972420000000 1.0
C      1  0.4972420000000  0.5746370000000  0.3545850000000 1.0
C      1  0.4972420000000  0.4253630000000  0.6454150000000 1.0
C      1  0.5027580000000  0.5746370000000  0.6454150000000 1.0
C      1  0.6454150000000  0.4972420000000  0.4253630000000 1.0
C      1  0.6454150000000  0.5027580000000  0.5746370000000 1.0
C      1  0.3545850000000  0.4972420000000  0.5746370000000 1.0
C      1  0.3545850000000  0.4253630000000  0.5027580000000 1.0
C      1  0.4253630000000  0.5027580000000  0.3545850000000 1.0
C      1  0.5027580000000  0.3545850000000  0.4253630000000 1.0
C      1  0.6454150000000  0.5746370000000  0.5027580000000 1.0
C      1  0.3545850000000  0.5746370000000  0.4972420000000 1.0
C      1  0.6454150000000  0.4253630000000  0.4972420000000 1.0
C      1  0.5746370000000  0.4972420000000  0.3545850000000 1.0
C      1  0.4253630000000  0.4972420000000  0.6454150000000 1.0
C      1  0.5746370000000  0.5027580000000  0.6454150000000 1.0
C      1  0.4972420000000  0.6454150000000  0.4253630000000 1.0
C      1  0.5027580000000  0.6454150000000  0.5746370000000 1.0
C      1  0.4972420000000  0.3545850000000  0.5746370000000 1.0
C      1  0.5564100000000  0.3631230000000  0.7171030000000 1.0
C      1  0.7171030000000  0.5564100000000  0.3631230000000 1.0
C      1  0.3631230000000  0.7171030000000  0.5564100000000 1.0
C      1  0.4435900000000  0.6368770000000  0.7171030000000 1.0
C      1  0.4435900000000  0.3631230000000  0.2828970000000 1.0
C      1  0.5564100000000  0.6368770000000  0.2828970000000 1.0
C      1  0.2828970000000  0.4435900000000  0.3631230000000 1.0
C      1  0.2828970000000  0.5564100000000  0.6368770000000 1.0
C      1  0.7171030000000  0.4435900000000  0.6368770000000 1.0
C      1  0.6368770000000  0.2828970000000  0.5564100000000 1.0
C      1  0.6368770000000  0.7171030000000  0.4435900000000 1.0
C      1  0.3631230000000  0.2828970000000  0.4435900000000 1.0
C      1  0.3631230000000  0.5564100000000  0.7171030000000 1.0
C      1  0.5564100000000  0.7171030000000  0.3631230000000 1.0
C      1  0.7171030000000  0.3631230000000  0.5564100000000 1.0
C      1  0.6368770000000  0.4435900000000  0.7171030000000 1.0
C      1  0.3631230000000  0.4435900000000  0.2828970000000 1.0
C      1  0.6368770000000  0.5564100000000  0.2828970000000 1.0
C      1  0.4435900000000  0.2828970000000  0.3631230000000 1.0
C      1  0.5564100000000  0.2828970000000  0.6368770000000 1.0
C      1  0.4435900000000  0.7171030000000  0.6368770000000 1.0
C      1  0.2828970000000  0.6368770000000  0.5564100000000 1.0
C      1  0.7171030000000  0.6368770000000  0.4435900000000 1.0
C      1  0.2828970000000  0.3631230000000  0.4435900000000 1.0
C      1  0.4652730000000  0.4652730000000  0.2334750000000 1.0
C      1  0.2334750000000  0.4652730000000  0.4652730000000 1.0
C      1  0.4652730000000  0.2334750000000  0.4652730000000 1.0
C      1  0.5347270000000  0.5347270000000  0.2334750000000 1.0
C      1  0.5347270000000  0.4652730000000  0.7665250000000 1.0
C      1  0.4652730000000  0.5347270000000  0.7665250000000 1.0
C      1  0.7665250000000  0.5347270000000  0.4652730000000 1.0
C      1  0.7665250000000  0.4652730000000  0.5347270000000 1.0
C      1  0.2334750000000  0.5347270000000  0.5347270000000 1.0
C      1  0.5347270000000  0.7665250000000  0.4652730000000 1.0
C      1  0.5347270000000  0.2334750000000  0.5347270000000 1.0
C      1  0.4652730000000  0.7665250000000  0.5347270000000 1.0
END
