TITL C-3036483-1610-640 1.18125366337998e-05 3375 -330.904920081656 0 0 60 (C2) n - 1
REM
REM in /home/bkarasulu/work/CARBON/AIRSS/Generating-Clusters/REBO/Higher-Symm/Only-C60
REM
REM
REM
REM
REM
REM ./C.cell (a2850807a9bf4ad07a5b6933b78d9264)
REM AIRSS Version 0.9.1 bugfix July 2018 build 013d7b7c2542+ Fri, 06 Jul 2018 19:26:36 +0100
REM compiler GCC version 9.2.1 20190827 (Red Hat 9.2.1-1)
REM options -cpp -mtune=generic -march=x86-64 -g -O0 -fpre-include=/usr/include/finclude/math-vector-fortran.h
REM seed 1378213757 2113432667 -769485993 -765870514 -1988977426 -756701860 -685036690 351761664 1668888553 -1794010995 -777078115 -1800178065 -1583138061 -2108720727 -1996248637 -620658706 -1926725192 1500383025 69269832 -1249557875 -1299068791 2111410929 -867438634 -1164240520 1727726136 1485793933 -1914562293 25590455 376634442 307560678 -549149218 -1387418319 -2085027130
REM
CELL 1.54180   15.00000   15.00000   15.00000   90.00000   90.00000   90.00000
LATT -1
SFAC C  
C      1  0.3416950000000  0.6481590000000  0.5519810000000 1.0
C      1  0.3416970000000  0.3518410000000  0.4480130000000 1.0
C      1  0.3609300000000  0.3241840000000  0.5554230000000 1.0
C      1  0.3609320000000  0.6758160000000  0.4445730000000 1.0
C      1  0.6362960000000  0.5520260000000  0.3911380000000 1.0
C      1  0.6362930000000  0.4479750000000  0.6088660000000 1.0
C      1  0.6409680000000  0.4461310000000  0.4196530000000 1.0
C      1  0.6409660000000  0.5538690000000  0.5803510000000 1.0
C      1  0.5449600000000  0.4646840000000  0.5565240000000 1.0
C      1  0.5449610000000  0.5353170000000  0.4434780000000 1.0
C      1  0.5396170000000  0.5743060000000  0.5393200000000 1.0
C      1  0.5396180000000  0.4256940000000  0.4606820000000 1.0
C      1  0.4955590000000  0.6633330000000  0.3746880000000 1.0
C      1  0.4955560000000  0.3366670000000  0.6253120000000 1.0
C      1  0.4845150000000  0.3392430000000  0.3764130000000 1.0
C      1  0.4845100000000  0.6607570000000  0.6235870000000 1.0
C      1  0.4257760000000  0.7162660000000  0.5529600000000 1.0
C      1  0.4257790000000  0.2837340000000  0.4470380000000 1.0
C      1  0.4539540000000  0.2682980000000  0.5514050000000 1.0
C      1  0.4539560000000  0.7317030000000  0.4485940000000 1.0
C      1  0.4629060000000  0.4504380000000  0.3834680000000 1.0
C      1  0.4629020000000  0.5495620000000  0.6165310000000 1.0
C      1  0.4620890000000  0.5580630000000  0.3804320000000 1.0
C      1  0.4620860000000  0.4419370000000  0.6195670000000 1.0
C      1  0.3207140000000  0.4634200000000  0.4445670000000 1.0
C      1  0.3207120000000  0.5365800000000  0.5554260000000 1.0
C      1  0.3245540000000  0.5683550000000  0.4466690000000 1.0
C      1  0.3245520000000  0.4316450000000  0.5533250000000 1.0
C      1  0.3427770000000  0.4067210000000  0.3488320000000 1.0
C      1  0.3427720000000  0.5932780000000  0.6511620000000 1.0
C      1  0.3486480000000  0.6195160000000  0.3489030000000 1.0
C      1  0.3486430000000  0.3804850000000  0.6510920000000 1.0
C      1  0.5128250000000  0.5594950000000  0.2221780000000 1.0
C      1  0.5128160000000  0.4405050000000  0.7778230000000 1.0
C      1  0.5241770000000  0.4602590000000  0.2443430000000 1.0
C      1  0.5241680000000  0.5397410000000  0.7556570000000 1.0
C      1  0.5263710000000  0.6466750000000  0.7211950000000 1.0
C      1  0.5263780000000  0.3533240000000  0.2788060000000 1.0
C      1  0.5253950000000  0.3403560000000  0.7282510000000 1.0
C      1  0.5254040000000  0.6596430000000  0.2717510000000 1.0
C      1  0.6279010000000  0.6618020000000  0.3190840000000 1.0
C      1  0.6278930000000  0.3381970000000  0.6809190000000 1.0
C      1  0.6147650000000  0.3394470000000  0.3485150000000 1.0
C      1  0.6147590000000  0.6605530000000  0.6514890000000 1.0
C      1  0.6566640000000  0.6543740000000  0.4286580000000 1.0
C      1  0.6566630000000  0.3456260000000  0.5713460000000 1.0
C      1  0.6407100000000  0.3399050000000  0.4594770000000 1.0
C      1  0.6407080000000  0.6600950000000  0.5405280000000 1.0
C      1  0.6158930000000  0.5533060000000  0.6902710000000 1.0
C      1  0.6159000000000  0.4466940000000  0.3097330000000 1.0
C      1  0.6087090000000  0.4436980000000  0.7187990000000 1.0
C      1  0.6087180000000  0.5563010000000  0.2812040000000 1.0
C      1  0.5402240000000  0.2891310000000  0.4522980000000 1.0
C      1  0.5402220000000  0.7108690000000  0.5477030000000 1.0
C      1  0.5657440000000  0.7094930000000  0.4424930000000 1.0
C      1  0.5657430000000  0.2905080000000  0.5575090000000 1.0
C      1  0.4278860000000  0.4127550000000  0.2821100000000 1.0
C      1  0.4278790000000  0.5872450000000  0.7178880000000 1.0
C      1  0.4268000000000  0.6006030000000  0.2806920000000 1.0
C      1  0.4267920000000  0.3993970000000  0.7193060000000 1.0
END
