TITL C-3036485-3770-756 4.14692988527015e-05 3375 -366.877067973533 0 0 60 (C3i) n - 1
REM
REM in /home/bkarasulu/work/CARBON/AIRSS/Generating-Clusters/REBO/Higher-Symm/Only-C60
REM
REM
REM
REM
REM
REM ./C.cell (a2850807a9bf4ad07a5b6933b78d9264)
REM AIRSS Version 0.9.1 bugfix July 2018 build 013d7b7c2542+ Fri, 06 Jul 2018 19:26:36 +0100
REM compiler GCC version 9.2.1 20190827 (Red Hat 9.2.1-1)
REM options -cpp -mtune=generic -march=x86-64 -g -O0 -fpre-include=/usr/include/finclude/math-vector-fortran.h
REM seed 1159293536 -268712633 949635835 671837953 -731656100 1188116595 -295684098 1087916706 391210421 -1110985045 836258241 -297858181 -454440516 -471324435 -1672890151 -1548620461 -1885697532 -1586196359 1231478543 1960966162 1967722784 1792750898 -773297183 694494862 119178474 1434870326 -492529498 1550542687 40880753 502563449 523082516 454698598 -1632943232
REM
CELL 1.54180   15.00000   15.00000   15.00000   90.00000   90.00000   90.00000
LATT -1
SFAC C  
C      1  0.5415880000000  0.3909110000000  0.7587340000000 1.0
C      1  0.7032410000000  0.3907450000000  0.3346820000000 1.0
C      1  0.2551690000000  0.3907730000000  0.4067130000000 1.0
C      1  0.5415880000000  0.6090890000000  0.2412660000000 1.0
C      1  0.7032410000000  0.6092550000000  0.6653180000000 1.0
C      1  0.2551690000000  0.6092270000000  0.5932870000000 1.0
C      1  0.4584120000000  0.6090890000000  0.2412660000000 1.0
C      1  0.2967590000000  0.6092550000000  0.6653180000000 1.0
C      1  0.7448310000000  0.6092270000000  0.5932870000000 1.0
C      1  0.4584120000000  0.3909110000000  0.7587340000000 1.0
C      1  0.2967590000000  0.3907450000000  0.3346820000000 1.0
C      1  0.7448310000000  0.3907730000000  0.4067130000000 1.0
C      1  0.6438610000000  0.2889990000000  0.6353570000000 1.0
C      1  0.5452210000000  0.2888680000000  0.3078690000000 1.0
C      1  0.3109150000000  0.2889680000000  0.5570340000000 1.0
C      1  0.6438610000000  0.7110010000000  0.3646430000000 1.0
C      1  0.5452210000000  0.7111320000000  0.6921310000000 1.0
C      1  0.3109150000000  0.7110320000000  0.4429660000000 1.0
C      1  0.3561390000000  0.7110010000000  0.3646430000000 1.0
C      1  0.4547790000000  0.7111320000000  0.6921310000000 1.0
C      1  0.6890850000000  0.7110320000000  0.4429660000000 1.0
C      1  0.3561390000000  0.2889990000000  0.6353570000000 1.0
C      1  0.4547790000000  0.2888680000000  0.3078690000000 1.0
C      1  0.6890850000000  0.2889680000000  0.5570340000000 1.0
C      1  0.3735300000000  0.2897330000000  0.3755490000000 1.0
C      1  0.4553810000000  0.2898520000000  0.6718710000000 1.0
C      1  0.6710920000000  0.2897640000000  0.4528300000000 1.0
C      1  0.3735300000000  0.7102670000000  0.6244510000000 1.0
C      1  0.4553810000000  0.7101480000000  0.3281290000000 1.0
C      1  0.6710920000000  0.7102360000000  0.5471700000000 1.0
C      1  0.6264700000000  0.7102670000000  0.6244510000000 1.0
C      1  0.5446190000000  0.7101480000000  0.3281290000000 1.0
C      1  0.3289080000000  0.7102360000000  0.5471700000000 1.0
C      1  0.6264700000000  0.2897330000000  0.3755490000000 1.0
C      1  0.5446190000000  0.2898520000000  0.6718710000000 1.0
C      1  0.3289080000000  0.2897640000000  0.4528300000000 1.0
C      1  0.2956060000000  0.6144210000000  0.4947940000000 1.0
C      1  0.5977260000000  0.6144950000000  0.6795360000000 1.0
C      1  0.6066630000000  0.6143540000000  0.3255300000000 1.0
C      1  0.2956060000000  0.3855790000000  0.5052060000000 1.0
C      1  0.5977260000000  0.3855050000000  0.3204640000000 1.0
C      1  0.6066630000000  0.3856460000000  0.6744700000000 1.0
C      1  0.7043940000000  0.3855790000000  0.5052060000000 1.0
C      1  0.4022740000000  0.3855050000000  0.3204640000000 1.0
C      1  0.3933370000000  0.3856460000000  0.6744700000000 1.0
C      1  0.7043940000000  0.6144210000000  0.4947940000000 1.0
C      1  0.4022740000000  0.6144950000000  0.6795360000000 1.0
C      1  0.3933370000000  0.6143540000000  0.3255300000000 1.0
C      1  0.5467760000000  0.4642440000000  0.3550520000000 1.0
C      1  0.3510650000000  0.4643140000000  0.5319870000000 1.0
C      1  0.6021570000000  0.4643460000000  0.6130050000000 1.0
C      1  0.5467760000000  0.5357560000000  0.6449480000000 1.0
C      1  0.3510650000000  0.5356860000000  0.4680130000000 1.0
C      1  0.6021570000000  0.5356540000000  0.3869950000000 1.0
C      1  0.4532240000000  0.5357560000000  0.6449480000000 1.0
C      1  0.6489350000000  0.5356860000000  0.4680130000000 1.0
C      1  0.3978430000000  0.5356540000000  0.3869950000000 1.0
C      1  0.4532240000000  0.4642440000000  0.3550520000000 1.0
C      1  0.6489350000000  0.4643140000000  0.5319870000000 1.0
C      1  0.3978440000000  0.4643460000000  0.6130050000000 1.0
END
