TITL C-3036479-9801-1083 -4.9209073072849e-06 3375 -337.290985501677 0 0 60 (D2) n - 1
REM
REM in /home/bkarasulu/work/CARBON/AIRSS/Generating-Clusters/REBO/Higher-Symm/Only-C60
REM
REM
REM
REM
REM
REM ./C.cell (a2850807a9bf4ad07a5b6933b78d9264)
REM AIRSS Version 0.9.1 bugfix July 2018 build 013d7b7c2542+ Fri, 06 Jul 2018 19:26:36 +0100
REM compiler GCC version 9.2.1 20190827 (Red Hat 9.2.1-1)
REM options -cpp -mtune=generic -march=x86-64 -g -O0 -fpre-include=/usr/include/finclude/math-vector-fortran.h
REM seed -842779675 2143281881 523231124 1725561003 -715251370 1276573047 -1883144289 -349189527 1301851170 862021561 -1720932122 -1788594272 1562860628 743026156 -583113672 -522856742 682121613 -1219589997 -2090566246 1553860874 120976428 947315440 1717493752 -2016276073 -1322308185 -928168273 1421129672 1720763034 -1667287992 1462336806 -346480046 -1578599017 1269324755
REM
CELL 1.54180   15.00000   15.00000   15.00000   90.00000   90.00000   90.00000
LATT -1
SFAC C  
C      1  0.3794430000000  0.6460730000000  0.6421640000000 1.0
C      1  0.6205570000000  0.3539270000000  0.6421650000000 1.0
C      1  0.3789990000000  0.6464350000000  0.3577790000000 1.0
C      1  0.6210020000000  0.3535650000000  0.3577800000000 1.0
C      1  0.3789990000000  0.3535650000000  0.6422210000000 1.0
C      1  0.6210020000000  0.6464350000000  0.6422210000000 1.0
C      1  0.3794440000000  0.3539280000000  0.3578350000000 1.0
C      1  0.6205580000000  0.6460720000000  0.3578360000000 1.0
C      1  0.4496780000000  0.2893980000000  0.3799460000000 1.0
C      1  0.5503230000000  0.7106020000000  0.3799470000000 1.0
C      1  0.4494410000000  0.2892510000000  0.6200550000000 1.0
C      1  0.5505600000000  0.7107490000000  0.6200550000000 1.0
C      1  0.4494420000000  0.7107490000000  0.3799450000000 1.0
C      1  0.5505600000000  0.2892510000000  0.3799450000000 1.0
C      1  0.4496790000000  0.7106020000000  0.6200530000000 1.0
C      1  0.5503220000000  0.2893980000000  0.6200540000000 1.0
C      1  0.5491780000000  0.5444630000000  0.7369140000000 1.0
C      1  0.4508190000000  0.4555370000000  0.7369120000000 1.0
C      1  0.5605830000000  0.5591210000000  0.2645740000000 1.0
C      1  0.4394110000000  0.4408790000000  0.2645790000000 1.0
C      1  0.5605840000000  0.4408790000000  0.7354240000000 1.0
C      1  0.4394130000000  0.5591210000000  0.7354220000000 1.0
C      1  0.5491760000000  0.4555370000000  0.2630850000000 1.0
C      1  0.4508180000000  0.5444630000000  0.2630890000000 1.0
C      1  0.5792010000000  0.7659330000000  0.4544290000000 1.0
C      1  0.4208000000000  0.2340670000000  0.4544290000000 1.0
C      1  0.5792630000000  0.7660310000000  0.5454630000000 1.0
C      1  0.4207380000000  0.2339690000000  0.5454630000000 1.0
C      1  0.5792620000000  0.2339690000000  0.4545370000000 1.0
C      1  0.4207380000000  0.7660310000000  0.4545370000000 1.0
C      1  0.5792000000000  0.2340660000000  0.5455710000000 1.0
C      1  0.4208010000000  0.7659340000000  0.5455710000000 1.0
C      1  0.3417800000000  0.5951320000000  0.4521710000000 1.0
C      1  0.6582210000000  0.4048680000000  0.4521710000000 1.0
C      1  0.3419680000000  0.5948980000000  0.5478330000000 1.0
C      1  0.6580320000000  0.4051020000000  0.5478330000000 1.0
C      1  0.3419680000000  0.4051020000000  0.4521660000000 1.0
C      1  0.6580320000000  0.5948980000000  0.4521670000000 1.0
C      1  0.3417800000000  0.4048680000000  0.5478290000000 1.0
C      1  0.6582210000000  0.5951320000000  0.5478290000000 1.0
C      1  0.5663930000000  0.5444090000000  0.4236140000000 1.0
C      1  0.4336080000000  0.4555910000000  0.4236140000000 1.0
C      1  0.5665470000000  0.5449360000000  0.5764480000000 1.0
C      1  0.4334530000000  0.4550640000000  0.5764470000000 1.0
C      1  0.5665470000000  0.4550640000000  0.4235530000000 1.0
C      1  0.4334530000000  0.5449360000000  0.4235520000000 1.0
C      1  0.5663930000000  0.4555910000000  0.5763860000000 1.0
C      1  0.4336080000000  0.5444090000000  0.5763860000000 1.0
C      1  0.3234190000000  0.5476390000000  0.3492520000000 1.0
C      1  0.6765830000000  0.4523610000000  0.3492530000000 1.0
C      1  0.3236240000000  0.5474160000000  0.6507560000000 1.0
C      1  0.6763760000000  0.4525840000000  0.6507560000000 1.0
C      1  0.3236250000000  0.4525840000000  0.3492440000000 1.0
C      1  0.6763760000000  0.5474160000000  0.3492440000000 1.0
C      1  0.3234180000000  0.4523620000000  0.6507470000000 1.0
C      1  0.6765820000000  0.5476380000000  0.6507480000000 1.0
C      1  0.4996970000000  0.5899520000000  0.3554540000000 1.0
C      1  0.4996970000000  0.4100480000000  0.6445460000000 1.0
C      1  0.5003040000000  0.4100480000000  0.3554540000000 1.0
C      1  0.5003040000000  0.5899520000000  0.6445460000000 1.0
END
