TITL C-3036485-3770-110 0.00375443937582282 3375 -331.829515231344 0 0 60 (C2) n - 1
REM
REM in /home/bkarasulu/work/CARBON/AIRSS/Generating-Clusters/REBO/Higher-Symm/Only-C60
REM
REM
REM
REM
REM
REM ./C.cell (a2850807a9bf4ad07a5b6933b78d9264)
REM AIRSS Version 0.9.1 bugfix July 2018 build 013d7b7c2542+ Fri, 06 Jul 2018 19:26:36 +0100
REM compiler GCC version 9.2.1 20190827 (Red Hat 9.2.1-1)
REM options -cpp -mtune=generic -march=x86-64 -g -O0 -fpre-include=/usr/include/finclude/math-vector-fortran.h
REM seed 96759575 -1231635633 801229002 -1098224004 -351732694 -837186611 -1227456679 -702244442 1443660553 -1903530396 2024114816 946910927 790217905 -1258394009 -2058468665 305367836 1441562488 455218212 1948936685 188721047 1025834587 -1283003424 -758307285 -921578384 -1906023695 -905731964 1107847311 1145016622 -753461105 -941141288 -290636461 793807684 -808279584
REM
CELL 1.54180   15.00000   15.00000   15.00000   90.00000   90.00000   90.00000
LATT -1
SFAC C  
C      1  0.4959530000000  0.5258410000000  0.3760440000000 1.0
C      1  0.3927980000000  0.5208050000000  0.5629930000000 1.0
C      1  0.6059490000000  0.5156270000000  0.5628750000000 1.0
C      1  0.4959530000000  0.4741590000000  0.6239560000000 1.0
C      1  0.3927980000000  0.4791950000000  0.4370070000000 1.0
C      1  0.6059490000000  0.4843730000000  0.4371250000000 1.0
C      1  0.6069540000000  0.5568340000000  0.3092510000000 1.0
C      1  0.2795260000000  0.5572970000000  0.5030370000000 1.0
C      1  0.6134670000000  0.5578180000000  0.6889760000000 1.0
C      1  0.6069540000000  0.4431660000000  0.6907490000000 1.0
C      1  0.2795260000000  0.4427030000000  0.4969630000000 1.0
C      1  0.6134670000000  0.4421820000000  0.3110240000000 1.0
C      1  0.4056770000000  0.3774140000000  0.3256030000000 1.0
C      1  0.3955230000000  0.3777130000000  0.6695110000000 1.0
C      1  0.6994090000000  0.3774600000000  0.5061880000000 1.0
C      1  0.4056770000000  0.6225860000000  0.6743970000000 1.0
C      1  0.3955230000000  0.6222870000000  0.3304890000000 1.0
C      1  0.6994090000000  0.6225400000000  0.4938120000000 1.0
C      1  0.3590710000000  0.4649990000000  0.6785770000000 1.0
C      1  0.7249870000000  0.4649870000000  0.5327940000000 1.0
C      1  0.4160200000000  0.4645230000000  0.2894700000000 1.0
C      1  0.3590710000000  0.5350010000000  0.3214230000000 1.0
C      1  0.7249870000000  0.5350130000000  0.4672060000000 1.0
C      1  0.4160200000000  0.5354770000000  0.7105300000000 1.0
C      1  0.2918470000000  0.5054660000000  0.4024780000000 1.0
C      1  0.5195130000000  0.5064480000000  0.7271940000000 1.0
C      1  0.6890120000000  0.5051830000000  0.3688660000000 1.0
C      1  0.2918470000000  0.4945340000000  0.5975220000000 1.0
C      1  0.5195130000000  0.4935520000000  0.2728060000000 1.0
C      1  0.6890120000000  0.4948170000000  0.6311340000000 1.0
C      1  0.6062500000000  0.6628090000000  0.4458820000000 1.0
C      1  0.4004850000000  0.6608670000000  0.4354410000000 1.0
C      1  0.4942110000000  0.6597310000000  0.6172700000000 1.0
C      1  0.6062500000000  0.3371910000000  0.5541180000000 1.0
C      1  0.4004850000000  0.3391330000000  0.5645590000000 1.0
C      1  0.4942110000000  0.3402690000000  0.3827300000000 1.0
C      1  0.4777680000000  0.6642900000000  0.2839160000000 1.0
C      1  0.3245720000000  0.6652340000000  0.6266990000000 1.0
C      1  0.6990870000000  0.6639990000000  0.5884350000000 1.0
C      1  0.4777680000000  0.3357100000000  0.7160840000000 1.0
C      1  0.3245720000000  0.3347660000000  0.3733010000000 1.0
C      1  0.6990870000000  0.3360010000000  0.4115650000000 1.0
C      1  0.4865930000000  0.7005080000000  0.3867610000000 1.0
C      1  0.4094470000000  0.6997310000000  0.5666590000000 1.0
C      1  0.6065580000000  0.7023580000000  0.5447840000000 1.0
C      1  0.4865930000000  0.2994920000000  0.6132390000000 1.0
C      1  0.4094470000000  0.3002690000000  0.4333410000000 1.0
C      1  0.6065580000000  0.2976420000000  0.4552160000000 1.0
C      1  0.5524270000000  0.4261160000000  0.5516860000000 1.0
C      1  0.5197320000000  0.4316300000000  0.4254410000000 1.0
C      1  0.4271530000000  0.4290490000000  0.5191920000000 1.0
C      1  0.5524270000000  0.5738840000000  0.4483140000000 1.0
C      1  0.5197320000000  0.5683700000000  0.5745590000000 1.0
C      1  0.4271530000000  0.5709510000000  0.4808080000000 1.0
C      1  0.3228790000000  0.3539110000000  0.4850930000000 1.0
C      1  0.5752470000000  0.3536350000000  0.6608160000000 1.0
C      1  0.6018860000000  0.3536410000000  0.3557390000000 1.0
C      1  0.3228790000000  0.6460890000000  0.5149070000000 1.0
C      1  0.5752470000000  0.6463650000000  0.3391840000000 1.0
C      1  0.6018860000000  0.6463590000000  0.6442610000000 1.0
END
