TITL C-3036483-1610-821 9.05152054374294e-06 3375 -329.668016445799 0 0 60 (C5) n - 1
REM
REM in /home/bkarasulu/work/CARBON/AIRSS/Generating-Clusters/REBO/Higher-Symm/Only-C60
REM
REM
REM
REM
REM
REM ./C.cell (a2850807a9bf4ad07a5b6933b78d9264)
REM AIRSS Version 0.9.1 bugfix July 2018 build 013d7b7c2542+ Fri, 06 Jul 2018 19:26:36 +0100
REM compiler GCC version 9.2.1 20190827 (Red Hat 9.2.1-1)
REM options -cpp -mtune=generic -march=x86-64 -g -O0 -fpre-include=/usr/include/finclude/math-vector-fortran.h
REM seed -1952253749 -628081737 981829008 -738423111 -555926930 854661577 804482883 -1040485185 -807447968 -423660006 333720168 -251871067 674254124 -689280644 -533351785 -71552939 -1117475282 868341536 529549883 730670644 591610173 1531126809 1618797153 -683957955 -2128077350 -979674845 -967770436 1151103778 -1442652439 -1178406967 -118983533 -980982222 1877678597
REM
CELL 1.54180   15.00000   15.00000   15.00000   90.00000   90.00000   90.00000
LATT -1
SFAC C  
C      1  0.4134500000000  0.5666290000000  0.5248500000000 1.0
C      1  0.4496210000000  0.5666290000000  0.4253660000000 1.0
C      1  0.5554130000000  0.5666290000000  0.4290240000000 1.0
C      1  0.5846260000000  0.5666290000000  0.5307680000000 1.0
C      1  0.4968880000000  0.5666290000000  0.5899920000000 1.0
C      1  0.4134510000000  0.4333710000000  0.5248500000000 1.0
C      1  0.4496210000000  0.4333710000000  0.4253660000000 1.0
C      1  0.5554130000000  0.4333710000000  0.4290240000000 1.0
C      1  0.5846260000000  0.4333710000000  0.5307680000000 1.0
C      1  0.4968890000000  0.4333710000000  0.5899920000000 1.0
C      1  0.4136000000000  0.6261240000000  0.7261090000000 1.0
C      1  0.2582590000000  0.6261240000000  0.4877000000000 1.0
C      1  0.4369950000000  0.6261240000000  0.2662900000000 1.0
C      1  0.7028020000000  0.6261230000000  0.3678580000000 1.0
C      1  0.6883430000000  0.6261230000000  0.6520430000000 1.0
C      1  0.4136010000000  0.3738770000000  0.7261090000000 1.0
C      1  0.2582590000000  0.3738770000000  0.4877010000000 1.0
C      1  0.4369950000000  0.3738770000000  0.2662900000000 1.0
C      1  0.7028020000000  0.3738760000000  0.3678590000000 1.0
C      1  0.6883430000000  0.3738770000000  0.6520420000000 1.0
C      1  0.5569920000000  0.2983460000000  0.4257610000000 1.0
C      1  0.5882170000000  0.2983460000000  0.5312610000000 1.0
C      1  0.4975290000000  0.2983460000000  0.5935590000000 1.0
C      1  0.4102570000000  0.2983460000000  0.5265610000000 1.0
C      1  0.4470060000000  0.2983460000000  0.4228560000000 1.0
C      1  0.5569920000000  0.7016540000000  0.4257610000000 1.0
C      1  0.5882170000000  0.7016540000000  0.5312610000000 1.0
C      1  0.4975290000000  0.7016540000000  0.5935590000000 1.0
C      1  0.4102560000000  0.7016540000000  0.5265610000000 1.0
C      1  0.4470060000000  0.7016540000000  0.4228560000000 1.0
C      1  0.4056630000000  0.5526870000000  0.3204330000000 1.0
C      1  0.6416260000000  0.5526870000000  0.3547910000000 1.0
C      1  0.6818670000000  0.5526870000000  0.5898230000000 1.0
C      1  0.4707730000000  0.5526870000000  0.7007230000000 1.0
C      1  0.3000700000000  0.5526870000000  0.5342310000000 1.0
C      1  0.4056630000000  0.4473130000000  0.3204340000000 1.0
C      1  0.6416270000000  0.4473120000000  0.3547910000000 1.0
C      1  0.6818670000000  0.4473130000000  0.5898230000000 1.0
C      1  0.4707740000000  0.4473130000000  0.7007220000000 1.0
C      1  0.3000700000000  0.4473130000000  0.5342310000000 1.0
C      1  0.3992700000000  0.3364510000000  0.6313790000000 1.0
C      1  0.3439230000000  0.3364510000000  0.4447980000000 1.0
C      1  0.5042700000000  0.3364520000000  0.3345040000000 1.0
C      1  0.6587160000000  0.3364510000000  0.4529200000000 1.0
C      1  0.5938220000000  0.3364510000000  0.6363990000000 1.0
C      1  0.3992700000000  0.6635480000000  0.6313790000000 1.0
C      1  0.3439230000000  0.6635490000000  0.4447980000000 1.0
C      1  0.5042700000000  0.6635490000000  0.3345030000000 1.0
C      1  0.6587160000000  0.6635480000000  0.4529200000000 1.0
C      1  0.5938220000000  0.6635480000000  0.6363990000000 1.0
C      1  0.6868030000000  0.5567940000000  0.4798400000000 1.0
C      1  0.5768990000000  0.5567940000000  0.6714310000000 1.0
C      1  0.3607220000000  0.5567940000000  0.6261110000000 1.0
C      1  0.3370220000000  0.5567950000000  0.4065100000000 1.0
C      1  0.5385520000000  0.5567950000000  0.3161090000000 1.0
C      1  0.6868040000000  0.4432050000000  0.4798400000000 1.0
C      1  0.5768990000000  0.4432050000000  0.6714310000000 1.0
C      1  0.3607230000000  0.4432050000000  0.6261110000000 1.0
C      1  0.3370230000000  0.4432050000000  0.4065100000000 1.0
C      1  0.5385520000000  0.4432060000000  0.3161090000000 1.0
END
