TITL C-3036482-790-966 0.0558692764364388 3375 -336.739321553406 0 0 60 (C1) n - 1
REM
REM in /home/bkarasulu/work/CARBON/AIRSS/Generating-Clusters/REBO/Higher-Symm/Only-C60
REM
REM
REM
REM
REM
REM ./C.cell (a2850807a9bf4ad07a5b6933b78d9264)
REM AIRSS Version 0.9.1 bugfix July 2018 build 013d7b7c2542+ Fri, 06 Jul 2018 19:26:36 +0100
REM compiler GCC version 9.2.1 20190827 (Red Hat 9.2.1-1)
REM options -cpp -mtune=generic -march=x86-64 -g -O0 -fpre-include=/usr/include/finclude/math-vector-fortran.h
REM seed 454993343 1452002473 -855582865 -836917702 -934889065 880915127 326760093 -1501855065 1164430752 2130559944 234317704 -26120592 -320739531 -1001326476 1898237471 -2068890490 1813382865 1167399340 -1910278808 2015680407 -1736584632 1326118976 701850520 1536124504 1874708083 -493471166 -1383872643 -1471451588 -1648148954 1923960355 478656167 -1164355019 1181916225
REM
CELL 1.54180   15.00000   15.00000   15.00000   90.00000   90.00000   90.00000
LATT -1
SFAC C  
C      1  0.4659820000000  0.4705080000000  0.7315530000000 1.0
C      1  0.4415930000000  0.5999070000000  0.4883910000000 1.0
C      1  0.6099590000000  0.5164960000000  0.5034270000000 1.0
C      1  0.3354690000000  0.5693790000000  0.3978760000000 1.0
C      1  0.4260210000000  0.3089570000000  0.6598190000000 1.0
C      1  0.6105330000000  0.6073590000000  0.4355350000000 1.0
C      1  0.5567540000000  0.5464270000000  0.6147640000000 1.0
C      1  0.5609060000000  0.2632220000000  0.5842950000000 1.0
C      1  0.3439510000000  0.4900500000000  0.5712150000000 1.0
C      1  0.5204250000000  0.5839080000000  0.5287550000000 1.0
C      1  0.3663890000000  0.3809030000000  0.5951020000000 1.0
C      1  0.5235490000000  0.3141230000000  0.6566440000000 1.0
C      1  0.6176120000000  0.5052740000000  0.3034460000000 1.0
C      1  0.3818040000000  0.4461970000000  0.3115620000000 1.0
C      1  0.7193520000000  0.3323500000000  0.5358550000000 1.0
C      1  0.4770830000000  0.4135420000000  0.2590240000000 1.0
C      1  0.7127010000000  0.5984370000000  0.4852330000000 1.0
C      1  0.6386650000000  0.4543020000000  0.6631780000000 1.0
C      1  0.6541700000000  0.4453760000000  0.3632470000000 1.0
C      1  0.6078880000000  0.3070570000000  0.4678450000000 1.0
C      1  0.5040500000000  0.3268680000000  0.3172840000000 1.0
C      1  0.4725430000000  0.7285800000000  0.4726740000000 1.0
C      1  0.5075370000000  0.2680250000000  0.5001060000000 1.0
C      1  0.4179310000000  0.7187330000000  0.3928910000000 1.0
C      1  0.5331850000000  0.5123670000000  0.2565660000000 1.0
C      1  0.4245950000000  0.2825670000000  0.4618940000000 1.0
C      1  0.5222640000000  0.4334490000000  0.3624860000000 1.0
C      1  0.3625700000000  0.3856420000000  0.4029950000000 1.0
C      1  0.2928020000000  0.5342510000000  0.4859440000000 1.0
C      1  0.5747270000000  0.6891940000000  0.5898670000000 1.0
C      1  0.3495270000000  0.3323900000000  0.5048400000000 1.0
C      1  0.5290950000000  0.5313310000000  0.4065670000000 1.0
C      1  0.4532040000000  0.6170930000000  0.6826940000000 1.0
C      1  0.3805740000000  0.6068320000000  0.2354510000000 1.0
C      1  0.4422980000000  0.5882510000000  0.3827320000000 1.0
C      1  0.6711580000000  0.4030450000000  0.4662690000000 1.0
C      1  0.5136800000000  0.4620820000000  0.5810530000000 1.0
C      1  0.7202100000000  0.6436310000000  0.5699470000000 1.0
C      1  0.4900360000000  0.4613940000000  0.4878350000000 1.0
C      1  0.4249920000000  0.7125680000000  0.5568880000000 1.0
C      1  0.6734430000000  0.4552590000000  0.5670440000000 1.0
C      1  0.5964320000000  0.3479080000000  0.3725340000000 1.0
C      1  0.6590960000000  0.2611190000000  0.5619530000000 1.0
C      1  0.2853070000000  0.5813440000000  0.7089610000000 1.0
C      1  0.3285670000000  0.6790390000000  0.4028960000000 1.0
C      1  0.4478320000000  0.4377510000000  0.6437380000000 1.0
C      1  0.4860880000000  0.6884720000000  0.6278090000000 1.0
C      1  0.6151530000000  0.5588800000000  0.7010830000000 1.0
C      1  0.2756280000000  0.6430650000000  0.4887390000000 1.0
C      1  0.5809010000000  0.3857730000000  0.6853990000000 1.0
C      1  0.6469400000000  0.6425460000000  0.6306900000000 1.0
C      1  0.5067780000000  0.5583070000000  0.7362740000000 1.0
C      1  0.3956960000000  0.4521860000000  0.4801950000000 1.0
C      1  0.4661170000000  0.6728860000000  0.3159010000000 1.0
C      1  0.5684970000000  0.6996720000000  0.4866140000000 1.0
C      1  0.4212610000000  0.2962730000000  0.3643330000000 1.0
C      1  0.4253220000000  0.5336650000000  0.2628850000000 1.0
C      1  0.3591350000000  0.6297690000000  0.5509620000000 1.0
C      1  0.3617170000000  0.5733050000000  0.6422930000000 1.0
C      1  0.7423050000000  0.5107160000000  0.4959510000000 1.0
END
