TITL C-3036480-97-1011 -1.0636483938212e-05 3375 -347.8688687506 0 0 60 (Ci) n - 1
REM
REM in /home/bkarasulu/work/CARBON/AIRSS/Generating-Clusters/REBO/Higher-Symm/Only-C60
REM
REM
REM
REM
REM
REM ./C.cell (a2850807a9bf4ad07a5b6933b78d9264)
REM AIRSS Version 0.9.1 bugfix July 2018 build 013d7b7c2542+ Fri, 06 Jul 2018 19:26:36 +0100
REM compiler GCC version 9.2.1 20190827 (Red Hat 9.2.1-1)
REM options -cpp -mtune=generic -march=x86-64 -g -O0 -fpre-include=/usr/include/finclude/math-vector-fortran.h
REM seed 422417532 492176326 -1370043543 -857235741 1429170027 -1764264227 46712004 1744160578 914691139 -1404400214 -1802248241 638423124 -443911511 487957728 663891799 -276260416 -320014204 -843223954 1978644382 -1365942729 1284640317 1690761738 -1543118246 432904920 -1412089296 1712796153 633917037 1079093692 -744693010 -1815021703 1159290443 -254699527 -529579744
REM
CELL 1.54180   15.00000   15.00000   15.00000   90.00000   90.00000   90.00000
LATT -1
SFAC C  
C      1  0.4100790000000  0.5970110000000  0.3365080000000 1.0
C      1  0.5899220000000  0.4029890000000  0.6634920000000 1.0
C      1  0.4055700000000  0.3331990000000  0.3532390000000 1.0
C      1  0.5944300000000  0.6668010000000  0.6467600000000 1.0
C      1  0.6839070000000  0.4004150000000  0.6377080000000 1.0
C      1  0.3160940000000  0.5995840000000  0.3622920000000 1.0
C      1  0.3997910000000  0.4661440000000  0.3562510000000 1.0
C      1  0.6002090000000  0.5338550000000  0.6437500000000 1.0
C      1  0.4987070000000  0.5949460000000  0.7037070000000 1.0
C      1  0.5012930000000  0.4050550000000  0.2962930000000 1.0
C      1  0.2716470000000  0.4326460000000  0.3524890000000 1.0
C      1  0.7283540000000  0.5673540000000  0.6475100000000 1.0
C      1  0.6843120000000  0.6712820000000  0.5125070000000 1.0
C      1  0.3156870000000  0.3287170000000  0.4874910000000 1.0
C      1  0.7407160000000  0.6167740000000  0.4554510000000 1.0
C      1  0.2592850000000  0.3832270000000  0.5445480000000 1.0
C      1  0.5341460000000  0.5545320000000  0.4844630000000 1.0
C      1  0.4658530000000  0.4454700000000  0.5155390000000 1.0
C      1  0.5952090000000  0.7104680000000  0.4809710000000 1.0
C      1  0.4047890000000  0.2895360000000  0.5190280000000 1.0
C      1  0.6234490000000  0.5357460000000  0.5412200000000 1.0
C      1  0.3765500000000  0.4642530000000  0.4587810000000 1.0
C      1  0.7093990000000  0.5536790000000  0.3904590000000 1.0
C      1  0.2906010000000  0.4463210000000  0.6095400000000 1.0
C      1  0.3836930000000  0.6441630000000  0.5721530000000 1.0
C      1  0.6163070000000  0.3558370000000  0.4278470000000 1.0
C      1  0.6261840000000  0.5859470000000  0.3575600000000 1.0
C      1  0.3738150000000  0.4140530000000  0.6424420000000 1.0
C      1  0.3142850000000  0.5554120000000  0.5891870000000 1.0
C      1  0.6857150000000  0.4445880000000  0.4108130000000 1.0
C      1  0.4199290000000  0.3719330000000  0.5725830000000 1.0
C      1  0.5800730000000  0.6280680000000  0.4274200000000 1.0
C      1  0.6790350000000  0.6451680000000  0.6031410000000 1.0
C      1  0.3209640000000  0.3548310000000  0.3968560000000 1.0
C      1  0.2712570000000  0.5195190000000  0.3987560000000 1.0
C      1  0.7287440000000  0.4804810000000  0.6012440000000 1.0
C      1  0.5012730000000  0.5199420000000  0.5882870000000 1.0
C      1  0.4987260000000  0.4800590000000  0.4117150000000 1.0
C      1  0.5433750000000  0.3467520000000  0.6071960000000 1.0
C      1  0.4566260000000  0.6532470000000  0.3928050000000 1.0
C      1  0.6901110000000  0.3222410000000  0.5795950000000 1.0
C      1  0.3098890000000  0.6777580000000  0.4204050000000 1.0
C      1  0.4920600000000  0.6519240000000  0.6045930000000 1.0
C      1  0.5079400000000  0.3480770000000  0.3954070000000 1.0
C      1  0.3926290000000  0.5873920000000  0.6654310000000 1.0
C      1  0.6073710000000  0.4126070000000  0.3345680000000 1.0
C      1  0.3300850000000  0.4407010000000  0.2676660000000 1.0
C      1  0.6699170000000  0.5592990000000  0.7323330000000 1.0
C      1  0.4844720000000  0.6886360000000  0.4973030000000 1.0
C      1  0.5155280000000  0.3113650000000  0.5026970000000 1.0
C      1  0.6287000000000  0.3029610000000  0.5157560000000 1.0
C      1  0.3713000000000  0.6970380000000  0.4842440000000 1.0
C      1  0.5688210000000  0.5138050000000  0.3276790000000 1.0
C      1  0.4311790000000  0.4861950000000  0.6723240000000 1.0
C      1  0.4046460000000  0.3734020000000  0.2600430000000 1.0
C      1  0.5953550000000  0.6265970000000  0.7399550000000 1.0
C      1  0.2975780000000  0.5117920000000  0.4945420000000 1.0
C      1  0.7024210000000  0.4882080000000  0.5054570000000 1.0
C      1  0.4693390000000  0.5160270000000  0.2874680000000 1.0
C      1  0.5306610000000  0.4839730000000  0.7125330000000 1.0
END
