TITL C-3036485-3770-120 0.00028645566881242 3375 -350.7476856675 0 0 60 (C1) n - 1
REM
REM in /home/bkarasulu/work/CARBON/AIRSS/Generating-Clusters/REBO/Higher-Symm/Only-C60
REM
REM
REM
REM
REM
REM ./C.cell (a2850807a9bf4ad07a5b6933b78d9264)
REM AIRSS Version 0.9.1 bugfix July 2018 build 013d7b7c2542+ Fri, 06 Jul 2018 19:26:36 +0100
REM compiler GCC version 9.2.1 20190827 (Red Hat 9.2.1-1)
REM options -cpp -mtune=generic -march=x86-64 -g -O0 -fpre-include=/usr/include/finclude/math-vector-fortran.h
REM seed 1193512027 1223220075 -877797835 750928116 -105456386 1418177765 -989508215 -1167838557 440938934 894659410 -1680716420 1296424919 544978678 1206064543 -2093093609 1645594534 556731355 -1455582543 -283431207 -641624290 -1529620221 2047899700 -833931999 -2115156964 1966585746 -603042000 313471327 1070642331 -1524278885 962263073 1344129328 1040254532 -1245597441
REM
CELL 1.54180   15.00000   15.00000   15.00000   90.00000   90.00000   90.00000
LATT -1
SFAC C  
C      1  0.5986980000000  0.6110300000000  0.5022060000000 1.0
C      1  0.4495070000000  0.6112600000000  0.5839620000000 1.0
C      1  0.4534100000000  0.6105780000000  0.4155130000000 1.0
C      1  0.3711990000000  0.4853260000000  0.4774190000000 1.0
C      1  0.5824750000000  0.4799540000000  0.4049370000000 1.0
C      1  0.5440030000000  0.4797520000000  0.6163220000000 1.0
C      1  0.3150550000000  0.5511740000000  0.3762920000000 1.0
C      1  0.6963450000000  0.5488600000000  0.4004640000000 1.0
C      1  0.4872350000000  0.5491310000000  0.7151650000000 1.0
C      1  0.5206180000000  0.2863740000000  0.5636330000000 1.0
C      1  0.4450530000000  0.3113950000000  0.4903280000000 1.0
C      1  0.5514630000000  0.2973280000000  0.4592790000000 1.0
C      1  0.6348700000000  0.5880980000000  0.3135890000000 1.0
C      1  0.5940350000000  0.5868540000000  0.7096170000000 1.0
C      1  0.2704880000000  0.5860350000000  0.4748990000000 1.0
C      1  0.5778800000000  0.3248830000000  0.6332790000000 1.0
C      1  0.3409130000000  0.3207330000000  0.5056990000000 1.0
C      1  0.5765760000000  0.3229390000000  0.3621200000000 1.0
C      1  0.5531490000000  0.4123630000000  0.4572480000000 1.0
C      1  0.5131270000000  0.4087210000000  0.5535530000000 1.0
C      1  0.4257660000000  0.4220590000000  0.4981560000000 1.0
C      1  0.3929390000000  0.4929490000000  0.6856150000000 1.0
C      1  0.3914220000000  0.4923310000000  0.3154110000000 1.0
C      1  0.7161810000000  0.4921520000000  0.4969750000000 1.0
C      1  0.7020510000000  0.6480490000000  0.5870230000000 1.0
C      1  0.3231800000000  0.6498390000000  0.6307670000000 1.0
C      1  0.4751050000000  0.6485030000000  0.2828400000000 1.0
C      1  0.5178910000000  0.7012970000000  0.4375250000000 1.0
C      1  0.5470330000000  0.7018370000000  0.5473610000000 1.0
C      1  0.4371310000000  0.7028480000000  0.5177700000000 1.0
C      1  0.6679660000000  0.4614980000000  0.3337200000000 1.0
C      1  0.5558700000000  0.4611760000000  0.7267990000000 1.0
C      1  0.2737850000000  0.4614600000000  0.4297990000000 1.0
C      1  0.4992150000000  0.3629150000000  0.3217930000000 1.0
C      1  0.6535080000000  0.3639110000000  0.5864570000000 1.0
C      1  0.3423860000000  0.3602790000000  0.5956750000000 1.0
C      1  0.7029930000000  0.6004350000000  0.5002730000000 1.0
C      1  0.3970170000000  0.6014810000000  0.6746290000000 1.0
C      1  0.4007300000000  0.6005490000000  0.3258470000000 1.0
C      1  0.3208010000000  0.4574500000000  0.6153520000000 1.0
C      1  0.4894300000000  0.4581940000000  0.2887260000000 1.0
C      1  0.6872510000000  0.4582250000000  0.5938120000000 1.0
C      1  0.6446140000000  0.5071120000000  0.7741050000000 1.0
C      1  0.1891430000000  0.5061570000000  0.4850710000000 1.0
C      1  0.6645260000000  0.5108410000000  0.2346840000000 1.0
C      1  0.5154490000000  0.3728010000000  0.6898240000000 1.0
C      1  0.3298770000000  0.3724010000000  0.4201080000000 1.0
C      1  0.6589310000000  0.3722090000000  0.3874540000000 1.0
C      1  0.3345250000000  0.6567710000000  0.5346340000000 1.0
C      1  0.5531390000000  0.6555190000000  0.3398560000000 1.0
C      1  0.6136430000000  0.6552890000000  0.6266130000000 1.0
C      1  0.6658340000000  0.5084300000000  0.6666010000000 1.0
C      1  0.2690930000000  0.5084120000000  0.5598150000000 1.0
C      1  0.5613660000000  0.5108170000000  0.2709350000000 1.0
C      1  0.3991030000000  0.3876110000000  0.3552270000000 1.0
C      1  0.6816110000000  0.3871370000000  0.4817140000000 1.0
C      1  0.4227470000000  0.3875930000000  0.6641280000000 1.0
C      1  0.5413820000000  0.5756360000000  0.5884190000000 1.0
C      1  0.4016020000000  0.5774920000000  0.4921850000000 1.0
C      1  0.5576660000000  0.5755480000000  0.4207750000000 1.0
END
