TITL C-3036486-2224-785 3.46018473957286e-06 3375 -324.743135158055 0 0 60 (C3) n - 1
REM
REM in /home/bkarasulu/work/CARBON/AIRSS/Generating-Clusters/REBO/Higher-Symm/Only-C60
REM
REM
REM
REM
REM
REM ./C.cell (a2850807a9bf4ad07a5b6933b78d9264)
REM AIRSS Version 0.9.1 bugfix July 2018 build 013d7b7c2542+ Fri, 06 Jul 2018 19:26:36 +0100
REM compiler GCC version 9.2.1 20190827 (Red Hat 9.2.1-1)
REM options -cpp -mtune=generic -march=x86-64 -g -O0 -fpre-include=/usr/include/finclude/math-vector-fortran.h
REM seed 2077049533 -1451915651 -1025050309 1046297662 -927924850 120952338 -753986201 -525309267 486277825 918423607 -1355602387 -1679172584 2063982379 1917599302 1153149197 1680975569 -1438907135 1266098331 1322409961 1346539058 1132299747 -802792017 412434859 -542341264 156306523 665953986 2069157617 -1855289368 1929869811 840596128 -136789107 790840045 1716706973
REM
CELL 1.54180   15.00000   15.00000   15.00000   90.00000   90.00000   90.00000
LATT -1
SFAC C  
C      1  0.7172930000000  0.3846920000000  0.6062590000000 1.0
C      1  0.2993300000000  0.3846920000000  0.6350520000000 1.0
C      1  0.4833760000000  0.3846910000000  0.2586890000000 1.0
C      1  0.4075020000000  0.6164920000000  0.3766250000000 1.0
C      1  0.6530950000000  0.6164920000000  0.4815810000000 1.0
C      1  0.4394040000000  0.6164930000000  0.6417930000000 1.0
C      1  0.5758200000000  0.5825900000000  0.3630070000000 1.0
C      1  0.5807300000000  0.5825910000000  0.6341580000000 1.0
C      1  0.3434510000000  0.5825910000000  0.5028340000000 1.0
C      1  0.4356550000000  0.4779070000000  0.2693100000000 1.0
C      1  0.7319560000000  0.4779070000000  0.5596210000000 1.0
C      1  0.3323890000000  0.4779080000000  0.6710700000000 1.0
C      1  0.6424630000000  0.5572130000000  0.2815660000000 1.0
C      1  0.6179380000000  0.5572130000000  0.7325930000000 1.0
C      1  0.2396000000000  0.5572140000000  0.4858400000000 1.0
C      1  0.4300490000000  0.7002580000000  0.5702860000000 1.0
C      1  0.4741060000000  0.7002570000000  0.4042770000000 1.0
C      1  0.5958460000000  0.7002580000000  0.5254360000000 1.0
C      1  0.4726250000000  0.3535370000000  0.4419140000000 1.0
C      1  0.5639910000000  0.3535380000000  0.5053360000000 1.0
C      1  0.4633830000000  0.3535380000000  0.5527500000000 1.0
C      1  0.6400570000000  0.5444380000000  0.5601130000000 1.0
C      1  0.3779120000000  0.5444390000000  0.5912360000000 1.0
C      1  0.4820310000000  0.5444380000000  0.3486510000000 1.0
C      1  0.4021800000000  0.4408390000000  0.3720990000000 1.0
C      1  0.6596750000000  0.4408390000000  0.4792370000000 1.0
C      1  0.4381440000000  0.4408400000000  0.6486650000000 1.0
C      1  0.3509660000000  0.5072030000000  0.4332090000000 1.0
C      1  0.6323600000000  0.5072030000000  0.4043290000000 1.0
C      1  0.5166740000000  0.5072030000000  0.6624620000000 1.0
C      1  0.5682540000000  0.6663460000000  0.4236640000000 1.0
C      1  0.5319820000000  0.6663470000000  0.5972760000000 1.0
C      1  0.3997650000000  0.6663470000000  0.4790580000000 1.0
C      1  0.2787420000000  0.4866510000000  0.3535530000000 1.0
C      1  0.7374560000000  0.4866500000000  0.3816090000000 1.0
C      1  0.4838020000000  0.4866510000000  0.7648380000000 1.0
C      1  0.4281570000000  0.3151220000000  0.2907230000000 1.0
C      1  0.7171610000000  0.3151230000000  0.5424210000000 1.0
C      1  0.3546810000000  0.3151230000000  0.6668560000000 1.0
C      1  0.3876860000000  0.4381080000000  0.5515940000000 1.0
C      1  0.5114750000000  0.4381070000000  0.3769360000000 1.0
C      1  0.6008390000000  0.4381080000000  0.5714700000000 1.0
C      1  0.3551520000000  0.5472430000000  0.3088660000000 1.0
C      1  0.7379520000000  0.5472430000000  0.4701250000000 1.0
C      1  0.4068970000000  0.5472440000000  0.7210100000000 1.0
C      1  0.4626240000000  0.3352160000000  0.6647470000000 1.0
C      1  0.3760120000000  0.3352150000000  0.3852580000000 1.0
C      1  0.6613630000000  0.3352150000000  0.4499950000000 1.0
C      1  0.6281440000000  0.3979510000000  0.6670150000000 1.0
C      1  0.2912880000000  0.3979520000000  0.5274690000000 1.0
C      1  0.5805670000000  0.3979500000000  0.3055160000000 1.0
C      1  0.6606910000000  0.4667990000000  0.2746680000000 1.0
C      1  0.6147980000000  0.4668000000000  0.7518290000000 1.0
C      1  0.2245110000000  0.4668000000000  0.4735030000000 1.0
C      1  0.2868420000000  0.3908360000000  0.4148680000000 1.0
C      1  0.6803050000000  0.3908350000000  0.3579660000000 1.0
C      1  0.5328520000000  0.3908360000000  0.7271660000000 1.0
C      1  0.6373360000000  0.7905550000000  0.5386440000000 1.0
C      1  0.3978650000000  0.7905550000000  0.5996140000000 1.0
C      1  0.4648000000000  0.7905540000000  0.3617400000000 1.0
END
