TITL C-3036485-3770-1144 1.18515119240595e-06 3375 -353.776002095151 0 0 60 (C1) n - 1
REM
REM in /home/bkarasulu/work/CARBON/AIRSS/Generating-Clusters/REBO/Higher-Symm/Only-C60
REM
REM
REM
REM
REM
REM ./C.cell (a2850807a9bf4ad07a5b6933b78d9264)
REM AIRSS Version 0.9.1 bugfix July 2018 build 013d7b7c2542+ Fri, 06 Jul 2018 19:26:36 +0100
REM compiler GCC version 9.2.1 20190827 (Red Hat 9.2.1-1)
REM options -cpp -mtune=generic -march=x86-64 -g -O0 -fpre-include=/usr/include/finclude/math-vector-fortran.h
REM seed -556545525 -1114171401 1963096183 -1252802866 -179212410 -312242385 -511603589 281880597 1115316415 499170178 -2130971554 524342949 -194084377 -485995542 -841581329 1895860113 398688721 1497666167 -1888906656 -1493473920 1053557035 -1105337125 -1742254863 -410635669 -1178114837 260171921 -150092304 2130310874 -979899960 753684148 -811529998 -142669388 135294243
REM
CELL 1.54180   15.00000   15.00000   15.00000   90.00000   90.00000   90.00000
LATT -1
SFAC C  
C      1  0.4098820000000  0.4221760000000  0.2374750000000 1.0
C      1  0.3864520000000  0.5200200000000  0.2339450000000 1.0
C      1  0.4474270000000  0.6003910000000  0.2339570000000 1.0
C      1  0.5483260000000  0.6040340000000  0.2376540000000 1.0
C      1  0.6139820000000  0.5270570000000  0.2405850000000 1.0
C      1  0.5937570000000  0.4266640000000  0.2411060000000 1.0
C      1  0.5021900000000  0.3796790000000  0.2405990000000 1.0
C      1  0.5356720000000  0.3142750000000  0.5785890000000 1.0
C      1  0.3710480000000  0.3586070000000  0.5834570000000 1.0
C      1  0.2987370000000  0.5128400000000  0.5724060000000 1.0
C      1  0.3700710000000  0.6594640000000  0.5695100000000 1.0
C      1  0.5468290000000  0.7142740000000  0.5795750000000 1.0
C      1  0.6981290000000  0.5921920000000  0.5850340000000 1.0
C      1  0.6834720000000  0.4099040000000  0.5748310000000 1.0
C      1  0.6245050000000  0.4976870000000  0.3492700000000 1.0
C      1  0.5753350000000  0.3987550000000  0.3496010000000 1.0
C      1  0.4661210000000  0.3770680000000  0.3488280000000 1.0
C      1  0.3780430000000  0.4461700000000  0.3441450000000 1.0
C      1  0.3790500000000  0.5591000000000  0.3401020000000 1.0
C      1  0.4695120000000  0.6271980000000  0.3420510000000 1.0
C      1  0.5773680000000  0.5976760000000  0.3472980000000 1.0
C      1  0.6019770000000  0.5523600000000  0.5872550000000 1.0
C      1  0.5974010000000  0.4612240000000  0.6001630000000 1.0
C      1  0.5224440000000  0.4095180000000  0.6104690000000 1.0
C      1  0.4296060000000  0.4372880000000  0.6246890000000 1.0
C      1  0.3955560000000  0.5351790000000  0.6099250000000 1.0
C      1  0.4489080000000  0.5853180000000  0.5412410000000 1.0
C      1  0.5355750000000  0.6115200000000  0.5729100000000 1.0
C      1  0.3773110000000  0.4742170000000  0.7259070000000 1.0
C      1  0.4170290000000  0.5781210000000  0.7119740000000 1.0
C      1  0.5140600000000  0.6101550000000  0.7202210000000 1.0
C      1  0.5959260000000  0.5377980000000  0.7304780000000 1.0
C      1  0.6164880000000  0.4299140000000  0.7283340000000 1.0
C      1  0.5482490000000  0.3652810000000  0.7335270000000 1.0
C      1  0.4455620000000  0.3897910000000  0.7477910000000 1.0
C      1  0.3748150000000  0.3588230000000  0.4872380000000 1.0
C      1  0.2999700000000  0.5100310000000  0.4773370000000 1.0
C      1  0.3701020000000  0.6635000000000  0.4682190000000 1.0
C      1  0.5408990000000  0.6998380000000  0.4738680000000 1.0
C      1  0.6754940000000  0.5851760000000  0.4811500000000 1.0
C      1  0.6774380000000  0.4114600000000  0.4783530000000 1.0
C      1  0.5375750000000  0.3115820000000  0.4831040000000 1.0
C      1  0.5579520000000  0.2922520000000  0.6723490000000 1.0
C      1  0.3818920000000  0.3271190000000  0.6798270000000 1.0
C      1  0.2908650000000  0.4707620000000  0.6610300000000 1.0
C      1  0.3539800000000  0.6517760000000  0.6590580000000 1.0
C      1  0.5345370000000  0.6912570000000  0.6793240000000 1.0
C      1  0.6839390000000  0.5828100000000  0.6873760000000 1.0
C      1  0.6923440000000  0.4057590000000  0.6751670000000 1.0
C      1  0.6100550000000  0.3556380000000  0.4367200000000 1.0
C      1  0.4534910000000  0.3284250000000  0.4400280000000 1.0
C      1  0.3315300000000  0.4288040000000  0.4367990000000 1.0
C      1  0.3285200000000  0.5871380000000  0.4261020000000 1.0
C      1  0.4559500000000  0.6845990000000  0.4278920000000 1.0
C      1  0.6100850000000  0.6420110000000  0.4366920000000 1.0
C      1  0.6799590000000  0.4986080000000  0.4368630000000 1.0
C      1  0.4995570000000  0.4975000000000  0.3002630000000 1.0
C      1  0.4910490000000  0.5031520000000  0.3857850000000 1.0
C      1  0.5027620000000  0.4855340000000  0.7683620000000 1.0
C      1  0.4529860000000  0.5383500000000  0.4555080000000 1.0
END
