TITL C-3036479-9801-1121 4.70705409578952e-06 3375 -349.74182785756 0 0 60 (C1) n - 1
REM
REM in /home/bkarasulu/work/CARBON/AIRSS/Generating-Clusters/REBO/Higher-Symm/Only-C60
REM
REM
REM
REM
REM
REM ./C.cell (a2850807a9bf4ad07a5b6933b78d9264)
REM AIRSS Version 0.9.1 bugfix July 2018 build 013d7b7c2542+ Fri, 06 Jul 2018 19:26:36 +0100
REM compiler GCC version 9.2.1 20190827 (Red Hat 9.2.1-1)
REM options -cpp -mtune=generic -march=x86-64 -g -O0 -fpre-include=/usr/include/finclude/math-vector-fortran.h
REM seed -1805430811 -1626076364 -124554267 975339168 -629575672 1614773387 1149871008 -1684472798 1347498939 2066959169 470983895 1067454175 -5699896 -754100316 -242312285 -1426050132 -1542673345 -804198072 1021450637 -1055225677 -1741750607 83778382 -173054609 -1001718565 -1923340557 -1396746877 527392422 -1520686075 -1768354544 1220057824 -79047635 1017670991 -1045024741
REM
CELL 1.54180   15.00000   15.00000   15.00000   90.00000   90.00000   90.00000
LATT -1
SFAC C  
C      1  0.4201840000000  0.4282610000000  0.7355270000000 1.0
C      1  0.4224690000000  0.4421070000000  0.2681370000000 1.0
C      1  0.6833730000000  0.4058220000000  0.4172000000000 1.0
C      1  0.6809050000000  0.4130120000000  0.5778080000000 1.0
C      1  0.4977010000000  0.3814580000000  0.3892240000000 1.0
C      1  0.4850330000000  0.3817290000000  0.6028930000000 1.0
C      1  0.3929240000000  0.2372080000000  0.4526300000000 1.0
C      1  0.3832010000000  0.2413240000000  0.5358630000000 1.0
C      1  0.5994880000000  0.6706720000000  0.5571130000000 1.0
C      1  0.6955590000000  0.7079010000000  0.3722010000000 1.0
C      1  0.6593300000000  0.4445530000000  0.6689600000000 1.0
C      1  0.6714680000000  0.4292390000000  0.3207480000000 1.0
C      1  0.5404440000000  0.5809760000000  0.2779900000000 1.0
C      1  0.5277230000000  0.5685380000000  0.7321240000000 1.0
C      1  0.3358710000000  0.4665970000000  0.6949520000000 1.0
C      1  0.3421490000000  0.4732850000000  0.3218760000000 1.0
C      1  0.6816110000000  0.6337900000000  0.5247900000000 1.0
C      1  0.7137160000000  0.6382720000000  0.4342320000000 1.0
C      1  0.5195370000000  0.3842240000000  0.2803200000000 1.0
C      1  0.5107600000000  0.3650120000000  0.7092190000000 1.0
C      1  0.3875000000000  0.3318380000000  0.5942600000000 1.0
C      1  0.4050510000000  0.3228110000000  0.3884820000000 1.0
C      1  0.6192550000000  0.3744540000000  0.2640650000000 1.0
C      1  0.6123460000000  0.3879140000000  0.7273330000000 1.0
C      1  0.4488460000000  0.6108710000000  0.6948470000000 1.0
C      1  0.4643640000000  0.6129010000000  0.3322580000000 1.0
C      1  0.2910250000000  0.4969900000000  0.4217070000000 1.0
C      1  0.2818090000000  0.4957070000000  0.5968370000000 1.0
C      1  0.3546190000000  0.5723240000000  0.6748890000000 1.0
C      1  0.3706280000000  0.5748650000000  0.3513760000000 1.0
C      1  0.7425200000000  0.4826250000000  0.5426040000000 1.0
C      1  0.7458970000000  0.4768770000000  0.4484950000000 1.0
C      1  0.3275120000000  0.3929320000000  0.3975630000000 1.0
C      1  0.3066100000000  0.3892160000000  0.6228540000000 1.0
C      1  0.7367230000000  0.5541120000000  0.3926240000000 1.0
C      1  0.7189540000000  0.5665460000000  0.5848980000000 1.0
C      1  0.6629980000000  0.6858120000000  0.2886730000000 1.0
C      1  0.6025390000000  0.6841970000000  0.6517650000000 1.0
C      1  0.6739430000000  0.5424120000000  0.6699250000000 1.0
C      1  0.6890480000000  0.5268810000000  0.3109680000000 1.0
C      1  0.4519080000000  0.5865030000000  0.5866340000000 1.0
C      1  0.4647010000000  0.5886000000000  0.4432520000000 1.0
C      1  0.5114030000000  0.4761350000000  0.6929770000000 1.0
C      1  0.5112250000000  0.4896090000000  0.3132460000000 1.0
C      1  0.6328320000000  0.5966320000000  0.2729530000000 1.0
C      1  0.6108120000000  0.6056520000000  0.7055930000000 1.0
C      1  0.3551350000000  0.5750390000000  0.4621380000000 1.0
C      1  0.3462410000000  0.5763610000000  0.5618390000000 1.0
C      1  0.5037460000000  0.4924820000000  0.5855210000000 1.0
C      1  0.5119470000000  0.4905570000000  0.4189550000000 1.0
C      1  0.1283510000000  0.4826450000000  0.5001400000000 1.0
C      1  0.5573150000000  0.5011950000000  0.5058360000000 1.0
C      1  0.4180050000000  0.8209580000000  0.5020360000000 1.0
C      1  0.4163690000000  0.3624850000000  0.4915600000000 1.0
C      1  0.3101060000000  0.3994070000000  0.5097430000000 1.0
C      1  0.4568260000000  0.7457320000000  0.5104040000000 1.0
C      1  0.5037490000000  0.6548000000000  0.5205150000000 1.0
C      1  0.2270130000000  0.4767220000000  0.5053650000000 1.0
C      1  0.5298000000000  0.3713070000000  0.4982500000000 1.0
C      1  0.6330220000000  0.3776590000000  0.4989110000000 1.0
END
