TITL C-3036479-9801-909 0.0726017350681863 3375 -331.073131381197 0 0 60 (C1) n - 1
REM
REM in /home/bkarasulu/work/CARBON/AIRSS/Generating-Clusters/REBO/Higher-Symm/Only-C60
REM
REM
REM
REM
REM
REM ./C.cell (a2850807a9bf4ad07a5b6933b78d9264)
REM AIRSS Version 0.9.1 bugfix July 2018 build 013d7b7c2542+ Fri, 06 Jul 2018 19:26:36 +0100
REM compiler GCC version 9.2.1 20190827 (Red Hat 9.2.1-1)
REM options -cpp -mtune=generic -march=x86-64 -g -O0 -fpre-include=/usr/include/finclude/math-vector-fortran.h
REM seed -1246036364 -879872911 -12942913 732793704 -1411081071 -819401164 1479599497 -1660771374 1996192217 1771689292 -1711717480 1054726655 -289916652 -546158177 -1967312617 -2439818 -411655 -258809573 364071462 -315229042 1021106595 -1027419420 -1755475190 -460120654 939013941 984370492 -1518106551 -1301430480 -1376177598 -135423696 -63095593 685370498 -1005615248
REM
CELL 1.54180   15.00000   15.00000   15.00000   90.00000   90.00000   90.00000
LATT -1
SFAC C  
C      1  0.5478950000000  0.6382800000000  0.3436060000000 1.0
C      1  0.3453010000000  0.6319340000000  0.5241560000000 1.0
C      1  0.6058740000000  0.6380640000000  0.6136250000000 1.0
C      1  0.6483360000000  0.4315800000000  0.5471760000000 1.0
C      1  0.4691730000000  0.4319870000000  0.3381240000000 1.0
C      1  0.3776070000000  0.4344590000000  0.5985550000000 1.0
C      1  0.4640000000000  0.2809740000000  0.6408840000000 1.0
C      1  0.6428370000000  0.2808010000000  0.4512280000000 1.0
C      1  0.3889800000000  0.2811590000000  0.3913620000000 1.0
C      1  0.3165300000000  0.5244710000000  0.6408310000000 1.0
C      1  0.7178860000000  0.5267870000000  0.5798410000000 1.0
C      1  0.4624450000000  0.5275580000000  0.2624960000000 1.0
C      1  0.4670140000000  0.6233560000000  0.2983860000000 1.0
C      1  0.3458600000000  0.6213340000000  0.6162790000000 1.0
C      1  0.6846490000000  0.6227660000000  0.5651590000000 1.0
C      1  0.2522230000000  0.4677040000000  0.5699840000000 1.0
C      1  0.6856800000000  0.4719160000000  0.6682220000000 1.0
C      1  0.5553640000000  0.4722180000000  0.2458280000000 1.0
C      1  0.5431520000000  0.3071350000000  0.5821810000000 1.0
C      1  0.5523420000000  0.3071370000000  0.4121810000000 1.0
C      1  0.4006240000000  0.3072650000000  0.4892380000000 1.0
C      1  0.4786730000000  0.2379420000000  0.4065490000000 1.0
C      1  0.4325810000000  0.2378190000000  0.5555990000000 1.0
C      1  0.5845360000000  0.2378150000000  0.5212320000000 1.0
C      1  0.5735430000000  0.5452770000000  0.6531130000000 1.0
C      1  0.5981880000000  0.5453110000000  0.3509140000000 1.0
C      1  0.3175910000000  0.5437480000000  0.4820740000000 1.0
C      1  0.3726080000000  0.4719950000000  0.2950090000000 1.0
C      1  0.3887170000000  0.4714820000000  0.7042860000000 1.0
C      1  0.7339880000000  0.4716660000000  0.4861670000000 1.0
C      1  0.3951620000000  0.4638060000000  0.5055970000000 1.0
C      1  0.5591980000000  0.4620560000000  0.5774270000000 1.0
C      1  0.5397650000000  0.4617890000000  0.4003540000000 1.0
C      1  0.6862880000000  0.5373830000000  0.4168540000000 1.0
C      1  0.3412550000000  0.5380490000000  0.3749380000000 1.0
C      1  0.4720070000000  0.5377150000000  0.6948800000000 1.0
C      1  0.6009380000000  0.6097430000000  0.4409760000000 1.0
C      1  0.4070900000000  0.6125370000000  0.4308660000000 1.0
C      1  0.4951010000000  0.6096290000000  0.6088220000000 1.0
C      1  0.2655350000000  0.4227950000000  0.5010800000000 1.0
C      1  0.6193090000000  0.4268080000000  0.6924470000000 1.0
C      1  0.6093920000000  0.4271240000000  0.2910420000000 1.0
C      1  0.6496960000000  0.4316190000000  0.3919340000000 1.0
C      1  0.3327230000000  0.4314810000000  0.4157600000000 1.0
C      1  0.5120200000000  0.4315970000000  0.6768330000000 1.0
C      1  0.4270540000000  0.3674590000000  0.6754910000000 1.0
C      1  0.6916580000000  0.3671790000000  0.4655410000000 1.0
C      1  0.3767110000000  0.3677180000000  0.3417130000000 1.0
C      1  0.7061610000000  0.6829190000000  0.4998240000000 1.0
C      1  0.4000220000000  0.6844140000000  0.3107360000000 1.0
C      1  0.3897370000000  0.6836870000000  0.6681440000000 1.0
C      1  0.4986480000000  0.9854820000000  0.4944400000000 1.0
C      1  0.5008040000000  0.6052410000000  0.4950810000000 1.0
C      1  0.4979430000000  0.4912020000000  0.4942030000000 1.0
C      1  0.4986880000000  0.0740260000000  0.4944580000000 1.0
C      1  0.4986270000000  0.8959660000000  0.4943960000000 1.0
C      1  0.4991420000000  0.8066280000000  0.4948330000000 1.0
C      1  0.4987720000000  0.3425670000000  0.4945250000000 1.0
C      1  0.4985960000000  0.1739450000000  0.4944630000000 1.0
C      1  0.5003960000000  0.7184920000000  0.4958520000000 1.0
END
