TITL C-3036481-494-441 0.0472542944623907 3375 -363.183062763567 0 0 60 (C1) n - 1
REM
REM in /home/bkarasulu/work/CARBON/AIRSS/Generating-Clusters/REBO/Higher-Symm/Only-C60
REM
REM
REM
REM
REM
REM ./C.cell (a2850807a9bf4ad07a5b6933b78d9264)
REM AIRSS Version 0.9.1 bugfix July 2018 build 013d7b7c2542+ Fri, 06 Jul 2018 19:26:36 +0100
REM compiler GCC version 9.2.1 20190827 (Red Hat 9.2.1-1)
REM options -cpp -mtune=generic -march=x86-64 -g -O0 -fpre-include=/usr/include/finclude/math-vector-fortran.h
REM seed 1963339805 46869921 -779545139 1999683263 86042285 -1026794720 -1695601478 -484247592 -1355691792 1319477007 -899597622 -370202104 2094892406 -1673685815 1384295415 -1869314927 11789754 181853025 -1346597367 1426563011 88766961 -718924347 1641743678 -1637975875 -625949807 508257115 783492085 -476347871 1472540547 1988996919 -1551153979 -2027147074 467315469
REM
CELL 1.54180   15.00000   15.00000   15.00000   90.00000   90.00000   90.00000
LATT -1
SFAC C  
C      1  0.4079340000000  0.5445550000000  0.2828780000000 1.0
C      1  0.7344150000000  0.5436100000000  0.5288180000000 1.0
C      1  0.3594470000000  0.5503470000000  0.6936120000000 1.0
C      1  0.3962500000000  0.4424970000000  0.2811350000000 1.0
C      1  0.7413160000000  0.4415120000000  0.5190690000000 1.0
C      1  0.3610650000000  0.4471760000000  0.6956010000000 1.0
C      1  0.6162930000000  0.6006510000000  0.6682550000000 1.0
C      1  0.2985900000000  0.5974410000000  0.5184030000000 1.0
C      1  0.5873190000000  0.5996320000000  0.3165350000000 1.0
C      1  0.6192260000000  0.4051630000000  0.6619000000000 1.0
C      1  0.2983380000000  0.4026790000000  0.5205000000000 1.0
C      1  0.5803480000000  0.4048580000000  0.3150820000000 1.0
C      1  0.4718240000000  0.7095290000000  0.4038040000000 1.0
C      1  0.5973290000000  0.7093470000000  0.5238270000000 1.0
C      1  0.4309910000000  0.7093810000000  0.5725860000000 1.0
C      1  0.4705860000000  0.2906340000000  0.4042660000000 1.0
C      1  0.5976990000000  0.2904890000000  0.5222450000000 1.0
C      1  0.4315660000000  0.2905300000000  0.5732160000000 1.0
C      1  0.3640330000000  0.5816690000000  0.3632210000000 1.0
C      1  0.6863400000000  0.5811470000000  0.4516400000000 1.0
C      1  0.4509620000000  0.5845970000000  0.6875500000000 1.0
C      1  0.3591730000000  0.4128230000000  0.3658640000000 1.0
C      1  0.6862340000000  0.4121460000000  0.4437830000000 1.0
C      1  0.4533290000000  0.4154580000000  0.6875400000000 1.0
C      1  0.5999780000000  0.6085520000000  0.4954070000000 1.0
C      1  0.4544550000000  0.6084680000000  0.5895550000000 1.0
C      1  0.4457910000000  0.6086780000000  0.4160640000000 1.0
C      1  0.6003750000000  0.3917680000000  0.4935270000000 1.0
C      1  0.4550980000000  0.3916640000000  0.5893390000000 1.0
C      1  0.4445500000000  0.3918340000000  0.4159750000000 1.0
C      1  0.5041570000000  0.4533100000000  0.2784480000000 1.0
C      1  0.6891650000000  0.4531450000000  0.6145080000000 1.0
C      1  0.3029970000000  0.4493270000000  0.6041810000000 1.0
C      1  0.5139750000000  0.5551030000000  0.2760830000000 1.0
C      1  0.6875880000000  0.5551400000000  0.6246340000000 1.0
C      1  0.3015720000000  0.5519980000000  0.6024010000000 1.0
C      1  0.3015620000000  0.5479990000000  0.4324610000000 1.0
C      1  0.6584380000000  0.5486820000000  0.3624870000000 1.0
C      1  0.5410270000000  0.5500030000000  0.7068280000000 1.0
C      1  0.2999200000000  0.4506780000000  0.4341200000000 1.0
C      1  0.6560670000000  0.4513550000000  0.3590390000000 1.0
C      1  0.5430470000000  0.4526170000000  0.7048100000000 1.0
C      1  0.6028530000000  0.3178010000000  0.6317190000000 1.0
C      1  0.3339750000000  0.3157460000000  0.5215430000000 1.0
C      1  0.5627780000000  0.3171440000000  0.3446580000000 1.0
C      1  0.5995750000000  0.6864450000000  0.6348740000000 1.0
C      1  0.3338610000000  0.6843310000000  0.5200650000000 1.0
C      1  0.5669700000000  0.6858080000000  0.3468180000000 1.0
C      1  0.4040150000000  0.7454540000000  0.4695670000000 1.0
C      1  0.5741680000000  0.7464340000000  0.4328330000000 1.0
C      1  0.5211750000000  0.7466120000000  0.5978120000000 1.0
C      1  0.4039530000000  0.2542960000000  0.4705590000000 1.0
C      1  0.5736200000000  0.2552920000000  0.4306840000000 1.0
C      1  0.5230940000000  0.2556020000000  0.5983770000000 1.0
C      1  0.4235470000000  0.5467220000000  0.5071960000000 1.0
C      1  0.5320890000000  0.5467870000000  0.4304240000000 1.0
C      1  0.5442630000000  0.5465820000000  0.5628210000000 1.0
C      1  0.4235980000000  0.4535700000000  0.5070050000000 1.0
C      1  0.5315820000000  0.4536180000000  0.4298190000000 1.0
C      1  0.5445140000000  0.4535600000000  0.5620280000000 1.0
END
