TITL C-3036479-9801-1037 1.0011895766568e-05 3375 -346.288782844238 0 0 60 (C5) n - 1
REM
REM in /home/bkarasulu/work/CARBON/AIRSS/Generating-Clusters/REBO/Higher-Symm/Only-C60
REM
REM
REM
REM
REM
REM ./C.cell (a2850807a9bf4ad07a5b6933b78d9264)
REM AIRSS Version 0.9.1 bugfix July 2018 build 013d7b7c2542+ Fri, 06 Jul 2018 19:26:36 +0100
REM compiler GCC version 9.2.1 20190827 (Red Hat 9.2.1-1)
REM options -cpp -mtune=generic -march=x86-64 -g -O0 -fpre-include=/usr/include/finclude/math-vector-fortran.h
REM seed 267812323 -528160134 1124785460 1734880725 -282508536 1951657642 300727214 -492353321 1967924049 850883987 693338356 -1170168861 -1190548747 -504033016 -276843310 163837869 1206554620 1836811571 645810656 -594244900 -1311477451 1989924589 -798550121 273939948 1147135067 1667912670 -1469483692 -1701739291 1896727860 580784826 1489282894 2112612778 920390906
REM
CELL 1.54180   15.00000   15.00000   15.00000   90.00000   90.00000   90.00000
LATT -1
SFAC C  
C      1  0.6858200000000  0.4971520000000  0.6213800000000 1.0
C      1  0.5546270000000  0.3222600000000  0.6212340000000 1.0
C      1  0.3477550000000  0.3929880000000  0.6210300000000 1.0
C      1  0.3510940000000  0.6115910000000  0.6210490000000 1.0
C      1  0.5600300000000  0.6759680000000  0.6212660000000 1.0
C      1  0.3281420000000  0.5038950000000  0.6269620000000 1.0
C      1  0.4430820000000  0.3378850000000  0.6270670000000 1.0
C      1  0.6364860000000  0.3959000000000  0.6272670000000 1.0
C      1  0.6410760000000  0.5977650000000  0.6272870000000 1.0
C      1  0.4505090000000  0.6645110000000  0.6270990000000 1.0
C      1  0.5619010000000  0.6929650000000  0.4542250000000 1.0
C      1  0.7026710000000  0.5007930000000  0.4543540000000 1.0
C      1  0.5634050000000  0.3075280000000  0.4541980000000 1.0
C      1  0.3365640000000  0.3802560000000  0.4539730000000 1.0
C      1  0.3356340000000  0.6184690000000  0.4539890000000 1.0
C      1  0.4309190000000  0.6711770000000  0.4575250000000 1.0
C      1  0.3158770000000  0.4871680000000  0.4573940000000 1.0
C      1  0.4553300000000  0.3208940000000  0.4575240000000 1.0
C      1  0.6565590000000  0.4021410000000  0.4577330000000 1.0
C      1  0.6414720000000  0.6186280000000  0.4577340000000 1.0
C      1  0.4419830000000  0.6470580000000  0.2807890000000 1.0
C      1  0.6220640000000  0.6008320000000  0.2809680000000 1.0
C      1  0.6337490000000  0.4152790000000  0.2809670000000 1.0
C      1  0.4608890000000  0.3468260000000  0.2807860000000 1.0
C      1  0.3423710000000  0.4900740000000  0.2806760000000 1.0
C      1  0.5472560000000  0.6504530000000  0.2809430000000 1.0
C      1  0.3716730000000  0.5912440000000  0.2807610000000 1.0
C      1  0.3737260000000  0.4059590000000  0.2807500000000 1.0
C      1  0.5505770000000  0.3506540000000  0.2809250000000 1.0
C      1  0.6578240000000  0.5017600000000  0.2810440000000 1.0
C      1  0.6981250000000  0.3676600000000  0.5450170000000 1.0
C      1  0.4353250000000  0.2706200000000  0.5447440000000 1.0
C      1  0.2618250000000  0.4905700000000  0.5445820000000 1.0
C      1  0.4173960000000  0.7235470000000  0.5447570000000 1.0
C      1  0.6870440000000  0.6475840000000  0.5450250000000 1.0
C      1  0.2892470000000  0.3604750000000  0.5446250000000 1.0
C      1  0.5675270000000  0.2564980000000  0.5449000000000 1.0
C      1  0.7524080000000  0.4890290000000  0.5451040000000 1.0
C      1  0.5883900000000  0.7367150000000  0.5449550000000 1.0
C      1  0.3021420000000  0.6572650000000  0.5446590000000 1.0
C      1  0.5364340000000  0.4187260000000  0.6764730000000 1.0
C      1  0.4338420000000  0.4400440000000  0.6763710000000 1.0
C      1  0.4224150000000  0.5442030000000  0.6763670000000 1.0
C      1  0.5179440000000  0.5872570000000  0.6764670000000 1.0
C      1  0.5884120000000  0.5097080000000  0.6765330000000 1.0
C      1  0.4935980000000  0.1901170000000  0.5516960000000 1.0
C      1  0.3229220000000  0.7544180000000  0.5515600000000 1.0
C      1  0.2032660000000  0.4102660000000  0.5514150000000 1.0
C      1  0.6872050000000  0.7469680000000  0.5519300000000 1.0
C      1  0.7926900000000  0.3982120000000  0.5520130000000 1.0
C      1  0.4175440000000  0.5389900000000  0.4557150000000 1.0
C      1  0.5896850000000  0.5169450000000  0.4558880000000 1.0
C      1  0.5438520000000  0.4199730000000  0.4558340000000 1.0
C      1  0.4374630000000  0.4335980000000  0.4557270000000 1.0
C      1  0.5116230000000  0.5905020000000  0.4558140000000 1.0
C      1  0.6177730000000  0.3500480000000  0.3698400000000 1.0
C      1  0.3938570000000  0.3417730000000  0.3696130000000 1.0
C      1  0.3167940000000  0.5521730000000  0.3695500000000 1.0
C      1  0.6790980000000  0.5655620000000  0.3699180000000 1.0
C      1  0.4930820000000  0.6904820000000  0.3697390000000 1.0
END
