TITL C-3036482-790-884 -3.29632604561877e-05 3375 -335.328286629485 0 0 60 (C3) n - 1
REM
REM in /home/bkarasulu/work/CARBON/AIRSS/Generating-Clusters/REBO/Higher-Symm/Only-C60
REM
REM
REM
REM
REM
REM ./C.cell (a2850807a9bf4ad07a5b6933b78d9264)
REM AIRSS Version 0.9.1 bugfix July 2018 build 013d7b7c2542+ Fri, 06 Jul 2018 19:26:36 +0100
REM compiler GCC version 9.2.1 20190827 (Red Hat 9.2.1-1)
REM options -cpp -mtune=generic -march=x86-64 -g -O0 -fpre-include=/usr/include/finclude/math-vector-fortran.h
REM seed -1330814641 1762398675 -355275937 -1290383676 491029279 2131943642 -227884861 525131444 -1423065276 314962081 -1916851989 -1933535045 1932865263 -1284799183 -1862158007 -699741708 -1254682117 -1428686207 -1058843682 -1020081708 -1342560568 -453038875 520161515 -482561945 -1674170619 -513630220 1725313066 -1350111201 582891464 -1196388775 -1277931202 1542737394 -1067328453
REM
CELL 1.54180   15.00000   15.00000   15.00000   90.00000   90.00000   90.00000
LATT -1
SFAC C  
C      1  0.3075260000000  0.6083190000000  0.4369980000000 1.0
C      1  0.6874100000000  0.6147010000000  0.4369640000000 1.0
C      1  0.5029940000000  0.2825220000000  0.4369530000000 1.0
C      1  0.5475860000000  0.5889020000000  0.2732760000000 1.0
C      1  0.5505300000000  0.4165190000000  0.2732620000000 1.0
C      1  0.3997700000000  0.5001610000000  0.2732820000000 1.0
C      1  0.3366050000000  0.5257790000000  0.3651510000000 1.0
C      1  0.6013730000000  0.6307910000000  0.3651360000000 1.0
C      1  0.5599320000000  0.3489900000000  0.3651170000000 1.0
C      1  0.7283420000000  0.5217820000000  0.4262880000000 1.0
C      1  0.4020560000000  0.2935330000000  0.4262970000000 1.0
C      1  0.3675280000000  0.6902290000000  0.4263340000000 1.0
C      1  0.4013570000000  0.4136240000000  0.3338500000000 1.0
C      1  0.4718610000000  0.6307940000000  0.3338620000000 1.0
C      1  0.6246840000000  0.4611510000000  0.3338350000000 1.0
C      1  0.2968380000000  0.4448340000000  0.4102740000000 1.0
C      1  0.5511650000000  0.7057010000000  0.4102740000000 1.0
C      1  0.6499180000000  0.3550140000000  0.4102370000000 1.0
C      1  0.4301150000000  0.3771440000000  0.4957400000000 1.0
C      1  0.4259230000000  0.6241200000000  0.4957610000000 1.0
C      1  0.6419060000000  0.5042640000000  0.4957330000000 1.0
C      1  0.4094000000000  0.5979110000000  0.6679220000000 1.0
C      1  0.6275030000000  0.5316720000000  0.6678990000000 1.0
C      1  0.4610910000000  0.3759070000000  0.6679010000000 1.0
C      1  0.6096770000000  0.3787930000000  0.6789370000000 1.0
C      1  0.3376050000000  0.4677760000000  0.6789670000000 1.0
C      1  0.5507100000000  0.6589110000000  0.6789650000000 1.0
C      1  0.4694970000000  0.4059350000000  0.4024820000000 1.0
C      1  0.4311460000000  0.5756240000000  0.4024990000000 1.0
C      1  0.5972760000000  0.5239930000000  0.4024800000000 1.0
C      1  0.4895610000000  0.5969250000000  0.7125130000000 1.0
C      1  0.5865770000000  0.4627410000000  0.7124940000000 1.0
C      1  0.4218630000000  0.4458110000000  0.7125060000000 1.0
C      1  0.2814860000000  0.5286270000000  0.6092970000000 1.0
C      1  0.6314550000000  0.6770910000000  0.6092790000000 1.0
C      1  0.5850360000000  0.2997780000000  0.6092530000000 1.0
C      1  0.5301630000000  0.2951140000000  0.5269910000000 1.0
C      1  0.3048660000000  0.5784880000000  0.5270350000000 1.0
C      1  0.6629260000000  0.6319170000000  0.5270080000000 1.0
C      1  0.5268200000000  0.7831610000000  0.4925370000000 1.0
C      1  0.7291880000000  0.3373630000000  0.4924840000000 1.0
C      1  0.2419330000000  0.3850030000000  0.4925280000000 1.0
C      1  0.3105040000000  0.3318170000000  0.4181410000000 1.0
C      1  0.4464570000000  0.7503730000000  0.4181650000000 1.0
C      1  0.7409620000000  0.4233560000000  0.4181140000000 1.0
C      1  0.6452020000000  0.4089560000000  0.5095370000000 1.0
C      1  0.3459300000000  0.4219410000000  0.5095630000000 1.0
C      1  0.5068140000000  0.6746260000000  0.5095710000000 1.0
C      1  0.2767170000000  0.4199450000000  0.5951880000000 1.0
C      1  0.5397130000000  0.7355590000000  0.5951910000000 1.0
C      1  0.6815380000000  0.3499960000000  0.5951480000000 1.0
C      1  0.5951910000000  0.5538800000000  0.5741560000000 1.0
C      1  0.4964580000000  0.3927910000000  0.5741500000000 1.0
C      1  0.4063180000000  0.5588400000000  0.5741730000000 1.0
C      1  0.4993200000000  0.5018390000000  0.5475590000000 1.0
C      1  0.4993430000000  0.5018160000000  0.8502640000000 1.0
C      1  0.4992900000000  0.5018660000000  0.2122030000000 1.0
C      1  0.4993100000000  0.5018470000000  0.4440440000000 1.0
C      1  0.4992990000000  0.5018570000000  0.3163170000000 1.0
C      1  0.4993360000000  0.5018230000000  0.7566710000000 1.0
END
