TITL C-3036483-1610-890 8.92395536261676e-07 3375 -356.521488187666 0 0 60 (C1) n - 1
REM
REM in /home/bkarasulu/work/CARBON/AIRSS/Generating-Clusters/REBO/Higher-Symm/Only-C60
REM
REM
REM
REM
REM
REM ./C.cell (a2850807a9bf4ad07a5b6933b78d9264)
REM AIRSS Version 0.9.1 bugfix July 2018 build 013d7b7c2542+ Fri, 06 Jul 2018 19:26:36 +0100
REM compiler GCC version 9.2.1 20190827 (Red Hat 9.2.1-1)
REM options -cpp -mtune=generic -march=x86-64 -g -O0 -fpre-include=/usr/include/finclude/math-vector-fortran.h
REM seed -1762559052 -1335549145 860071461 -1983502516 560635706 1868422776 514306458 1501881955 -2026826311 -1812543558 1819484592 1156969868 1775709580 84024077 1895604559 -2134752958 407773588 -1589567809 -1805281067 -164302827 -998294860 -556544103 -1286269572 2011466030 -2141605576 -1898342326 -1872192133 2084063505 -970486239 -1147234580 -1294707199 -1610905213 707291423
REM
CELL 1.54180   15.00000   15.00000   15.00000   90.00000   90.00000   90.00000
LATT -1
SFAC C  
C      1  0.2353510000000  0.3788070000000  0.3798820000000 1.0
C      1  0.7603230000000  0.6128350000000  0.3910800000000 1.0
C      1  0.2327130000000  0.3945140000000  0.6173570000000 1.0
C      1  0.7708320000000  0.6145900000000  0.6292470000000 1.0
C      1  0.4657290000000  0.2789120000000  0.4550340000000 1.0
C      1  0.5335780000000  0.7206140000000  0.4561570000000 1.0
C      1  0.4497350000000  0.2710160000000  0.5538480000000 1.0
C      1  0.5494440000000  0.7280760000000  0.5549830000000 1.0
C      1  0.4630430000000  0.4672970000000  0.6779080000000 1.0
C      1  0.5386410000000  0.5309800000000  0.6778670000000 1.0
C      1  0.4623710000000  0.4670210000000  0.3186470000000 1.0
C      1  0.5361210000000  0.5335830000000  0.3185380000000 1.0
C      1  0.2915900000000  0.5744530000000  0.5996140000000 1.0
C      1  0.7143020000000  0.4322800000000  0.5951050000000 1.0
C      1  0.2858970000000  0.5633010000000  0.4000950000000 1.0
C      1  0.7100620000000  0.4311280000000  0.3951850000000 1.0
C      1  0.8114420000000  0.5669740000000  0.5595790000000 1.0
C      1  0.1928020000000  0.4461680000000  0.5489620000000 1.0
C      1  0.8046300000000  0.5583480000000  0.4545430000000 1.0
C      1  0.1909890000000  0.4299970000000  0.4446430000000 1.0
C      1  0.5500780000000  0.3467890000000  0.4429510000000 1.0
C      1  0.4493890000000  0.6525430000000  0.4437030000000 1.0
C      1  0.5371820000000  0.3394590000000  0.5489490000000 1.0
C      1  0.4624170000000  0.6591970000000  0.5497400000000 1.0
C      1  0.3054910000000  0.5447660000000  0.6902160000000 1.0
C      1  0.7003270000000  0.4590610000000  0.6866110000000 1.0
C      1  0.2985370000000  0.5322190000000  0.3097420000000 1.0
C      1  0.6969630000000  0.4647080000000  0.3058390000000 1.0
C      1  0.4136660000000  0.4730230000000  0.4148860000000 1.0
C      1  0.5854860000000  0.5268660000000  0.4147900000000 1.0
C      1  0.4125490000000  0.4740770000000  0.5825990000000 1.0
C      1  0.5886370000000  0.5254570000000  0.5825650000000 1.0
C      1  0.6472310000000  0.5375110000000  0.7014880000000 1.0
C      1  0.3545680000000  0.4632300000000  0.7018100000000 1.0
C      1  0.6448220000000  0.5447420000000  0.2971980000000 1.0
C      1  0.3535650000000  0.4545460000000  0.2976680000000 1.0
C      1  0.3186440000000  0.3737910000000  0.3355830000000 1.0
C      1  0.6808000000000  0.6225040000000  0.3407940000000 1.0
C      1  0.3136160000000  0.3846660000000  0.6651570000000 1.0
C      1  0.6861540000000  0.6193280000000  0.6708290000000 1.0
C      1  0.3932480000000  0.3905100000000  0.4537790000000 1.0
C      1  0.6063290000000  0.6092000000000  0.4537650000000 1.0
C      1  0.3905600000000  0.3908170000000  0.5443630000000 1.0
C      1  0.6089630000000  0.6092490000000  0.5443170000000 1.0
C      1  0.3934790000000  0.3110600000000  0.3770750000000 1.0
C      1  0.6058850000000  0.6892010000000  0.3777970000000 1.0
C      1  0.3838330000000  0.3161750000000  0.6270540000000 1.0
C      1  0.6156430000000  0.6829400000000  0.6278200000000 1.0
C      1  0.3669630000000  0.5481900000000  0.4504910000000 1.0
C      1  0.6323030000000  0.4513140000000  0.4491710000000 1.0
C      1  0.3683580000000  0.5502040000000  0.5459110000000 1.0
C      1  0.6339380000000  0.4504980000000  0.5446110000000 1.0
C      1  0.7926040000000  0.4637850000000  0.5469420000000 1.0
C      1  0.2090960000000  0.5505020000000  0.5549130000000 1.0
C      1  0.7914820000000  0.4541980000000  0.4419160000000 1.0
C      1  0.2084110000000  0.5340210000000  0.4506800000000 1.0
C      1  0.4846020000000  0.3684830000000  0.6352340000000 1.0
C      1  0.5152530000000  0.6299180000000  0.6358510000000 1.0
C      1  0.4888010000000  0.3711150000000  0.3632870000000 1.0
C      1  0.5105310000000  0.6292430000000  0.3636330000000 1.0
END
