TITL C-3036483-1610-354 0.071264288176637 3375 -341.472887635748 0 0 60 (Ci) n - 1
REM
REM in /home/bkarasulu/work/CARBON/AIRSS/Generating-Clusters/REBO/Higher-Symm/Only-C60
REM
REM
REM
REM
REM
REM ./C.cell (a2850807a9bf4ad07a5b6933b78d9264)
REM AIRSS Version 0.9.1 bugfix July 2018 build 013d7b7c2542+ Fri, 06 Jul 2018 19:26:36 +0100
REM compiler GCC version 9.2.1 20190827 (Red Hat 9.2.1-1)
REM options -cpp -mtune=generic -march=x86-64 -g -O0 -fpre-include=/usr/include/finclude/math-vector-fortran.h
REM seed -1228654104 -325705126 1222756138 -967703539 -1141619339 -896855531 725667583 -94423769 1381435330 -2023247196 -100278307 1621153126 1799393621 1945760751 1857568925 1445494027 353723142 -1996370180 -814993382 -671552205 2049154565 107372031 222021994 1756460055 449500013 -550864186 -1088277388 -1035542038 1984487496 709213094 -1690330573 -1250187514 1071577259
REM
CELL 1.54180   15.00000   15.00000   15.00000   90.00000   90.00000   90.00000
LATT -1
SFAC C  
C      1  0.5658290000000  0.5591860000000  0.6598650000000 1.0
C      1  0.6681680000000  0.4350440000000  0.5241450000000 1.0
C      1  0.6053030000000  0.5640470000000  0.3679910000000 1.0
C      1  0.4341710000000  0.4408130000000  0.3401350000000 1.0
C      1  0.3318320000000  0.5649560000000  0.4758550000000 1.0
C      1  0.3946970000000  0.4359530000000  0.6320090000000 1.0
C      1  0.5120860000000  0.4345630000000  0.7142990000000 1.0
C      1  0.6846180000000  0.5621760000000  0.5959660000000 1.0
C      1  0.6767490000000  0.4352430000000  0.3845300000000 1.0
C      1  0.4879140000000  0.5654380000000  0.2857010000000 1.0
C      1  0.3153820000000  0.4378240000000  0.4040340000000 1.0
C      1  0.3232510000000  0.5647570000000  0.6154700000000 1.0
C      1  0.4615660000000  0.4108410000000  0.2350190000000 1.0
C      1  0.2523440000000  0.5909440000000  0.4019540000000 1.0
C      1  0.2900850000000  0.4106790000000  0.6643690000000 1.0
C      1  0.5384340000000  0.5891590000000  0.7649820000000 1.0
C      1  0.7476560000000  0.4090560000000  0.5980460000000 1.0
C      1  0.7099150000000  0.5893210000000  0.3356310000000 1.0
C      1  0.7104640000000  0.5576720000000  0.4945230000000 1.0
C      1  0.5994240000000  0.4422730000000  0.3144280000000 1.0
C      1  0.3872800000000  0.5627680000000  0.3153200000000 1.0
C      1  0.2895370000000  0.4423290000000  0.5054770000000 1.0
C      1  0.4005760000000  0.5577270000000  0.6855720000000 1.0
C      1  0.6127200000000  0.4372330000000  0.6846800000000 1.0
C      1  0.4616550000000  0.4906900000000  0.4138670000000 1.0
C      1  0.4070930000000  0.5129130000000  0.4899110000000 1.0
C      1  0.4445990000000  0.4901900000000  0.5756340000000 1.0
C      1  0.5383450000000  0.5093100000000  0.5861330000000 1.0
C      1  0.5929070000000  0.4870870000000  0.5100890000000 1.0
C      1  0.5554010000000  0.5098100000000  0.4243660000000 1.0
C      1  0.4102220000000  0.3402410000000  0.2987290000000 1.0
C      1  0.2738930000000  0.6592090000000  0.4832570000000 1.0
C      1  0.3707770000000  0.3425790000000  0.6867110000000 1.0
C      1  0.5897780000000  0.6597590000000  0.7012710000000 1.0
C      1  0.7261070000000  0.3407910000000  0.5167430000000 1.0
C      1  0.6292230000000  0.6574210000000  0.3132890000000 1.0
C      1  0.4885090000000  0.6848980000000  0.4332750000000 1.0
C      1  0.4404600000000  0.3154890000000  0.4814040000000 1.0
C      1  0.4506360000000  0.6839200000000  0.5382280000000 1.0
C      1  0.5114910000000  0.3151020000000  0.5667250000000 1.0
C      1  0.5595400000000  0.6845110000000  0.5185960000000 1.0
C      1  0.5493640000000  0.3160800000000  0.4617710000000 1.0
C      1  0.4741010000000  0.3376290000000  0.6716280000000 1.0
C      1  0.6297750000000  0.6611580000000  0.6045650000000 1.0
C      1  0.6581140000000  0.3364560000000  0.4363820000000 1.0
C      1  0.5258990000000  0.6623710000000  0.3283720000000 1.0
C      1  0.3702260000000  0.3388420000000  0.3954350000000 1.0
C      1  0.3418860000000  0.6635440000000  0.5636170000000 1.0
C      1  0.4164140000000  0.6517560000000  0.3552450000000 1.0
C      1  0.3383510000000  0.3533310000000  0.5028640000000 1.0
C      1  0.4240720000000  0.6459350000000  0.6394890000000 1.0
C      1  0.5835860000000  0.3482440000000  0.6447550000000 1.0
C      1  0.6616490000000  0.6466690000000  0.4971360000000 1.0
C      1  0.5759290000000  0.3540650000000  0.3605110000000 1.0
C      1  0.4683470000000  0.5165830000000  0.7393880000000 1.0
C      1  0.6894280000000  0.4806590000000  0.6470600000000 1.0
C      1  0.7222720000000  0.5163680000000  0.4089520000000 1.0
C      1  0.5316530000000  0.4834170000000  0.2606120000000 1.0
C      1  0.3105730000000  0.5193410000000  0.3529400000000 1.0
C      1  0.2777280000000  0.4836320000000  0.5910480000000 1.0
END
