TITL C-3036486-2224-665 1.40145838381154e-05 3375 -343.547552973653 0 0 60 (C1) n - 1
REM
REM in /home/bkarasulu/work/CARBON/AIRSS/Generating-Clusters/REBO/Higher-Symm/Only-C60
REM
REM
REM
REM
REM
REM ./C.cell (a2850807a9bf4ad07a5b6933b78d9264)
REM AIRSS Version 0.9.1 bugfix July 2018 build 013d7b7c2542+ Fri, 06 Jul 2018 19:26:36 +0100
REM compiler GCC version 9.2.1 20190827 (Red Hat 9.2.1-1)
REM options -cpp -mtune=generic -march=x86-64 -g -O0 -fpre-include=/usr/include/finclude/math-vector-fortran.h
REM seed -1583296316 -1496664466 -631253783 813915560 -1463168656 580489217 1924480927 958822413 574976930 1017734892 -498820524 1906903640 -983453352 -370972900 -95576623 200881728 -1329595856 -1131160021 -351134492 762363889 506590457 -1244025106 -622555339 1437653697 -1639584051 -508897980 -567723802 145933099 166571073 -397071093 -656846140 -1158306776 -865994931
REM
CELL 1.54180   15.00000   15.00000   15.00000   90.00000   90.00000   90.00000
LATT -1
SFAC C  
C      1  0.3865990000000  0.2346550000000  0.4644840000000 1.0
C      1  0.4711540000000  0.6611510000000  0.4405080000000 1.0
C      1  0.6112070000000  0.7145720000000  0.4897890000000 1.0
C      1  0.5867860000000  0.5513630000000  0.2613880000000 1.0
C      1  0.6840190000000  0.3687400000000  0.3477390000000 1.0
C      1  0.7166050000000  0.5988390000000  0.4589880000000 1.0
C      1  0.3792260000000  0.2879740000000  0.5372660000000 1.0
C      1  0.5256640000000  0.6880830000000  0.6276420000000 1.0
C      1  0.6021870000000  0.3750720000000  0.6260630000000 1.0
C      1  0.2994440000000  0.3348910000000  0.3299120000000 1.0
C      1  0.4615900000000  0.3577660000000  0.3755620000000 1.0
C      1  0.6589910000000  0.5968720000000  0.3081970000000 1.0
C      1  0.3512430000000  0.3674830000000  0.4011450000000 1.0
C      1  0.5150510000000  0.7188020000000  0.5003680000000 1.0
C      1  0.4955960000000  0.4681570000000  0.5709880000000 1.0
C      1  0.4066460000000  0.2772460000000  0.7286200000000 1.0
C      1  0.4802490000000  0.5887370000000  0.3835270000000 1.0
C      1  0.3899470000000  0.4668630000000  0.5352770000000 1.0
C      1  0.6536670000000  0.4763670000000  0.4732080000000 1.0
C      1  0.6509670000000  0.6906420000000  0.3237580000000 1.0
C      1  0.4270340000000  0.5899440000000  0.7049680000000 1.0
C      1  0.3382180000000  0.6429020000000  0.6562770000000 1.0
C      1  0.6533000000000  0.5968670000000  0.6109810000000 1.0
C      1  0.4976760000000  0.5915410000000  0.2800100000000 1.0
C      1  0.2892180000000  0.3757630000000  0.4932950000000 1.0
C      1  0.7218220000000  0.4514040000000  0.3878830000000 1.0
C      1  0.3510520000000  0.7243560000000  0.5764520000000 1.0
C      1  0.5030680000000  0.4422100000000  0.4699680000000 1.0
C      1  0.6397240000000  0.7382180000000  0.4011400000000 1.0
C      1  0.5990500000000  0.4941960000000  0.5458470000000 1.0
C      1  0.3178090000000  0.5030910000000  0.6072200000000 1.0
C      1  0.4183000000000  0.5196680000000  0.2884350000000 1.0
C      1  0.4094120000000  0.3606130000000  0.6876680000000 1.0
C      1  0.4536700000000  0.7580130000000  0.5805950000000 1.0
C      1  0.6655470000000  0.6412570000000  0.5272970000000 1.0
C      1  0.6411990000000  0.3863230000000  0.2657060000000 1.0
C      1  0.4977990000000  0.3946160000000  0.6510050000000 1.0
C      1  0.5766990000000  0.4543180000000  0.2579980000000 1.0
C      1  0.5281360000000  0.5580320000000  0.7067540000000 1.0
C      1  0.5382170000000  0.3506170000000  0.4558260000000 1.0
C      1  0.4887780000000  0.4939310000000  0.3981070000000 1.0
C      1  0.4224580000000  0.2564440000000  0.3834270000000 1.0
C      1  0.2634760000000  0.4329460000000  0.5590220000000 1.0
C      1  0.6529590000000  0.3127340000000  0.4149720000000 1.0
C      1  0.3635040000000  0.4695640000000  0.4361720000000 1.0
C      1  0.7082200000000  0.5530310000000  0.3762800000000 1.0
C      1  0.3625870000000  0.5284610000000  0.3662380000000 1.0
C      1  0.3639480000000  0.4375900000000  0.7391440000000 1.0
C      1  0.2568690000000  0.6762490000000  0.5893840000000 1.0
C      1  0.7571090000000  0.4341780000000  0.4919180000000 1.0
C      1  0.5811610000000  0.6272930000000  0.6644330000000 1.0
C      1  0.4304610000000  0.7004130000000  0.6779060000000 1.0
C      1  0.5714000000000  0.4669080000000  0.6891090000000 1.0
C      1  0.4877220000000  0.4349600000000  0.3040500000000 1.0
C      1  0.3526460000000  0.5156300000000  0.6929540000000 1.0
C      1  0.6641680000000  0.4920770000000  0.6339340000000 1.0
C      1  0.1712260000000  0.6679430000000  0.5644980000000 1.0
C      1  0.6222340000000  0.3346400000000  0.5219740000000 1.0
C      1  0.3875090000000  0.3649540000000  0.5827350000000 1.0
C      1  0.6977770000000  0.4018320000000  0.5739890000000 1.0
END
