TITL C-3036482-790-697 5.32582710106771e-06 3375 -316.079609737027 0 0 60 (C12) n - 1
REM
REM in /home/bkarasulu/work/CARBON/AIRSS/Generating-Clusters/REBO/Higher-Symm/Only-C60
REM
REM
REM
REM
REM
REM ./C.cell (a2850807a9bf4ad07a5b6933b78d9264)
REM AIRSS Version 0.9.1 bugfix July 2018 build 013d7b7c2542+ Fri, 06 Jul 2018 19:26:36 +0100
REM compiler GCC version 9.2.1 20190827 (Red Hat 9.2.1-1)
REM options -cpp -mtune=generic -march=x86-64 -g -O0 -fpre-include=/usr/include/finclude/math-vector-fortran.h
REM seed -1378875909 499811733 -322392504 619122977 -385252693 -1666130724 528462040 -2127902380 683020295 -843834709 -1606636390 653760537 56713128 -946527910 -499422742 748273615 110871515 -479702272 -741940038 1125911614 -185814640 1877453593 1533181462 1471877327 -2015140445 -1053371032 -2005571991 1244140541 -1197837958 313100429 -1633042409 281085085 -1619505833
REM
CELL 1.54180   15.00000   15.00000   15.00000   90.00000   90.00000   90.00000
LATT -1
SFAC C  
C      1  0.5098670000000  0.3323140000000  0.5475720000000 1.0
C      1  0.5098670000000  0.3785660000000  0.6250410000000 1.0
C      1  0.5098670000000  0.4573560000000  0.6690060000000 1.0
C      1  0.5098670000000  0.5475720000000  0.6676860000000 1.0
C      1  0.5098670000000  0.6250410000000  0.6214340000000 1.0
C      1  0.5098670000000  0.6690060000000  0.5426440000000 1.0
C      1  0.5098670000000  0.6676860000000  0.4524280000000 1.0
C      1  0.5098670000000  0.6214340000000  0.3749590000000 1.0
C      1  0.5098670000000  0.5426440000000  0.3309940000000 1.0
C      1  0.5098670000000  0.4524280000000  0.3323140000000 1.0
C      1  0.5098670000000  0.3749590000000  0.3785660000000 1.0
C      1  0.5098670000000  0.3309940000000  0.4573560000000 1.0
C      1  0.5396050000000  0.2317380000000  0.5715770000000 1.0
C      1  0.5396050000000  0.3034670000000  0.6961180000000 1.0
C      1  0.5396050000000  0.4278560000000  0.7681100000000 1.0
C      1  0.5396050000000  0.5715770000000  0.7682620000000 1.0
C      1  0.5396050000000  0.6961180000000  0.6965330000000 1.0
C      1  0.5396050000000  0.7681100000000  0.5721440000000 1.0
C      1  0.5396050000000  0.7682620000000  0.4284230000000 1.0
C      1  0.5396050000000  0.6965330000000  0.3038820000000 1.0
C      1  0.5396050000000  0.5721440000000  0.2318900000000 1.0
C      1  0.5396050000000  0.4284230000000  0.2317380000000 1.0
C      1  0.5396050000000  0.3038820000000  0.3034670000000 1.0
C      1  0.5396050000000  0.2318900000000  0.4278560000000 1.0
C      1  0.4361900000000  0.7063450000000  0.3040210000000 1.0
C      1  0.4361900000000  0.5807110000000  0.2271050000000 1.0
C      1  0.4361900000000  0.4334500000000  0.2233110000000 1.0
C      1  0.4361900000000  0.3040210000000  0.2936550000000 1.0
C      1  0.4361900000000  0.2271050000000  0.4192890000000 1.0
C      1  0.4361900000000  0.2233110000000  0.5665500000000 1.0
C      1  0.4361900000000  0.2936550000000  0.6959790000000 1.0
C      1  0.4361900000000  0.4192890000000  0.7728950000000 1.0
C      1  0.4361900000000  0.5665500000000  0.7766890000000 1.0
C      1  0.4361900000000  0.6959790000000  0.7063450000000 1.0
C      1  0.4361900000000  0.7728950000000  0.5807110000000 1.0
C      1  0.4361900000000  0.7766890000000  0.4334500000000 1.0
C      1  0.3793360000000  0.3635200000000  0.3548280000000 1.0
C      1  0.3793360000000  0.3092190000000  0.4425180000000 1.0
C      1  0.3793360000000  0.3060380000000  0.5456090000000 1.0
C      1  0.3793360000000  0.3548280000000  0.6364800000000 1.0
C      1  0.3793360000000  0.4425180000000  0.6907810000000 1.0
C      1  0.3793360000000  0.5456090000000  0.6939620000000 1.0
C      1  0.3793360000000  0.6364800000000  0.6451720000000 1.0
C      1  0.3793360000000  0.6907810000000  0.5574820000000 1.0
C      1  0.3793360000000  0.6939620000000  0.4543910000000 1.0
C      1  0.3793360000000  0.6451720000000  0.3635200000000 1.0
C      1  0.3793360000000  0.5574820000000  0.3092190000000 1.0
C      1  0.3793360000000  0.4543910000000  0.3060380000000 1.0
C      1  0.6350020000000  0.5661400000000  0.2934750000000 1.0
C      1  0.6350020000000  0.4540160000000  0.2880740000000 1.0
C      1  0.6350020000000  0.3542140000000  0.3394580000000 1.0
C      1  0.6350020000000  0.2934750000000  0.4338600000000 1.0
C      1  0.6350020000000  0.2880740000000  0.5459840000000 1.0
C      1  0.6350020000000  0.3394580000000  0.6457860000000 1.0
C      1  0.6350020000000  0.4338600000000  0.7065250000000 1.0
C      1  0.6350020000000  0.5459840000000  0.7119260000000 1.0
C      1  0.6350020000000  0.6457860000000  0.6605420000000 1.0
C      1  0.6350020000000  0.7065250000000  0.5661400000000 1.0
C      1  0.6350020000000  0.7119260000000  0.4540160000000 1.0
C      1  0.6350020000000  0.6605420000000  0.3542140000000 1.0
END
