TITL C-3036483-1610-937 0.00476324665856893 3375 -354.108938178025 0 0 60 (C1) n - 1
REM
REM in /home/bkarasulu/work/CARBON/AIRSS/Generating-Clusters/REBO/Higher-Symm/Only-C60
REM
REM
REM
REM
REM
REM ./C.cell (a2850807a9bf4ad07a5b6933b78d9264)
REM AIRSS Version 0.9.1 bugfix July 2018 build 013d7b7c2542+ Fri, 06 Jul 2018 19:26:36 +0100
REM compiler GCC version 9.2.1 20190827 (Red Hat 9.2.1-1)
REM options -cpp -mtune=generic -march=x86-64 -g -O0 -fpre-include=/usr/include/finclude/math-vector-fortran.h
REM seed 1923087567 -1271028302 -914057521 -1130753203 -678228868 -872831366 -1722512433 256824072 799026355 -2059003652 -600358560 240024761 -1468004565 2062458936 -2039438740 1961897606 -731589373 1412687556 -16733835 1840418828 730010094 -1700667279 1792834866 2127547791 973757133 1485593138 1023556246 1591471838 -889006183 -1652499110 1165665940 -2036081598 -390531240
REM
CELL 1.54180   15.00000   15.00000   15.00000   90.00000   90.00000   90.00000
LATT -1
SFAC C  
C      1  0.6599700000000  0.3919070000000  0.3939800000000 1.0
C      1  0.4745760000000  0.5926070000000  0.7019030000000 1.0
C      1  0.4854800000000  0.4970840000000  0.2484660000000 1.0
C      1  0.5887230000000  0.5629200000000  0.6155220000000 1.0
C      1  0.3889710000000  0.5248730000000  0.7308770000000 1.0
C      1  0.2696200000000  0.5298780000000  0.4422960000000 1.0
C      1  0.5900960000000  0.3434790000000  0.5992840000000 1.0
C      1  0.7798750000000  0.6315830000000  0.5092000000000 1.0
C      1  0.3715650000000  0.3554590000000  0.6692710000000 1.0
C      1  0.2789760000000  0.5431040000000  0.5363370000000 1.0
C      1  0.6139210000000  0.4898340000000  0.4788490000000 1.0
C      1  0.7134960000000  0.4791160000000  0.4089450000000 1.0
C      1  0.3442170000000  0.4223660000000  0.3218060000000 1.0
C      1  0.6088560000000  0.6871620000000  0.5707230000000 1.0
C      1  0.4660550000000  0.3248550000000  0.4059840000000 1.0
C      1  0.4594110000000  0.3576100000000  0.7095020000000 1.0
C      1  0.5715190000000  0.4901530000000  0.2920120000000 1.0
C      1  0.6576320000000  0.4977920000000  0.6629860000000 1.0
C      1  0.3043040000000  0.5854340000000  0.3742430000000 1.0
C      1  0.3414060000000  0.5326050000000  0.3021210000000 1.0
C      1  0.6008490000000  0.3952660000000  0.3188570000000 1.0
C      1  0.5647910000000  0.5259010000000  0.7185150000000 1.0
C      1  0.5239800000000  0.3079750000000  0.4816780000000 1.0
C      1  0.5191370000000  0.3041590000000  0.6545070000000 1.0
C      1  0.4007400000000  0.5207300000000  0.6176550000000 1.0
C      1  0.6951340000000  0.6376830000000  0.5628560000000 1.0
C      1  0.7899520000000  0.5420910000000  0.4642470000000 1.0
C      1  0.5381090000000  0.5776820000000  0.5444410000000 1.0
C      1  0.4378740000000  0.5613610000000  0.5262250000000 1.0
C      1  0.4252470000000  0.4199410000000  0.2472670000000 1.0
C      1  0.3910010000000  0.6556100000000  0.4925250000000 1.0
C      1  0.4947140000000  0.7035810000000  0.5483630000000 1.0
C      1  0.3243670000000  0.3754770000000  0.5105090000000 1.0
C      1  0.5652180000000  0.5376870000000  0.3919720000000 1.0
C      1  0.3302300000000  0.4486940000000  0.6707690000000 1.0
C      1  0.6258240000000  0.3447420000000  0.4716440000000 1.0
C      1  0.5635240000000  0.4313630000000  0.5515750000000 1.0
C      1  0.5304300000000  0.6769350000000  0.6521180000000 1.0
C      1  0.4281100000000  0.5698790000000  0.2772370000000 1.0
C      1  0.6582660000000  0.6552540000000  0.4132490000000 1.0
C      1  0.3795880000000  0.3213830000000  0.5788130000000 1.0
C      1  0.4224610000000  0.6534360000000  0.6210590000000 1.0
C      1  0.6901650000000  0.5837780000000  0.3877880000000 1.0
C      1  0.4488980000000  0.6406220000000  0.3419960000000 1.0
C      1  0.3271560000000  0.6204360000000  0.5692280000000 1.0
C      1  0.6811690000000  0.3680270000000  0.5607180000000 1.0
C      1  0.2876750000000  0.4328350000000  0.4196290000000 1.0
C      1  0.2909060000000  0.4584180000000  0.5756130000000 1.0
C      1  0.3674910000000  0.3521980000000  0.4083430000000 1.0
C      1  0.4723210000000  0.2926000000000  0.5632620000000 1.0
C      1  0.4802350000000  0.4600580000000  0.7133380000000 1.0
C      1  0.6985990000000  0.5291900000000  0.5302370000000 1.0
C      1  0.4189900000000  0.4938600000000  0.4500090000000 1.0
C      1  0.4800070000000  0.4748070000000  0.3868980000000 1.0
C      1  0.5046870000000  0.3906980000000  0.3500750000000 1.0
C      1  0.4931700000000  0.4657380000000  0.6004590000000 1.0
C      1  0.5680920000000  0.6931600000000  0.4660280000000 1.0
C      1  0.5299400000000  0.6323930000000  0.3891780000000 1.0
C      1  0.3704510000000  0.6536010000000  0.3993070000000 1.0
C      1  0.7118330000000  0.4509300000000  0.5975030000000 1.0
END
