TITL C-3036479-9801-427 6.24421415848504e-06 3375 -316.603961006348 0 0 60 (C3i) n - 1
REM
REM in /home/bkarasulu/work/CARBON/AIRSS/Generating-Clusters/REBO/Higher-Symm/Only-C60
REM
REM
REM
REM
REM
REM ./C.cell (a2850807a9bf4ad07a5b6933b78d9264)
REM AIRSS Version 0.9.1 bugfix July 2018 build 013d7b7c2542+ Fri, 06 Jul 2018 19:26:36 +0100
REM compiler GCC version 9.2.1 20190827 (Red Hat 9.2.1-1)
REM options -cpp -mtune=generic -march=x86-64 -g -O0 -fpre-include=/usr/include/finclude/math-vector-fortran.h
REM seed 960834669 1074595995 291238135 -674222327 668385989 -2003135574 2084641277 -1863863180 -678024632 514447273 -913700691 799488699 1973934989 980950753 -423948185 -1371004195 1536119005 -1529954029 653191967 -1238363686 -30729204 -18041182 -1683764625 -532935921 1851307879 825992557 -218366171 -2003293632 1293222897 -2023602853 2026368052 1678876969 456118370
REM
CELL 1.54180   15.00000   15.00000   15.00000   90.00000   90.00000   90.00000
LATT -1
SFAC C  
C      1  0.4823530000000  0.4104530000000  0.6824810000000 1.0
C      1  0.5176470000000  0.2971930000000  0.5136910000000 1.0
C      1  0.4823530000000  0.3867400000000  0.3312090000000 1.0
C      1  0.5176470000000  0.5895470000000  0.3175190000000 1.0
C      1  0.4823530000000  0.7028070000000  0.4863090000000 1.0
C      1  0.5176470000000  0.6132600000000  0.6687910000000 1.0
C      1  0.7579130000000  0.5316200000000  0.5538380000000 1.0
C      1  0.2420870000000  0.4691850000000  0.5543040000000 1.0
C      1  0.7579130000000  0.4375640000000  0.5004640000000 1.0
C      1  0.2420870000000  0.4683800000000  0.4461620000000 1.0
C      1  0.7579130000000  0.5308150000000  0.4456960000000 1.0
C      1  0.2420870000000  0.5624360000000  0.4995360000000 1.0
C      1  0.3370060000000  0.4558170000000  0.6080760000000 1.0
C      1  0.6629940000000  0.3843120000000  0.5157740000000 1.0
C      1  0.3370060000000  0.4284950000000  0.4076990000000 1.0
C      1  0.6629940000000  0.5441830000000  0.3919240000000 1.0
C      1  0.3370060000000  0.6156880000000  0.4842260000000 1.0
C      1  0.6629940000000  0.5715050000000  0.5923010000000 1.0
C      1  0.3943100000000  0.5503680000000  0.2950330000000 1.0
C      1  0.6056900000000  0.7026910000000  0.4411360000000 1.0
C      1  0.3943100000000  0.6523230000000  0.6461040000000 1.0
C      1  0.6056900000000  0.4496320000000  0.7049670000000 1.0
C      1  0.3943100000000  0.2973090000000  0.5588640000000 1.0
C      1  0.6056900000000  0.3476770000000  0.3538960000000 1.0
C      1  0.5693700000000  0.4101490000000  0.2648280000000 1.0
C      1  0.4306300000000  0.6587400000000  0.3046010000000 1.0
C      1  0.5693700000000  0.7485910000000  0.5397730000000 1.0
C      1  0.4306300000000  0.5898510000000  0.7351720000000 1.0
C      1  0.5693700000000  0.3412600000000  0.6953990000000 1.0
C      1  0.4306300000000  0.2514090000000  0.4602270000000 1.0
C      1  0.6286260000000  0.3863940000000  0.6132410000000 1.0
C      1  0.3713740000000  0.3451270000000  0.4582350000000 1.0
C      1  0.6286260000000  0.4587330000000  0.3449930000000 1.0
C      1  0.3713740000000  0.6136060000000  0.3867590000000 1.0
C      1  0.6286260000000  0.6548730000000  0.5417650000000 1.0
C      1  0.3713740000000  0.5412670000000  0.6550070000000 1.0
C      1  0.4221530000000  0.4056710000000  0.5642270000000 1.0
C      1  0.5778470000000  0.3972140000000  0.4504220000000 1.0
C      1  0.4221530000000  0.4915430000000  0.3861960000000 1.0
C      1  0.5778470000000  0.5943290000000  0.4357730000000 1.0
C      1  0.4221530000000  0.6027860000000  0.5495780000000 1.0
C      1  0.5778470000000  0.5084570000000  0.6138040000000 1.0
C      1  0.5140980000000  0.6914670000000  0.3742540000000 1.0
C      1  0.4859020000000  0.7046320000000  0.6029420000000 1.0
C      1  0.5140980000000  0.5131660000000  0.7286880000000 1.0
C      1  0.4859020000000  0.3085330000000  0.6257460000000 1.0
C      1  0.5140980000000  0.2953680000000  0.3970580000000 1.0
C      1  0.4859020000000  0.4868340000000  0.2713120000000 1.0
C      1  0.5360150000000  0.5057390000000  0.3902390000000 1.0
C      1  0.4639850000000  0.5979250000000  0.4500900000000 1.0
C      1  0.5360160000000  0.5921860000000  0.5598500000000 1.0
C      1  0.4639850000000  0.4942610000000  0.6097610000000 1.0
C      1  0.5360150000000  0.4020750000000  0.5499100000000 1.0
C      1  0.4639840000000  0.4078140000000  0.4401500000000 1.0
C      1  0.2463930000000  0.4269560000000  0.3479900000000 1.0
C      1  0.7536070000000  0.5951220000000  0.3607360000000 1.0
C      1  0.2463930000000  0.6681680000000  0.5127470000000 1.0
C      1  0.7536070000000  0.5730440000000  0.6520100000000 1.0
C      1  0.2463930000000  0.4048780000000  0.6392640000000 1.0
C      1  0.7536070000000  0.3318320000000  0.4872530000000 1.0
END
