TITL C-3036481-494-177 0.00518169617634309 3375 -349.535386726252 0 0 60 (C1) n - 1
REM
REM in /home/bkarasulu/work/CARBON/AIRSS/Generating-Clusters/REBO/Higher-Symm/Only-C60
REM
REM
REM
REM
REM
REM ./C.cell (a2850807a9bf4ad07a5b6933b78d9264)
REM AIRSS Version 0.9.1 bugfix July 2018 build 013d7b7c2542+ Fri, 06 Jul 2018 19:26:36 +0100
REM compiler GCC version 9.2.1 20190827 (Red Hat 9.2.1-1)
REM options -cpp -mtune=generic -march=x86-64 -g -O0 -fpre-include=/usr/include/finclude/math-vector-fortran.h
REM seed -644519537 -1533376239 -1589401266 -1967096766 1797379085 301048776 834906231 -618626130 149328746 -1276321571 -287937285 -594015949 501203 196681413 -1233751840 1842104939 -1516907369 -1513274727 -1342793050 1185098611 -840643662 -1191697250 1173206673 1365125328 -253158922 1069689443 576677907 2083581374 -849747666 -2090878340 500499788 1450130744 433052978
REM
CELL 1.54180   15.00000   15.00000   15.00000   90.00000   90.00000   90.00000
LATT -1
SFAC C  
C      1  0.4750320000000  0.3845940000000  0.3910450000000 1.0
C      1  0.4008440000000  0.6014600000000  0.3751800000000 1.0
C      1  0.6410950000000  0.5383810000000  0.3671590000000 1.0
C      1  0.6774980000000  0.5157490000000  0.6963650000000 1.0
C      1  0.4163110000000  0.3381570000000  0.6996990000000 1.0
C      1  0.3970190000000  0.6462630000000  0.6987330000000 1.0
C      1  0.6163290000000  0.4408760000000  0.4532040000000 1.0
C      1  0.3878710000000  0.4524170000000  0.4622870000000 1.0
C      1  0.5042040000000  0.6060210000000  0.4585950000000 1.0
C      1  0.4343150000000  0.4476320000000  0.2814930000000 1.0
C      1  0.4876310000000  0.5843060000000  0.2765280000000 1.0
C      1  0.5915600000000  0.4666610000000  0.2676410000000 1.0
C      1  0.6158030000000  0.5804180000000  0.6497340000000 1.0
C      1  0.5052560000000  0.3577840000000  0.6591710000000 1.0
C      1  0.3721050000000  0.5593160000000  0.6558770000000 1.0
C      1  0.7397170000000  0.4700450000000  0.6400720000000 1.0
C      1  0.3486310000000  0.3077960000000  0.6393430000000 1.0
C      1  0.4009760000000  0.7221220000000  0.6408410000000 1.0
C      1  0.5523950000000  0.4331220000000  0.3705750000000 1.0
C      1  0.4205100000000  0.5056510000000  0.3798020000000 1.0
C      1  0.5473460000000  0.5659710000000  0.3726780000000 1.0
C      1  0.5442030000000  0.6932180000000  0.4108420000000 1.0
C      1  0.6633100000000  0.3635590000000  0.3936210000000 1.0
C      1  0.3027160000000  0.4237390000000  0.4033630000000 1.0
C      1  0.5367180000000  0.3019840000000  0.4743630000000 1.0
C      1  0.3281510000000  0.5692640000000  0.4820760000000 1.0
C      1  0.6360770000000  0.6169490000000  0.4746970000000 1.0
C      1  0.4833070000000  0.7476350000000  0.6062750000000 1.0
C      1  0.7170690000000  0.3858100000000  0.6082340000000 1.0
C      1  0.2865390000000  0.3684150000000  0.6061410000000 1.0
C      1  0.5908870000000  0.5727900000000  0.2476620000000 1.0
C      1  0.5169950000000  0.3909330000000  0.2504230000000 1.0
C      1  0.3865000000000  0.5421320000000  0.2568220000000 1.0
C      1  0.5595780000000  0.5206720000000  0.5845630000000 1.0
C      1  0.4929880000000  0.4297070000000  0.5854740000000 1.0
C      1  0.4485780000000  0.5316370000000  0.5912360000000 1.0
C      1  0.6793720000000  0.4467570000000  0.3358930000000 1.0
C      1  0.3800580000000  0.3824270000000  0.3495190000000 1.0
C      1  0.4689270000000  0.6705280000000  0.3474670000000 1.0
C      1  0.5579310000000  0.6465400000000  0.7133150000000 1.0
C      1  0.5937330000000  0.3779190000000  0.7188170000000 1.0
C      1  0.3373240000000  0.4781780000000  0.7186770000000 1.0
C      1  0.5381840000000  0.3125520000000  0.2986960000000 1.0
C      1  0.3035430000000  0.5529870000000  0.2996710000000 1.0
C      1  0.6434720000000  0.6419380000000  0.2844450000000 1.0
C      1  0.3836890000000  0.4063420000000  0.7578740000000 1.0
C      1  0.4739560000000  0.6404780000000  0.7549340000000 1.0
C      1  0.6324140000000  0.4555490000000  0.7556880000000 1.0
C      1  0.2966950000000  0.5436090000000  0.5712710000000 1.0
C      1  0.6291550000000  0.6555500000000  0.5638840000000 1.0
C      1  0.5598260000000  0.3123070000000  0.5694140000000 1.0
C      1  0.4636980000000  0.3850870000000  0.5004070000000 1.0
C      1  0.4265910000000  0.5761990000000  0.5028010000000 1.0
C      1  0.6102810000000  0.5239940000000  0.4959180000000 1.0
C      1  0.5812730000000  0.3041440000000  0.3871440000000 1.0
C      1  0.2903730000000  0.5277460000000  0.3956070000000 1.0
C      1  0.6385980000000  0.6705920000000  0.3787330000000 1.0
C      1  0.6343570000000  0.3439980000000  0.6306500000000 1.0
C      1  0.2866880000000  0.4606970000000  0.6306180000000 1.0
C      1  0.5637960000000  0.7006950000000  0.6267410000000 1.0
END
