TITL C-3036484-3770-741 0.00318958125241304 3375 -342.789140597598 0 0 60 (C1) n - 1
REM
REM in /home/bkarasulu/work/CARBON/AIRSS/Generating-Clusters/REBO/Higher-Symm/Only-C60
REM
REM
REM
REM
REM
REM ./C.cell (a2850807a9bf4ad07a5b6933b78d9264)
REM AIRSS Version 0.9.1 bugfix July 2018 build 013d7b7c2542+ Fri, 06 Jul 2018 19:26:36 +0100
REM compiler GCC version 9.2.1 20190827 (Red Hat 9.2.1-1)
REM options -cpp -mtune=generic -march=x86-64 -g -O0 -fpre-include=/usr/include/finclude/math-vector-fortran.h
REM seed 1926338696 -616752948 2098212019 -2133939016 -1009536914 -1892079747 -1736303570 -1081113483 1061775288 -2053175282 1413298187 793526755 -1245350420 176223729 1071057787 534674917 933812249 -2002240249 -492136331 1280987769 -209817155 1141758030 834411585 265180406 918609099 1762661124 808919137 1911043224 1692075941 -1006378569 -230707333 -218979084 -49414562
REM
CELL 1.54180   15.00000   15.00000   15.00000   90.00000   90.00000   90.00000
LATT -1
SFAC C  
C      1  0.5494820000000  0.6755760000000  0.5335650000000 1.0
C      1  0.4770880000000  0.3717490000000  0.4600160000000 1.0
C      1  0.6704340000000  0.6646260000000  0.4021180000000 1.0
C      1  0.5711040000000  0.3345140000000  0.4908200000000 1.0
C      1  0.6594670000000  0.5730570000000  0.4639350000000 1.0
C      1  0.6933830000000  0.4949360000000  0.3589290000000 1.0
C      1  0.6985400000000  0.5187690000000  0.5894340000000 1.0
C      1  0.4125780000000  0.3172160000000  0.5083370000000 1.0
C      1  0.4022430000000  0.5125870000000  0.3096410000000 1.0
C      1  0.6202450000000  0.5641470000000  0.6445040000000 1.0
C      1  0.3937190000000  0.3210360000000  0.6711350000000 1.0
C      1  0.2901440000000  0.6008190000000  0.4664420000000 1.0
C      1  0.3845300000000  0.4435360000000  0.5373160000000 1.0
C      1  0.3720540000000  0.3657260000000  0.3782230000000 1.0
C      1  0.4084120000000  0.6030120000000  0.4064560000000 1.0
C      1  0.3276460000000  0.6882270000000  0.4708330000000 1.0
C      1  0.3366910000000  0.3282780000000  0.5817680000000 1.0
C      1  0.4282320000000  0.6879210000000  0.3532340000000 1.0
C      1  0.5846860000000  0.5069760000000  0.7136450000000 1.0
C      1  0.5138620000000  0.4989730000000  0.2902800000000 1.0
C      1  0.3927450000000  0.7187840000000  0.5338100000000 1.0
C      1  0.4929830000000  0.7421880000000  0.4027780000000 1.0
C      1  0.6024140000000  0.3219560000000  0.3354550000000 1.0
C      1  0.7419670000000  0.4553070000000  0.4325530000000 1.0
C      1  0.5816160000000  0.7133530000000  0.3774720000000 1.0
C      1  0.6218530000000  0.4023760000000  0.7185460000000 1.0
C      1  0.6411300000000  0.4350250000000  0.6112290000000 1.0
C      1  0.5620790000000  0.2949310000000  0.5880080000000 1.0
C      1  0.7234920000000  0.3611680000000  0.4370960000000 1.0
C      1  0.4246240000000  0.3807110000000  0.7367590000000 1.0
C      1  0.7579450000000  0.5014930000000  0.5166920000000 1.0
C      1  0.4805740000000  0.7356330000000  0.5004080000000 1.0
C      1  0.2371850000000  0.4075170000000  0.4627050000000 1.0
C      1  0.4685870000000  0.4527930000000  0.5957040000000 1.0
C      1  0.4416130000000  0.5283530000000  0.6630250000000 1.0
C      1  0.4724340000000  0.6249990000000  0.6559470000000 1.0
C      1  0.2965220000000  0.4751610000000  0.5662900000000 1.0
C      1  0.6508120000000  0.3259870000000  0.6421010000000 1.0
C      1  0.5695480000000  0.6109300000000  0.3349370000000 1.0
C      1  0.6382210000000  0.3235110000000  0.4193690000000 1.0
C      1  0.5585030000000  0.6363930000000  0.6200090000000 1.0
C      1  0.6772410000000  0.5836240000000  0.3325620000000 1.0
C      1  0.3265360000000  0.4325590000000  0.4438290000000 1.0
C      1  0.2868100000000  0.6205400000000  0.6267480000000 1.0
C      1  0.3551590000000  0.5804530000000  0.6927340000000 1.0
C      1  0.3834780000000  0.6760230000000  0.6248180000000 1.0
C      1  0.5005240000000  0.4458330000000  0.7442690000000 1.0
C      1  0.5945670000000  0.4535530000000  0.3553760000000 1.0
C      1  0.2678450000000  0.5646100000000  0.5520470000000 1.0
C      1  0.4805010000000  0.4549190000000  0.4242880000000 1.0
C      1  0.4582300000000  0.2801470000000  0.5975890000000 1.0
C      1  0.6056360000000  0.4850320000000  0.4578500000000 1.0
C      1  0.4229370000000  0.4052330000000  0.3117370000000 1.0
C      1  0.5672410000000  0.6116490000000  0.4677480000000 1.0
C      1  0.4676470000000  0.6028410000000  0.2883270000000 1.0
C      1  0.5267210000000  0.3863010000000  0.2965550000000 1.0
C      1  0.5294650000000  0.3770740000000  0.6546210000000 1.0
C      1  0.3323200000000  0.5276140000000  0.3976770000000 1.0
C      1  0.5660500000000  0.4346190000000  0.5404820000000 1.0
C      1  0.4997100000000  0.5571260000000  0.4092170000000 1.0
END
