TITL C-3036479-9801-948 -2.01564782078328e-06 3375 -342.114962169762 0 0 60 (C3) n - 1
REM
REM in /home/bkarasulu/work/CARBON/AIRSS/Generating-Clusters/REBO/Higher-Symm/Only-C60
REM
REM
REM
REM
REM
REM ./C.cell (a2850807a9bf4ad07a5b6933b78d9264)
REM AIRSS Version 0.9.1 bugfix July 2018 build 013d7b7c2542+ Fri, 06 Jul 2018 19:26:36 +0100
REM compiler GCC version 9.2.1 20190827 (Red Hat 9.2.1-1)
REM options -cpp -mtune=generic -march=x86-64 -g -O0 -fpre-include=/usr/include/finclude/math-vector-fortran.h
REM seed -616536459 578107587 618158588 823341871 361161159 -1319865111 1508436324 733819580 1994699003 -714555559 2059684320 1650375818 -488866633 -1741710638 60035843 1556237930 789343053 -1165376943 1823959550 2125172311 -2124655589 337265333 -1023276414 1635895111 1252560422 -1531282669 -1809583420 1568152796 -425386176 -694069315 1801286591 411856577 152624627
REM
CELL 1.54180   15.00000   15.00000   15.00000   90.00000   90.00000   90.00000
LATT -1
SFAC C  
C      1  0.3840880000000  0.3301450000000  0.5249200000000 1.0
C      1  0.3840900000000  0.6065140000000  0.6346350000000 1.0
C      1  0.3840970000000  0.5633450000000  0.3404360000000 1.0
C      1  0.6591560000000  0.6071730000000  0.5837750000000 1.0
C      1  0.6591580000000  0.5189580000000  0.3653040000000 1.0
C      1  0.6591520000000  0.3738620000000  0.5509340000000 1.0
C      1  0.4569040000000  0.6125520000000  0.7070980000000 1.0
C      1  0.4569150000000  0.6230780000000  0.2989770000000 1.0
C      1  0.4569040000000  0.2643710000000  0.4939220000000 1.0
C      1  0.4627340000000  0.6372820000000  0.5690500000000 1.0
C      1  0.4627380000000  0.4911600000000  0.3465840000000 1.0
C      1  0.4627290000000  0.3715580000000  0.5843630000000 1.0
C      1  0.5243040000000  0.4617930000000  0.2641760000000 1.0
C      1  0.5242910000000  0.3148720000000  0.6510010000000 1.0
C      1  0.5242980000000  0.7233340000000  0.5848260000000 1.0
C      1  0.4977560000000  0.4796610000000  0.6611120000000 1.0
C      1  0.4977630000000  0.6496980000000  0.4370590000000 1.0
C      1  0.4977600000000  0.3706420000000  0.4018290000000 1.0
C      1  0.3858510000000  0.3035480000000  0.3530800000000 1.0
C      1  0.3858430000000  0.4709950000000  0.7435890000000 1.0
C      1  0.3858560000000  0.7254620000000  0.4033210000000 1.0
C      1  0.5134260000000  0.7611980000000  0.4127810000000 1.0
C      1  0.5134220000000  0.2938670000000  0.3174060000000 1.0
C      1  0.5134130000000  0.4449350000000  0.7698130000000 1.0
C      1  0.6718580000000  0.4097850000000  0.3696040000000 1.0
C      1  0.6718520000000  0.4321730000000  0.6433300000000 1.0
C      1  0.6718590000000  0.6580360000000  0.4870790000000 1.0
C      1  0.5929490000000  0.4585280000000  0.4357220000000 1.0
C      1  0.5929470000000  0.4650650000000  0.5680560000000 1.0
C      1  0.5929540000000  0.5764010000000  0.4962280000000 1.0
C      1  0.6166420000000  0.3040080000000  0.5041570000000 1.0
C      1  0.6166430000000  0.6015910000000  0.6676580000000 1.0
C      1  0.6166510000000  0.5943960000000  0.3281940000000 1.0
C      1  0.3993070000000  0.4076080000000  0.3727500000000 1.0
C      1  0.3993010000000  0.4359990000000  0.6436360000000 1.0
C      1  0.3993070000000  0.6563980000000  0.4836060000000 1.0
C      1  0.3235680000000  0.5920200000000  0.4887240000000 1.0
C      1  0.3235680000000  0.4442330000000  0.4259420000000 1.0
C      1  0.3235640000000  0.4637550000000  0.5853200000000 1.0
C      1  0.5887900000000  0.7299470000000  0.4918100000000 1.0
C      1  0.5887900000000  0.3779300000000  0.3049590000000 1.0
C      1  0.5887790000000  0.3921200000000  0.7032370000000 1.0
C      1  0.3195970000000  0.5583450000000  0.5786430000000 1.0
C      1  0.3196020000000  0.5389430000000  0.4101450000000 1.0
C      1  0.3195970000000  0.4027200000000  0.5111970000000 1.0
C      1  0.6029130000000  0.3287730000000  0.4089360000000 1.0
C      1  0.6029090000000  0.5067450000000  0.6938210000000 1.0
C      1  0.6029180000000  0.6644780000000  0.3972510000000 1.0
C      1  0.4824740000000  0.3614650000000  0.2315060000000 1.0
C      1  0.4824600000000  0.3367460000000  0.7542220000000 1.0
C      1  0.4824720000000  0.8017910000000  0.5142710000000 1.0
C      1  0.4511540000000  0.7140270000000  0.3305680000000 1.0
C      1  0.4511450000000  0.2462560000000  0.3993620000000 1.0
C      1  0.4511400000000  0.5397190000000  0.7700660000000 1.0
C      1  0.5273180000000  0.5435950000000  0.4129840000000 1.0
C      1  0.5273130000000  0.4028420000000  0.5057560000000 1.0
C      1  0.5273150000000  0.5535630000000  0.5812620000000 1.0
C      1  0.5392390000000  0.5735610000000  0.2762030000000 1.0
C      1  0.5392270000000  0.2694030000000  0.5481940000000 1.0
C      1  0.5392300000000  0.6570340000000  0.6756060000000 1.0
END
