TITL C-3036484-3770-253 2.91840662396573e-06 3375 -337.308575731644 0 0 60 (Cs) n - 1
REM
REM in /home/bkarasulu/work/CARBON/AIRSS/Generating-Clusters/REBO/Higher-Symm/Only-C60
REM
REM
REM
REM
REM
REM ./C.cell (a2850807a9bf4ad07a5b6933b78d9264)
REM AIRSS Version 0.9.1 bugfix July 2018 build 013d7b7c2542+ Fri, 06 Jul 2018 19:26:36 +0100
REM compiler GCC version 9.2.1 20190827 (Red Hat 9.2.1-1)
REM options -cpp -mtune=generic -march=x86-64 -g -O0 -fpre-include=/usr/include/finclude/math-vector-fortran.h
REM seed -1816112927 234678312 1259581512 -2037102709 299364172 1685218508 67724819 1852256326 -107242595 -1456282132 577868887 112494900 2091542171 -478396802 1985029319 416659171 600818521 -1657442338 -515748350 -1503165582 2014532098 -1286457242 -855059008 -890035195 -1019729483 -2051964634 -596341953 460688194 1885156469 -349628187 279358686 1391341647 1053603916
REM
CELL 1.54180   15.00000   15.00000   15.00000   90.00000   90.00000   90.00000
LATT -1
SFAC C  
C      1  0.3638800000000  0.3608990000000  0.4564630000000 1.0
C      1  0.3638800000000  0.6467840000000  0.4564630000000 1.0
C      1  0.4103130000000  0.3548750000000  0.3013800000000 1.0
C      1  0.4103120000000  0.6528080000000  0.3013800000000 1.0
C      1  0.2931590000000  0.4214850000000  0.4409160000000 1.0
C      1  0.2931590000000  0.5861980000000  0.4409160000000 1.0
C      1  0.6132790000000  0.3470170000000  0.3887230000000 1.0
C      1  0.6132790000000  0.6606680000000  0.3887230000000 1.0
C      1  0.3734260000000  0.4378500000000  0.2955950000000 1.0
C      1  0.3734260000000  0.5698340000000  0.2955950000000 1.0
C      1  0.6295170000000  0.6046940000000  0.4868320000000 1.0
C      1  0.6295180000000  0.4029900000000  0.4868320000000 1.0
C      1  0.6504670000000  0.4173070000000  0.5974550000000 1.0
C      1  0.6504670000000  0.5903770000000  0.5974550000000 1.0
C      1  0.3547730000000  0.4571800000000  0.7568710000000 1.0
C      1  0.3547730000000  0.5505030000000  0.7568710000000 1.0
C      1  0.5345460000000  0.6632280000000  0.4657890000000 1.0
C      1  0.5345460000000  0.3444560000000  0.4657880000000 1.0
C      1  0.5743330000000  0.3094800000000  0.5869470000000 1.0
C      1  0.5743320000000  0.6982030000000  0.5869470000000 1.0
C      1  0.5116110000000  0.6559860000000  0.3359680000000 1.0
C      1  0.5116120000000  0.3516980000000  0.3359680000000 1.0
C      1  0.5147200000000  0.6060650000000  0.5544080000000 1.0
C      1  0.5147200000000  0.4016180000000  0.5544080000000 1.0
C      1  0.3767570000000  0.6814130000000  0.5446830000000 1.0
C      1  0.3767580000000  0.3262700000000  0.5446830000000 1.0
C      1  0.4506970000000  0.3970280000000  0.4208350000000 1.0
C      1  0.4506970000000  0.6106560000000  0.4208350000000 1.0
C      1  0.2457650000000  0.4522010000000  0.5169150000000 1.0
C      1  0.2457650000000  0.5554820000000  0.5169150000000 1.0
C      1  0.5027920000000  0.6862200000000  0.6600060000000 1.0
C      1  0.5027930000000  0.3214630000000  0.6600060000000 1.0
C      1  0.4118950000000  0.4120860000000  0.6009460000000 1.0
C      1  0.4118950000000  0.5955980000000  0.6009460000000 1.0
C      1  0.4199130000000  0.7248020000000  0.6292680000000 1.0
C      1  0.4199130000000  0.2828810000000  0.6292670000000 1.0
C      1  0.3389720000000  0.5756660000000  0.6689470000000 1.0
C      1  0.3389720000000  0.4320170000000  0.6689470000000 1.0
C      1  0.5661700000000  0.5930390000000  0.6743970000000 1.0
C      1  0.5661700000000  0.4146440000000  0.6743970000000 1.0
C      1  0.6704730000000  0.6987290000000  0.5718650000000 1.0
C      1  0.6704730000000  0.3089550000000  0.5718650000000 1.0
C      1  0.5968990000000  0.5937080000000  0.3002920000000 1.0
C      1  0.5968990000000  0.4139770000000  0.3002920000000 1.0
C      1  0.5630700000000  0.5038420000000  0.5448180000000 1.0
C      1  0.7089810000000  0.5038420000000  0.6799600000000 1.0
C      1  0.4553590000000  0.5038420000000  0.4451670000000 1.0
C      1  0.5443000000000  0.5038420000000  0.3821240000000 1.0
C      1  0.7313090000000  0.5038420000000  0.3907140000000 1.0
C      1  0.4348050000000  0.5038420000000  0.2486270000000 1.0
C      1  0.2742970000000  0.5038420000000  0.6140250000000 1.0
C      1  0.4309240000000  0.5038420000000  0.5491510000000 1.0
C      1  0.6193530000000  0.5038420000000  0.7069230000000 1.0
C      1  0.5047290000000  0.5038420000000  0.6392340000000 1.0
C      1  0.7475610000000  0.5038420000000  0.4721050000000 1.0
C      1  0.6536380000000  0.5038420000000  0.3281550000000 1.0
C      1  0.3152830000000  0.5038420000000  0.3677770000000 1.0
C      1  0.5330040000000  0.5038420000000  0.2723960000000 1.0
C      1  0.6153130000000  0.5038420000000  0.4557400000000 1.0
C      1  0.7152210000000  0.5038420000000  0.5698680000000 1.0
END
