TITL C-3036482-790-187 -0.0940631791140494 3375 -351.211675547841 0 0 60 (C3h) n - 1
REM
REM in /home/bkarasulu/work/CARBON/AIRSS/Generating-Clusters/REBO/Higher-Symm/Only-C60
REM
REM
REM
REM
REM
REM ./C.cell (a2850807a9bf4ad07a5b6933b78d9264)
REM AIRSS Version 0.9.1 bugfix July 2018 build 013d7b7c2542+ Fri, 06 Jul 2018 19:26:36 +0100
REM compiler GCC version 9.2.1 20190827 (Red Hat 9.2.1-1)
REM options -cpp -mtune=generic -march=x86-64 -g -O0 -fpre-include=/usr/include/finclude/math-vector-fortran.h
REM seed -32395245 -1330342688 -430076025 1338266383 1592778424 -698741746 759519144 660231019 -347766598 900595691 -1293757055 -1969366652 -1055281258 34993675 1109466841 1782124543 1746788102 661586599 1658113788 -1723116719 1086195044 -945095470 1281462552 -2019471056 1372014547 -96711323 -994175553 511793959 1191172961 -572293596 856464781 -1483983700 1198986350
REM
CELL 1.54180   15.00000   15.00000   15.00000   90.00000   90.00000   90.00000
LATT -1
SFAC C  
C      1  0.6483970000000  0.5428750000000  0.4447170000000 1.0
C      1  0.4628570000000  0.3499330000000  0.4447850000000 1.0
C      1  0.3885040000000  0.6070180000000  0.4447590000000 1.0
C      1  0.6483970000000  0.5428750000000  0.5552830000000 1.0
C      1  0.4628570000000  0.3499330000000  0.5552150000000 1.0
C      1  0.3885040000000  0.6070180000000  0.5552410000000 1.0
C      1  0.6714800000000  0.4348320000000  0.4495360000000 1.0
C      1  0.3577640000000  0.3841130000000  0.4495280000000 1.0
C      1  0.4704760000000  0.6811900000000  0.4495110000000 1.0
C      1  0.6714800000000  0.4348320000000  0.5504640000000 1.0
C      1  0.3577640000000  0.3841130000000  0.5504720000000 1.0
C      1  0.4704760000000  0.6811900000000  0.5504890000000 1.0
C      1  0.6351780000000  0.6812540000000  0.4514880000000 1.0
C      1  0.5895250000000  0.2921170000000  0.4514860000000 1.0
C      1  0.2752450000000  0.5265270000000  0.4514950000000 1.0
C      1  0.6351780000000  0.6812540000000  0.5485120000000 1.0
C      1  0.5895250000000  0.2921170000000  0.5485140000000 1.0
C      1  0.2752450000000  0.5265270000000  0.5485050000000 1.0
C      1  0.3532270000000  0.4769000000000  0.3087450000000 1.0
C      1  0.5533240000000  0.6387590000000  0.3084350000000 1.0
C      1  0.5935620000000  0.3844100000000  0.3086630000000 1.0
C      1  0.3532270000000  0.4769000000000  0.6912550000000 1.0
C      1  0.5533240000000  0.6387590000000  0.6915650000000 1.0
C      1  0.5935620000000  0.3844100000000  0.6913370000000 1.0
C      1  0.3101410000000  0.4506030000000  0.6000660000000 1.0
C      1  0.5519800000000  0.6890060000000  0.6001030000000 1.0
C      1  0.6378680000000  0.3602760000000  0.6001010000000 1.0
C      1  0.3101410000000  0.4506030000000  0.3999340000000 1.0
C      1  0.5519800000000  0.6890060000000  0.3998970000000 1.0
C      1  0.6378680000000  0.3602760000000  0.3998990000000 1.0
C      1  0.5383230000000  0.4337700000000  0.4489040000000 1.0
C      1  0.4235350000000  0.4999030000000  0.4487850000000 1.0
C      1  0.5383050000000  0.5663120000000  0.4489970000000 1.0
C      1  0.5383230000000  0.4337700000000  0.5510960000000 1.0
C      1  0.4235350000000  0.4999030000000  0.5512150000000 1.0
C      1  0.5383050000000  0.5663120000000  0.5510030000000 1.0
C      1  0.4389900000000  0.4507900000000  0.6381760000000 1.0
C      1  0.4879920000000  0.5777410000000  0.6378500000000 1.0
C      1  0.5733790000000  0.4716740000000  0.6380880000000 1.0
C      1  0.4389900000000  0.4507900000000  0.3618240000000 1.0
C      1  0.4879920000000  0.5777410000000  0.3621500000000 1.0
C      1  0.5733790000000  0.4716740000000  0.3619120000000 1.0
C      1  0.4641260000000  0.2896340000000  0.3241410000000 1.0
C      1  0.3357180000000  0.6362790000000  0.3240490000000 1.0
C      1  0.7000880000000  0.5741190000000  0.3240440000000 1.0
C      1  0.4641260000000  0.2896340000000  0.6758590000000 1.0
C      1  0.3357180000000  0.6362790000000  0.6759510000000 1.0
C      1  0.7000880000000  0.5741190000000  0.6759560000000 1.0
C      1  0.2862690000000  0.6190960000000  0.4084010000000 1.0
C      1  0.7098720000000  0.6255000000000  0.4083990000000 1.0
C      1  0.5037760000000  0.2554860000000  0.4084900000000 1.0
C      1  0.2862690000000  0.6190960000000  0.5915990000000 1.0
C      1  0.7098720000000  0.6255000000000  0.5916010000000 1.0
C      1  0.5037760000000  0.2554860000000  0.5915100000000 1.0
C      1  0.4016250000000  0.5682690000000  0.3115490000000 1.0
C      1  0.6083380000000  0.5511090000000  0.3112570000000 1.0
C      1  0.4901380000000  0.3805070000000  0.3112620000000 1.0
C      1  0.4016250000000  0.5682690000000  0.6884510000000 1.0
C      1  0.6083380000000  0.5511090000000  0.6887430000000 1.0
C      1  0.4901380000000  0.3805070000000  0.6887380000000 1.0
END
