TITL C-3036479-9801-275 -2.10137445397297e-07 3375 -351.584282066413 0 0 60 (C1) n - 1
REM
REM in /home/bkarasulu/work/CARBON/AIRSS/Generating-Clusters/REBO/Higher-Symm/Only-C60
REM
REM
REM
REM
REM
REM ./C.cell (a2850807a9bf4ad07a5b6933b78d9264)
REM AIRSS Version 0.9.1 bugfix July 2018 build 013d7b7c2542+ Fri, 06 Jul 2018 19:26:36 +0100
REM compiler GCC version 9.2.1 20190827 (Red Hat 9.2.1-1)
REM options -cpp -mtune=generic -march=x86-64 -g -O0 -fpre-include=/usr/include/finclude/math-vector-fortran.h
REM seed -880095033 -1558917751 442977167 -744133454 1996758543 1340402797 631657530 -125659457 -2086036636 1482537704 1249643396 -927966906 172515214 -243022487 -805467615 900538381 1655185892 810039933 1719326043 1112538489 -1155994693 688718420 523728301 967458006 734389188 -1900423961 -139480925 -1334543916 -1871136388 1263948483 1490308546 1726557768 -1051509757
REM
CELL 1.54180   15.00000   15.00000   15.00000   90.00000   90.00000   90.00000
LATT -1
SFAC C  
C      1  0.3357970000000  0.3436890000000  0.5871140000000 1.0
C      1  0.3333730000000  0.3487010000000  0.4009930000000 1.0
C      1  0.5387330000000  0.6261300000000  0.5859580000000 1.0
C      1  0.5408330000000  0.6246510000000  0.4027480000000 1.0
C      1  0.5948100000000  0.3762640000000  0.3697490000000 1.0
C      1  0.5959350000000  0.3788360000000  0.6197760000000 1.0
C      1  0.3545530000000  0.7365810000000  0.4672470000000 1.0
C      1  0.3562070000000  0.7197520000000  0.5593800000000 1.0
C      1  0.6339710000000  0.6000020000000  0.6001580000000 1.0
C      1  0.6359810000000  0.5982840000000  0.3898070000000 1.0
C      1  0.4799830000000  0.5658640000000  0.5406220000000 1.0
C      1  0.4810300000000  0.5652000000000  0.4472220000000 1.0
C      1  0.8155920000000  0.5064940000000  0.4484320000000 1.0
C      1  0.8150310000000  0.5079480000000  0.5428620000000 1.0
C      1  0.4301550000000  0.2888890000000  0.4040680000000 1.0
C      1  0.4355970000000  0.2950180000000  0.5997410000000 1.0
C      1  0.5052990000000  0.3692160000000  0.4249940000000 1.0
C      1  0.5068610000000  0.3719420000000  0.5644490000000 1.0
C      1  0.6675220000000  0.5174690000000  0.6327040000000 1.0
C      1  0.6687210000000  0.5149780000000  0.3583600000000 1.0
C      1  0.4054110000000  0.5073650000000  0.5801120000000 1.0
C      1  0.4073430000000  0.5070670000000  0.4068560000000 1.0
C      1  0.6012630000000  0.4578810000000  0.3212010000000 1.0
C      1  0.6005810000000  0.4595600000000  0.6692870000000 1.0
C      1  0.2664620000000  0.4074650000000  0.3544230000000 1.0
C      1  0.2725320000000  0.4035100000000  0.6384520000000 1.0
C      1  0.3442720000000  0.5846600000000  0.6697530000000 1.0
C      1  0.3432870000000  0.5783210000000  0.3142690000000 1.0
C      1  0.6366160000000  0.3159640000000  0.5524010000000 1.0
C      1  0.6346450000000  0.3136850000000  0.4387590000000 1.0
C      1  0.4337560000000  0.7145990000000  0.3922370000000 1.0
C      1  0.4392930000000  0.7128060000000  0.6051870000000 1.0
C      1  0.4111000000000  0.4128010000000  0.5446850000000 1.0
C      1  0.4103640000000  0.4139670000000  0.4431400000000 1.0
C      1  0.3173920000000  0.5573450000000  0.4427350000000 1.0
C      1  0.3132790000000  0.5537250000000  0.5440690000000 1.0
C      1  0.4258980000000  0.5069830000000  0.6839330000000 1.0
C      1  0.4283790000000  0.5042470000000  0.3031610000000 1.0
C      1  0.7303820000000  0.4717870000000  0.5748470000000 1.0
C      1  0.7312300000000  0.4695320000000  0.4165970000000 1.0
C      1  0.2771250000000  0.4981890000000  0.3555740000000 1.0
C      1  0.2852940000000  0.4936630000000  0.6360880000000 1.0
C      1  0.5260110000000  0.7282140000000  0.5501020000000 1.0
C      1  0.5251670000000  0.7259290000000  0.4366520000000 1.0
C      1  0.3364480000000  0.6547330000000  0.3973680000000 1.0
C      1  0.2994790000000  0.6504520000000  0.5904180000000 1.0
C      1  0.4356900000000  0.6428800000000  0.3108770000000 1.0
C      1  0.4376090000000  0.6460450000000  0.6721460000000 1.0
C      1  0.5239400000000  0.5046260000000  0.7065040000000 1.0
C      1  0.5266430000000  0.5048420000000  0.2821040000000 1.0
C      1  0.5107290000000  0.6047460000000  0.2744010000000 1.0
C      1  0.5113920000000  0.6043620000000  0.7146150000000 1.0
C      1  0.4703340000000  0.2537010000000  0.5023000000000 1.0
C      1  0.3603230000000  0.2891320000000  0.4938400000000 1.0
C      1  0.6874890000000  0.4286140000000  0.4959630000000 1.0
C      1  0.5786970000000  0.4207080000000  0.4943760000000 1.0
C      1  0.5990480000000  0.5271920000000  0.4952620000000 1.0
C      1  0.6219520000000  0.7219100000000  0.4929950000000 1.0
C      1  0.6586820000000  0.6243130000000  0.4950480000000 1.0
C      1  0.5692360000000  0.2507930000000  0.4985280000000 1.0
END
