TITL C-3036483-1610-722 0.00915222975038365 3375 -343.774689683933 0 0 60 (C1) n - 1
REM
REM in /home/bkarasulu/work/CARBON/AIRSS/Generating-Clusters/REBO/Higher-Symm/Only-C60
REM
REM
REM
REM
REM
REM ./C.cell (a2850807a9bf4ad07a5b6933b78d9264)
REM AIRSS Version 0.9.1 bugfix July 2018 build 013d7b7c2542+ Fri, 06 Jul 2018 19:26:36 +0100
REM compiler GCC version 9.2.1 20190827 (Red Hat 9.2.1-1)
REM options -cpp -mtune=generic -march=x86-64 -g -O0 -fpre-include=/usr/include/finclude/math-vector-fortran.h
REM seed 1115300709 675531915 1342920228 1774953982 -689634806 1680787736 922558941 -2044586804 -1289284812 1777539048 5615596 334907206 -1315206993 -1028759690 1188595450 -1848645391 2145523973 3753136 2055236980 -827960345 527148904 1113059418 1779064630 -1265953324 -1203631844 -297382684 -484096866 -97364486 1720945582 -1879400899 197568303 -1786781917 -64198689
REM
CELL 1.54180   15.00000   15.00000   15.00000   90.00000   90.00000   90.00000
LATT -1
SFAC C  
C      1  0.4674600000000  0.3109210000000  0.6550640000000 1.0
C      1  0.4565440000000  0.6895030000000  0.6550150000000 1.0
C      1  0.6836420000000  0.5341980000000  0.6671460000000 1.0
C      1  0.6945560000000  0.4327280000000  0.6675640000000 1.0
C      1  0.7010500000000  0.4420780000000  0.3568160000000 1.0
C      1  0.6923670000000  0.5323190000000  0.3665210000000 1.0
C      1  0.5699660000000  0.4204060000000  0.5836590000000 1.0
C      1  0.5655660000000  0.5923020000000  0.5861960000000 1.0
C      1  0.7767690000000  0.8509390000000  0.4007310000000 1.0
C      1  0.7847500000000  0.1599730000000  0.3995110000000 1.0
C      1  0.7174190000000  0.5736250000000  0.5832260000000 1.0
C      1  0.7219050000000  0.4015960000000  0.5780870000000 1.0
C      1  0.4888690000000  0.6417090000000  0.4899380000000 1.0
C      1  0.4909450000000  0.3658840000000  0.4921960000000 1.0
C      1  0.4081210000000  0.7124690000000  0.4919400000000 1.0
C      1  0.4143110000000  0.2910110000000  0.4945170000000 1.0
C      1  0.4250090000000  0.5445990000000  0.4271210000000 1.0
C      1  0.4250900000000  0.4602500000000  0.4277340000000 1.0
C      1  0.4502680000000  0.7188100000000  0.3886300000000 1.0
C      1  0.4556770000000  0.2871900000000  0.3907400000000 1.0
C      1  0.3878810000000  0.6910850000000  0.5920520000000 1.0
C      1  0.3955450000000  0.3059310000000  0.5956090000000 1.0
C      1  0.6088450000000  0.8029950000000  0.3777160000000 1.0
C      1  0.6164150000000  0.2071770000000  0.3780830000000 1.0
C      1  0.3655010000000  0.3736040000000  0.4357930000000 1.0
C      1  0.3628050000000  0.6292510000000  0.4330300000000 1.0
C      1  0.4790840000000  0.4534390000000  0.3066180000000 1.0
C      1  0.4795960000000  0.5512270000000  0.3062900000000 1.0
C      1  0.2877950000000  0.4002870000000  0.5020260000000 1.0
C      1  0.2843300000000  0.5993580000000  0.4932680000000 1.0
C      1  0.4767890000000  0.6007420000000  0.6847540000000 1.0
C      1  0.4847940000000  0.4008040000000  0.6837740000000 1.0
C      1  0.5337900000000  0.2399670000000  0.3765170000000 1.0
C      1  0.5267830000000  0.7688470000000  0.3753740000000 1.0
C      1  0.5265570000000  0.4137690000000  0.4022800000000 1.0
C      1  0.5263900000000  0.5911580000000  0.4022460000000 1.0
C      1  0.1910360000000  0.4590070000000  0.5235340000000 1.0
C      1  0.1771610000000  0.5719040000000  0.5239860000000 1.0
C      1  0.8002520000000  0.4438380000000  0.5435690000000 1.0
C      1  0.7975580000000  0.5364090000000  0.5472180000000 1.0
C      1  0.6406980000000  0.5914650000000  0.5292920000000 1.0
C      1  0.6419750000000  0.4071900000000  0.5251500000000 1.0
C      1  0.3358640000000  0.3938990000000  0.6048710000000 1.0
C      1  0.3327680000000  0.5988350000000  0.5967150000000 1.0
C      1  0.7010370000000  0.1818920000000  0.3874590000000 1.0
C      1  0.6932180000000  0.8288320000000  0.3878830000000 1.0
C      1  0.4221370000000  0.6383320000000  0.3338430000000 1.0
C      1  0.4222180000000  0.3655050000000  0.3352720000000 1.0
C      1  0.4829440000000  0.5532260000000  0.5467340000000 1.0
C      1  0.4850540000000  0.4568460000000  0.5465650000000 1.0
C      1  0.4059110000000  0.5444900000000  0.6550050000000 1.0
C      1  0.4097300000000  0.4529470000000  0.6564270000000 1.0
C      1  0.2445280000000  0.4441370000000  0.6193510000000 1.0
C      1  0.2414920000000  0.5480040000000  0.6080320000000 1.0
C      1  0.6217150000000  0.4396950000000  0.4311500000000 1.0
C      1  0.6192750000000  0.5608350000000  0.4346280000000 1.0
C      1  0.5836700000000  0.4486870000000  0.6867040000000 1.0
C      1  0.5770340000000  0.5595020000000  0.6890780000000 1.0
C      1  0.2155000000000  0.5422680000000  0.4226810000000 1.0
C      1  0.2240390000000  0.4401040000000  0.4170730000000 1.0
END
