TITL C-3036480-97-53 1.34426606316132e-06 3375 -335.439009594463 0 0 60 (C1) n - 1
REM
REM in /home/bkarasulu/work/CARBON/AIRSS/Generating-Clusters/REBO/Higher-Symm/Only-C60
REM
REM
REM
REM
REM
REM ./C.cell (a2850807a9bf4ad07a5b6933b78d9264)
REM AIRSS Version 0.9.1 bugfix July 2018 build 013d7b7c2542+ Fri, 06 Jul 2018 19:26:36 +0100
REM compiler GCC version 9.2.1 20190827 (Red Hat 9.2.1-1)
REM options -cpp -mtune=generic -march=x86-64 -g -O0 -fpre-include=/usr/include/finclude/math-vector-fortran.h
REM seed -1577547674 -2116522696 1492940707 2006507774 1005894430 -1691438374 -340738581 1282176618 48629032 1598133067 -668655258 927432157 -1643457086 1942759817 -559637113 -978672032 -104822657 2091506758 -850701396 -611980528 -1838216985 -1892628717 1706358599 430828451 -2051161619 -1891348758 549157508 -1700290727 2081696276 613983526 1675818425 -1417467709 967710355
REM
CELL 1.54180   15.00000   15.00000   15.00000   90.00000   90.00000   90.00000
LATT -1
SFAC C  
C      1  0.7091630000000  0.3623390000000  0.7423310000000 1.0
C      1  0.3474580000000  0.6200140000000  0.6357500000000 1.0
C      1  0.4293130000000  0.6074190000000  0.3872200000000 1.0
C      1  0.6209610000000  0.3563690000000  0.6803810000000 1.0
C      1  0.5616040000000  0.4199090000000  0.4367340000000 1.0
C      1  0.3065010000000  0.4064850000000  0.5555520000000 1.0
C      1  0.6995670000000  0.4390930000000  0.5493720000000 1.0
C      1  0.6218080000000  0.5194650000000  0.2721520000000 1.0
C      1  0.4953100000000  0.2775440000000  0.5642000000000 1.0
C      1  0.4919340000000  0.6524220000000  0.5339570000000 1.0
C      1  0.3437690000000  0.5280260000000  0.6765850000000 1.0
C      1  0.4221490000000  0.4408190000000  0.2477690000000 1.0
C      1  0.5214980000000  0.4839460000000  0.2383990000000 1.0
C      1  0.3604610000000  0.2189950000000  0.4145830000000 1.0
C      1  0.6081020000000  0.5924460000000  0.5109410000000 1.0
C      1  0.6207460000000  0.7176600000000  0.6386690000000 1.0
C      1  0.3127860000000  0.3836900000000  0.4617700000000 1.0
C      1  0.3611360000000  0.5552280000000  0.2852700000000 1.0
C      1  0.3207180000000  0.6062540000000  0.5348510000000 1.0
C      1  0.4962470000000  0.6436590000000  0.4403730000000 1.0
C      1  0.6450890000000  0.7000090000000  0.5289370000000 1.0
C      1  0.6259690000000  0.6062380000000  0.3435780000000 1.0
C      1  0.3726310000000  0.6984370000000  0.4965450000000 1.0
C      1  0.3358080000000  0.4431740000000  0.3888970000000 1.0
C      1  0.5429620000000  0.5498960000000  0.6645800000000 1.0
C      1  0.3931820000000  0.2693120000000  0.5988070000000 1.0
C      1  0.4204740000000  0.6780140000000  0.6521260000000 1.0
C      1  0.7337470000000  0.6329720000000  0.5151420000000 1.0
C      1  0.5837860000000  0.7675300000000  0.4324930000000 1.0
C      1  0.6620450000000  0.4135810000000  0.3881990000000 1.0
C      1  0.4484180000000  0.4082030000000  0.6540890000000 1.0
C      1  0.5377560000000  0.5142780000000  0.4880260000000 1.0
C      1  0.4657750000000  0.5556500000000  0.2986270000000 1.0
C      1  0.3675680000000  0.2996900000000  0.4510140000000 1.0
C      1  0.5662370000000  0.6277480000000  0.6059690000000 1.0
C      1  0.7015870000000  0.5350840000000  0.5018850000000 1.0
C      1  0.3373690000000  0.5056860000000  0.5686020000000 1.0
C      1  0.6492970000000  0.5176130000000  0.4086110000000 1.0
C      1  0.4809350000000  0.5401120000000  0.7533720000000 1.0
C      1  0.5961150000000  0.4049710000000  0.5362860000000 1.0
C      1  0.5127060000000  0.2377730000000  0.4678000000000 1.0
C      1  0.7098770000000  0.4053710000000  0.6433560000000 1.0
C      1  0.3630320000000  0.3553020000000  0.6169710000000 1.0
C      1  0.5726160000000  0.6811020000000  0.3942840000000 1.0
C      1  0.4988780000000  0.3716650000000  0.3665720000000 1.0
C      1  0.4496010000000  0.7450540000000  0.5653850000000 1.0
C      1  0.5839220000000  0.4175820000000  0.3061910000000 1.0
C      1  0.5414220000000  0.5364840000000  0.3763820000000 1.0
C      1  0.4836410000000  0.6387740000000  0.7096490000000 1.0
C      1  0.4122320000000  0.4812160000000  0.7212060000000 1.0
C      1  0.3318130000000  0.6154420000000  0.4296380000000 1.0
C      1  0.4351400000000  0.3538580000000  0.5049650000000 1.0
C      1  0.3184870000000  0.5345720000000  0.3648430000000 1.0
C      1  0.4085300000000  0.4072150000000  0.3334080000000 1.0
C      1  0.7232390000000  0.3831550000000  0.4571440000000 1.0
C      1  0.5431620000000  0.3587300000000  0.6154220000000 1.0
C      1  0.5542290000000  0.7694960000000  0.5279620000000 1.0
C      1  0.4288010000000  0.4496000000000  0.5295150000000 1.0
C      1  0.5082170000000  0.4850900000000  0.5935960000000 1.0
C      1  0.5024760000000  0.2725390000000  0.3930690000000 1.0
END
