TITL C-3036480-97-177 0.0695355290676766 3375 -356.09650496988 0 0 60 (C1) n - 1
REM
REM in /home/bkarasulu/work/CARBON/AIRSS/Generating-Clusters/REBO/Higher-Symm/Only-C60
REM
REM
REM
REM
REM
REM ./C.cell (a2850807a9bf4ad07a5b6933b78d9264)
REM AIRSS Version 0.9.1 bugfix July 2018 build 013d7b7c2542+ Fri, 06 Jul 2018 19:26:36 +0100
REM compiler GCC version 9.2.1 20190827 (Red Hat 9.2.1-1)
REM options -cpp -mtune=generic -march=x86-64 -g -O0 -fpre-include=/usr/include/finclude/math-vector-fortran.h
REM seed -1028791939 -201634906 225198872 197046827 -139422769 -1744561482 1540105027 -1111504384 -1914088713 -1402670786 -1514057434 1688390901 437611784 -761896881 -50970823 486000374 -237509824 1365627514 72978965 -304622871 954752824 -476230175 -1731927422 -1935014840 -1459199001 -492804997 -1125760867 1824358339 1602793473 453021456 1901241395 -1215424937 -1672830724
REM
CELL 1.54180   15.00000   15.00000   15.00000   90.00000   90.00000   90.00000
LATT -1
SFAC C  
C      1  0.5467810000000  0.3487750000000  0.6097200000000 1.0
C      1  0.4545590000000  0.3485270000000  0.6090510000000 1.0
C      1  0.7362270000000  0.5498350000000  0.5255810000000 1.0
C      1  0.2632370000000  0.5489700000000  0.5240110000000 1.0
C      1  0.5449050000000  0.5454760000000  0.7481580000000 1.0
C      1  0.4545080000000  0.5450360000000  0.7473450000000 1.0
C      1  0.3043540000000  0.3332270000000  0.5494290000000 1.0
C      1  0.6975490000000  0.3343620000000  0.5512100000000 1.0
C      1  0.3917970000000  0.5331110000000  0.3062100000000 1.0
C      1  0.6172110000000  0.5302050000000  0.3031970000000 1.0
C      1  0.2398650000000  0.4189260000000  0.4253180000000 1.0
C      1  0.7603460000000  0.4207710000000  0.4266960000000 1.0
C      1  0.4158360000000  0.4808700000000  0.4342380000000 1.0
C      1  0.5878490000000  0.4825150000000  0.4376390000000 1.0
C      1  0.5461140000000  0.3800440000000  0.4447000000000 1.0
C      1  0.4581850000000  0.3791780000000  0.4432150000000 1.0
C      1  0.5967480000000  0.4432680000000  0.6226280000000 1.0
C      1  0.4038160000000  0.4427130000000  0.6210420000000 1.0
C      1  0.3870360000000  0.2987850000000  0.4511520000000 1.0
C      1  0.6165270000000  0.2991400000000  0.4517680000000 1.0
C      1  0.5584650000000  0.4502920000000  0.3325970000000 1.0
C      1  0.4476020000000  0.4473850000000  0.3299660000000 1.0
C      1  0.6928970000000  0.6301770000000  0.5910840000000 1.0
C      1  0.3067200000000  0.6292700000000  0.5909620000000 1.0
C      1  0.5913100000000  0.6558620000000  0.5753450000000 1.0
C      1  0.4089600000000  0.6550670000000  0.5779080000000 1.0
C      1  0.3962560000000  0.2892740000000  0.5616960000000 1.0
C      1  0.6057850000000  0.2899500000000  0.5627340000000 1.0
C      1  0.5457160000000  0.4749440000000  0.5378060000000 1.0
C      1  0.4557890000000  0.4739780000000  0.5363980000000 1.0
C      1  0.3888290000000  0.5163680000000  0.6956910000000 1.0
C      1  0.6113350000000  0.5170460000000  0.6972990000000 1.0
C      1  0.4455100000000  0.6483130000000  0.3536160000000 1.0
C      1  0.5438560000000  0.6391090000000  0.3443320000000 1.0
C      1  0.4515250000000  0.6013340000000  0.2573970000000 1.0
C      1  0.5619890000000  0.5976210000000  0.2501970000000 1.0
C      1  0.4061890000000  0.5901410000000  0.4257030000000 1.0
C      1  0.5907800000000  0.5914960000000  0.4195430000000 1.0
C      1  0.4448040000000  0.2723570000000  0.3651110000000 1.0
C      1  0.5524920000000  0.2699410000000  0.3708680000000 1.0
C      1  0.3028190000000  0.4147880000000  0.5973880000000 1.0
C      1  0.6982170000000  0.4160090000000  0.5992160000000 1.0
C      1  0.3699620000000  0.7786360000000  0.6436430000000 1.0
C      1  0.6299740000000  0.7789660000000  0.6438210000000 1.0
C      1  0.5460120000000  0.6179300000000  0.5061890000000 1.0
C      1  0.4542750000000  0.6163450000000  0.5091550000000 1.0
C      1  0.7404780000000  0.5127450000000  0.4405170000000 1.0
C      1  0.2589770000000  0.5111600000000  0.4386520000000 1.0
C      1  0.4526240000000  0.7314500000000  0.6216780000000 1.0
C      1  0.5478360000000  0.7315130000000  0.6209350000000 1.0
C      1  0.5349840000000  0.3498910000000  0.3076500000000 1.0
C      1  0.4290030000000  0.3467020000000  0.2929080000000 1.0
C      1  0.7011710000000  0.5249230000000  0.6306140000000 1.0
C      1  0.2988410000000  0.5236030000000  0.6287770000000 1.0
C      1  0.7210760000000  0.3402460000000  0.4533330000000 1.0
C      1  0.2816160000000  0.3394940000000  0.4514240000000 1.0
C      1  0.6834770000000  0.5524530000000  0.3770900000000 1.0
C      1  0.3182640000000  0.5498670000000  0.3762460000000 1.0
C      1  0.7072480000000  0.7300590000000  0.6263230000000 1.0
C      1  0.2928870000000  0.7295590000000  0.6258820000000 1.0
END
