TITL C-3036480-97-597 0.108806405534758 3375 -328.651808266508 0 0 60 (Ci) n - 1
REM
REM in /home/bkarasulu/work/CARBON/AIRSS/Generating-Clusters/REBO/Higher-Symm/Only-C60
REM
REM
REM
REM
REM
REM ./C.cell (a2850807a9bf4ad07a5b6933b78d9264)
REM AIRSS Version 0.9.1 bugfix July 2018 build 013d7b7c2542+ Fri, 06 Jul 2018 19:26:36 +0100
REM compiler GCC version 9.2.1 20190827 (Red Hat 9.2.1-1)
REM options -cpp -mtune=generic -march=x86-64 -g -O0 -fpre-include=/usr/include/finclude/math-vector-fortran.h
REM seed 1787991746 -2119543697 -1479725849 2117481096 -631346096 1825046008 1536503071 15243806 1443580749 -1599384025 -2081661746 1477142018 1209344031 -346116725 -602990702 -1507396107 -111893304 400783105 -1117768817 26355473 481730235 -1030817148 2010323863 1548133505 226849918 -1216265199 597079405 1991606419 -96704101 415332993 -2090538942 -1903692112 -433473998
REM
CELL 1.54180   15.00000   15.00000   15.00000   90.00000   90.00000   90.00000
LATT -1
SFAC C  
C      1  0.5219550000000  0.5343830000000  0.2644100000000 1.0
C      1  0.4780240000000  0.4655900000000  0.7356170000000 1.0
C      1  0.3134350000000  0.3246270000000  0.4601690000000 1.0
C      1  0.6865800000000  0.6753700000000  0.5398300000000 1.0
C      1  0.7521840000000  0.5988640000000  0.3616260000000 1.0
C      1  0.2478180000000  0.4011750000000  0.6383860000000 1.0
C      1  0.5887290000000  0.4608170000000  0.2970240000000 1.0
C      1  0.4113040000000  0.5391450000000  0.7029810000000 1.0
C      1  0.4675100000000  0.4331750000000  0.5690280000000 1.0
C      1  0.5324730000000  0.5668340000000  0.4309600000000 1.0
C      1  0.3661250000000  0.5755290000000  0.4035090000000 1.0
C      1  0.6338740000000  0.4244680000000  0.5964740000000 1.0
C      1  0.6547980000000  0.3560990000000  0.3443220000000 1.0
C      1  0.3452300000000  0.6438590000000  0.6557300000000 1.0
C      1  0.6997260000000  0.5816660000000  0.6001600000000 1.0
C      1  0.3002870000000  0.4183340000000  0.3998300000000 1.0
C      1  0.5695720000000  0.3065750000000  0.4009070000000 1.0
C      1  0.4303830000000  0.6934430000000  0.5990950000000 1.0
C      1  0.3380550000000  0.7452480000000  0.4439930000000 1.0
C      1  0.6619510000000  0.2547500000000  0.5560050000000 1.0
C      1  0.4482680000000  0.5445930000000  0.3625380000000 1.0
C      1  0.5517650000000  0.4553950000000  0.6374180000000 1.0
C      1  0.2258320000000  0.5427140000000  0.4750380000000 1.0
C      1  0.7741600000000  0.4572900000000  0.5249460000000 1.0
C      1  0.4819300000000  0.3768010000000  0.4110930000000 1.0
C      1  0.5180290000000  0.6232160000000  0.5889530000000 1.0
C      1  0.4451350000000  0.3810310000000  0.2950530000000 1.0
C      1  0.5548820000000  0.6189550000000  0.7049550000000 1.0
C      1  0.5386980000000  0.2890400000000  0.4936300000000 1.0
C      1  0.4613460000000  0.7109480000000  0.5063450000000 1.0
C      1  0.3507930000000  0.6623410000000  0.4196690000000 1.0
C      1  0.6492080000000  0.3376570000000  0.5803210000000 1.0
C      1  0.6943640000000  0.4529380000000  0.2990240000000 1.0
C      1  0.3055900000000  0.5470760000000  0.7009660000000 1.0
C      1  0.5666030000000  0.5221360000000  0.7234260000000 1.0
C      1  0.4333700000000  0.4778540000000  0.2765720000000 1.0
C      1  0.4846740000000  0.3661700000000  0.7269250000000 1.0
C      1  0.5153240000000  0.6338480000000  0.2730670000000 1.0
C      1  0.6247890000000  0.7046830000000  0.4532380000000 1.0
C      1  0.3751930000000  0.2953280000000  0.5467680000000 1.0
C      1  0.5292290000000  0.6749490000000  0.4369570000000 1.0
C      1  0.4707540000000  0.3250800000000  0.5630770000000 1.0
C      1  0.5058700000000  0.6883320000000  0.3358490000000 1.0
C      1  0.4941170000000  0.3116540000000  0.6641730000000 1.0
C      1  0.4558650000000  0.5392010000000  0.5986250000000 1.0
C      1  0.5441490000000  0.4608080000000  0.4013780000000 1.0
C      1  0.6360680000000  0.5339160000000  0.4633840000000 1.0
C      1  0.3639250000000  0.4661120000000  0.5366100000000 1.0
C      1  0.5491610000000  0.3545460000000  0.2996400000000 1.0
C      1  0.4508670000000  0.6454470000000  0.7003470000000 1.0
C      1  0.6503940000000  0.4333570000000  0.4221480000000 1.0
C      1  0.3496150000000  0.5666260000000  0.5778320000000 1.0
C      1  0.3064280000000  0.3809600000000  0.5584470000000 1.0
C      1  0.6935580000000  0.6190500000000  0.4415530000000 1.0
C      1  0.6173940000000  0.6510230000000  0.6231680000000 1.0
C      1  0.3826040000000  0.3489800000000  0.3768300000000 1.0
C      1  0.3098200000000  0.5068360000000  0.4505710000000 1.0
C      1  0.6901710000000  0.4931590000000  0.5494140000000 1.0
C      1  0.7462440000000  0.5243310000000  0.3103740000000 1.0
C      1  0.2538000000000  0.4756700000000  0.6896230000000 1.0
END
