TITL C-3036484-3770-66 0.000342711600083993 3375 -338.979048184362 0 0 60 (C1) n - 1
REM
REM in /home/bkarasulu/work/CARBON/AIRSS/Generating-Clusters/REBO/Higher-Symm/Only-C60
REM
REM
REM
REM
REM
REM ./C.cell (a2850807a9bf4ad07a5b6933b78d9264)
REM AIRSS Version 0.9.1 bugfix July 2018 build 013d7b7c2542+ Fri, 06 Jul 2018 19:26:36 +0100
REM compiler GCC version 9.2.1 20190827 (Red Hat 9.2.1-1)
REM options -cpp -mtune=generic -march=x86-64 -g -O0 -fpre-include=/usr/include/finclude/math-vector-fortran.h
REM seed 736672703 1389811397 -2141230152 1938575032 164613469 48895186 -452472863 -609009516 -822296433 1560878445 1767716073 -1894362251 -399620577 -760175394 -429433377 -794725331 -1582643311 1165485663 821042390 -1923165771 22474454 140703057 -1468383717 1280826361 1083041624 -163728445 793384401 -226303157 807629035 241480207 -884228016 1140264874 1954653430
REM
CELL 1.54180   15.00000   15.00000   15.00000   90.00000   90.00000   90.00000
LATT -1
SFAC C  
C      1  0.4140830000000  0.5114180000000  0.6887550000000 1.0
C      1  0.6268960000000  0.3556560000000  0.4735190000000 1.0
C      1  0.6623250000000  0.4177650000000  0.6185140000000 1.0
C      1  0.5105810000000  0.5299050000000  0.7432930000000 1.0
C      1  0.6462280000000  0.4435840000000  0.3303080000000 1.0
C      1  0.3456010000000  0.4221200000000  0.2565460000000 1.0
C      1  0.5968990000000  0.5345030000000  0.3000690000000 1.0
C      1  0.6798120000000  0.3768540000000  0.3826660000000 1.0
C      1  0.4007120000000  0.4084040000000  0.4150430000000 1.0
C      1  0.2796140000000  0.4316580000000  0.5409870000000 1.0
C      1  0.5199740000000  0.3441290000000  0.5017360000000 1.0
C      1  0.2718730000000  0.4256200000000  0.3442570000000 1.0
C      1  0.6419620000000  0.3380470000000  0.5743310000000 1.0
C      1  0.3506140000000  0.3432700000000  0.3361690000000 1.0
C      1  0.4116960000000  0.6170490000000  0.5592900000000 1.0
C      1  0.4156560000000  0.5105130000000  0.2619140000000 1.0
C      1  0.5809400000000  0.4732780000000  0.6458870000000 1.0
C      1  0.4452370000000  0.4895810000000  0.3663590000000 1.0
C      1  0.3493260000000  0.4284030000000  0.6090700000000 1.0
C      1  0.2631230000000  0.5361590000000  0.4999010000000 1.0
C      1  0.3765160000000  0.6766690000000  0.4451130000000 1.0
C      1  0.4277670000000  0.3558130000000  0.6509300000000 1.0
C      1  0.3413880000000  0.3570910000000  0.7207160000000 1.0
C      1  0.7967600000000  0.4881870000000  0.5443680000000 1.0
C      1  0.4702500000000  0.5914990000000  0.2276130000000 1.0
C      1  0.3293360000000  0.5798200000000  0.3797730000000 1.0
C      1  0.4280030000000  0.5705450000000  0.4355220000000 1.0
C      1  0.5506660000000  0.5331590000000  0.5648110000000 1.0
C      1  0.5171430000000  0.5686470000000  0.4882880000000 1.0
C      1  0.4758760000000  0.2933240000000  0.5921430000000 1.0
C      1  0.2307010000000  0.4462810000000  0.4385390000000 1.0
C      1  0.7455830000000  0.6733710000000  0.4945590000000 1.0
C      1  0.5813470000000  0.4547270000000  0.4617080000000 1.0
C      1  0.7274390000000  0.4857000000000  0.6064850000000 1.0
C      1  0.3064990000000  0.3668000000000  0.4586260000000 1.0
C      1  0.6658980000000  0.6223680000000  0.5363610000000 1.0
C      1  0.4925600000000  0.4316250000000  0.6871980000000 1.0
C      1  0.5406010000000  0.6684850000000  0.3591760000000 1.0
C      1  0.3226790000000  0.4579470000000  0.7165250000000 1.0
C      1  0.5858840000000  0.6177860000000  0.4304180000000 1.0
C      1  0.3675940000000  0.2804640000000  0.4290290000000 1.0
C      1  0.8147980000000  0.6264480000000  0.4576990000000 1.0
C      1  0.8337020000000  0.5394240000000  0.4789140000000 1.0
C      1  0.5500450000000  0.6142140000000  0.2770130000000 1.0
C      1  0.3158820000000  0.6125360000000  0.5077400000000 1.0
C      1  0.4353150000000  0.6527900000000  0.6574480000000 1.0
C      1  0.5415660000000  0.4702090000000  0.3644650000000 1.0
C      1  0.4722260000000  0.7121080000000  0.4188350000000 1.0
C      1  0.4422770000000  0.2647060000000  0.4885610000000 1.0
C      1  0.5145800000000  0.6247290000000  0.6940800000000 1.0
C      1  0.5726680000000  0.6820170000000  0.5530800000000 1.0
C      1  0.4728320000000  0.4436270000000  0.4949380000000 1.0
C      1  0.5905050000000  0.6426500000000  0.6433390000000 1.0
C      1  0.6198010000000  0.5434830000000  0.7255830000000 1.0
C      1  0.4214390000000  0.5053700000000  0.5747170000000 1.0
C      1  0.6445220000000  0.5373080000000  0.4705000000000 1.0
C      1  0.6825080000000  0.5763770000000  0.6370480000000 1.0
C      1  0.5807540000000  0.2806460000000  0.6112350000000 1.0
C      1  0.3159360000000  0.5198540000000  0.3081220000000 1.0
C      1  0.4850030000000  0.6932780000000  0.5201700000000 1.0
END
