TITL C-3036479-9801-545 0.00128821798542304 3375 -343.264187209622 0 0 60 (C5) n - 1
REM
REM in /home/bkarasulu/work/CARBON/AIRSS/Generating-Clusters/REBO/Higher-Symm/Only-C60
REM
REM
REM
REM
REM
REM ./C.cell (a2850807a9bf4ad07a5b6933b78d9264)
REM AIRSS Version 0.9.1 bugfix July 2018 build 013d7b7c2542+ Fri, 06 Jul 2018 19:26:36 +0100
REM compiler GCC version 9.2.1 20190827 (Red Hat 9.2.1-1)
REM options -cpp -mtune=generic -march=x86-64 -g -O0 -fpre-include=/usr/include/finclude/math-vector-fortran.h
REM seed 158660108 -937321946 1954891277 -927475388 -1667252266 752937745 -1372561074 -1554386035 -1004868082 141325397 1621461369 274244349 -2079180065 -2071998591 1210626290 -814850837 -26176787 -36439405 922307838 1754122062 2058398071 1338209893 1742710525 463558484 979369478 990641988 671137966 -2095700996 -103437218 915604823 -139166571 -1957173622 -864372863
REM
CELL 1.54180   15.00000   15.00000   15.00000   90.00000   90.00000   90.00000
LATT -1
SFAC C  
C      1  0.5491950000000  0.6582780000000  0.6897580000000 1.0
C      1  0.3347310000000  0.6582780000000  0.6054260000000 1.0
C      1  0.3486630000000  0.6582780000000  0.3753980000000 1.0
C      1  0.5717380000000  0.6582770000000  0.3175660000000 1.0
C      1  0.6956730000000  0.6582780000000  0.5118510000000 1.0
C      1  0.4421070000000  0.6963580000000  0.4269610000000 1.0
C      1  0.5515730000000  0.6963580000000  0.4223700000000 1.0
C      1  0.5897660000000  0.6963590000000  0.5250620000000 1.0
C      1  0.5039070000000  0.6963580000000  0.5931180000000 1.0
C      1  0.4126460000000  0.6963590000000  0.5324870000000 1.0
C      1  0.6148820000000  0.5724050000000  0.3057900000000 1.0
C      1  0.7202070000000  0.5724050000000  0.5492430000000 1.0
C      1  0.5212130000000  0.5724060000000  0.7246450000000 1.0
C      1  0.2929040000000  0.5724050000000  0.5895950000000 1.0
C      1  0.3507940000000  0.5724050000000  0.3307270000000 1.0
C      1  0.5325370000000  0.4206060000000  0.4107030000000 1.0
C      1  0.5949810000000  0.4206070000000  0.5033500000000 1.0
C      1  0.5261650000000  0.4206070000000  0.5913680000000 1.0
C      1  0.4211900000000  0.4206070000000  0.5531190000000 1.0
C      1  0.4251270000000  0.4206060000000  0.4414620000000 1.0
C      1  0.4480780000000  0.5257050000000  0.2951840000000 1.0
C      1  0.6787460000000  0.5257060000000  0.3873270000000 1.0
C      1  0.6623940000000  0.5257050000000  0.6351810000000 1.0
C      1  0.4216180000000  0.5257070000000  0.6962180000000 1.0
C      1  0.2891630000000  0.5257060000000  0.4860890000000 1.0
C      1  0.5572850000000  0.4227620000000  0.7209460000000 1.0
C      1  0.3075700000000  0.4227620000000  0.6227570000000 1.0
C      1  0.3237870000000  0.4227620000000  0.3549220000000 1.0
C      1  0.5835250000000  0.4227620000000  0.2875800000000 1.0
C      1  0.7278340000000  0.4227620000000  0.5137950000000 1.0
C      1  0.4170730000000  0.2574560000000  0.4836080000000 1.0
C      1  0.4899640000000  0.2574560000000  0.4160660000000 1.0
C      1  0.5767250000000  0.2574560000000  0.4645190000000 1.0
C      1  0.5574540000000  0.2574570000000  0.5620060000000 1.0
C      1  0.4587840000000  0.2574570000000  0.5738030000000 1.0
C      1  0.4840990000000  0.5526540000000  0.4206110000000 1.0
C      1  0.5705890000000  0.5526540000000  0.4603450000000 1.0
C      1  0.5595280000000  0.5526540000000  0.5548800000000 1.0
C      1  0.4662010000000  0.5526540000000  0.5735730000000 1.0
C      1  0.4195830000000  0.5526540000000  0.4905900000000 1.0
C      1  0.3146760000000  0.4257140000000  0.5157640000000 1.0
C      1  0.4277400000000  0.4257140000000  0.3286180000000 1.0
C      1  0.6406650000000  0.4257140000000  0.3783160000000 1.0
C      1  0.6591960000000  0.4257150000000  0.5961780000000 1.0
C      1  0.4577240000000  0.4257150000000  0.6811250000000 1.0
C      1  0.2980300000000  0.5077810000000  0.3795060000000 1.0
C      1  0.5521840000000  0.5077800000000  0.2706800000000 1.0
C      1  0.7342220000000  0.5077810000000  0.4787670000000 1.0
C      1  0.5925730000000  0.5077810000000  0.7161970000000 1.0
C      1  0.3229910000000  0.5077810000000  0.6548510000000 1.0
C      1  0.4297210000000  0.3345170000000  0.6225300000000 1.0
C      1  0.3617500000000  0.3345170000000  0.4710250000000 1.0
C      1  0.4848360000000  0.3345170000000  0.3595630000000 1.0
C      1  0.6288780000000  0.3345170000000  0.4421810000000 1.0
C      1  0.5948150000000  0.3345170000000  0.6047030000000 1.0
C      1  0.6149130000000  0.6257630000000  0.6110550000000 1.0
C      1  0.4298920000000  0.6257600000000  0.6436110000000 1.0
C      1  0.3417550000000  0.6257620000000  0.4776990000000 1.0
C      1  0.4723090000000  0.6257610000000  0.3426090000000 1.0
C      1  0.6411310000000  0.6257590000000  0.4250240000000 1.0
END
