TITL C-3036479-9801-412 -0.028873537622937 3375 -362.066313826311 0 0 60 (C1) n - 1
REM
REM in /home/bkarasulu/work/CARBON/AIRSS/Generating-Clusters/REBO/Higher-Symm/Only-C60
REM
REM
REM
REM
REM
REM ./C.cell (a2850807a9bf4ad07a5b6933b78d9264)
REM AIRSS Version 0.9.1 bugfix July 2018 build 013d7b7c2542+ Fri, 06 Jul 2018 19:26:36 +0100
REM compiler GCC version 9.2.1 20190827 (Red Hat 9.2.1-1)
REM options -cpp -mtune=generic -march=x86-64 -g -O0 -fpre-include=/usr/include/finclude/math-vector-fortran.h
REM seed 1944818711 2014089012 429445195 1367132603 -683764229 -731186290 1036674700 -564193472 521455310 -1048481758 -728482324 1286599238 1784708300 2032940497 -1389587650 -868841066 -1699018745 -1158638267 -372988758 -275623523 1661376362 -1950852032 558903831 452406725 2013422195 -468223817 1387342172 275872610 -1661807961 -1982193908 -797485319 2070518351 -185875137
REM
CELL 1.54180   15.00000   15.00000   15.00000   90.00000   90.00000   90.00000
LATT -1
SFAC C  
C      1  0.5870990000000  0.5823940000000  0.4362390000000 1.0
C      1  0.3807750000000  0.5179900000000  0.4392120000000 1.0
C      1  0.5165410000000  0.3971740000000  0.4495220000000 1.0
C      1  0.3133870000000  0.3313250000000  0.5447770000000 1.0
C      1  0.7360190000000  0.4204320000000  0.5486410000000 1.0
C      1  0.4434350000000  0.7471270000000  0.5521890000000 1.0
C      1  0.3759020000000  0.5484190000000  0.6013720000000 1.0
C      1  0.5123520000000  0.3680030000000  0.6128010000000 1.0
C      1  0.6035330000000  0.5810510000000  0.5994060000000 1.0
C      1  0.4092060000000  0.7255470000000  0.3960700000000 1.0
C      1  0.3497080000000  0.3117330000000  0.3898920000000 1.0
C      1  0.7437900000000  0.4593390000000  0.3912380000000 1.0
C      1  0.5114310000000  0.2652630000000  0.4389390000000 1.0
C      1  0.7130750000000  0.6241860000000  0.4377320000000 1.0
C      1  0.2900120000000  0.6148750000000  0.4399500000000 1.0
C      1  0.5955300000000  0.5162030000000  0.3210560000000 1.0
C      1  0.4412730000000  0.5719840000000  0.3259370000000 1.0
C      1  0.4739640000000  0.4128600000000  0.3233160000000 1.0
C      1  0.6445240000000  0.6754510000000  0.5808000000000 1.0
C      1  0.2719780000000  0.5396740000000  0.5885550000000 1.0
C      1  0.5747790000000  0.2872220000000  0.5903320000000 1.0
C      1  0.6792790000000  0.5368530000000  0.3836210000000 1.0
C      1  0.3822020000000  0.6298580000000  0.3902510000000 1.0
C      1  0.4482490000000  0.3326420000000  0.3849160000000 1.0
C      1  0.3597140000000  0.6790910000000  0.5810860000000 1.0
C      1  0.4108640000000  0.2910630000000  0.5741320000000 1.0
C      1  0.7238010000000  0.5287670000000  0.5760580000000 1.0
C      1  0.4298590000000  0.7780520000000  0.4573300000000 1.0
C      1  0.2932800000000  0.3121430000000  0.4510190000000 1.0
C      1  0.7683910000000  0.4111210000000  0.4541080000000 1.0
C      1  0.6630910000000  0.6975170000000  0.3995910000000 1.0
C      1  0.2512250000000  0.5369530000000  0.3984230000000 1.0
C      1  0.5987510000000  0.2765050000000  0.3997760000000 1.0
C      1  0.5987920000000  0.4721240000000  0.7041350000000 1.0
C      1  0.4818050000000  0.5956720000000  0.6992220000000 1.0
C      1  0.4308140000000  0.4351240000000  0.6970950000000 1.0
C      1  0.2917690000000  0.6278870000000  0.5363380000000 1.0
C      1  0.4930490000000  0.2625240000000  0.5337600000000 1.0
C      1  0.7143960000000  0.6137020000000  0.5337770000000 1.0
C      1  0.3767070000000  0.3780610000000  0.6381500000000 1.0
C      1  0.6741500000000  0.4487290000000  0.6405310000000 1.0
C      1  0.4572540000000  0.6753490000000  0.6405370000000 1.0
C      1  0.5703840000000  0.5617720000000  0.6870630000000 1.0
C      1  0.4166510000000  0.5281920000000  0.6850020000000 1.0
C      1  0.5263970000000  0.4104670000000  0.7022860000000 1.0
C      1  0.5674200000000  0.4262640000000  0.3190310000000 1.0
C      1  0.5339100000000  0.5900820000000  0.3149550000000 1.0
C      1  0.4102920000000  0.4823480000000  0.3146010000000 1.0
C      1  0.6409850000000  0.3652360000000  0.5710740000000 1.0
C      1  0.5410140000000  0.6939330000000  0.5668010000000 1.0
C      1  0.2966040000000  0.4367380000000  0.5826450000000 1.0
C      1  0.5990350000000  0.5238720000000  0.5231230000000 1.0
C      1  0.4252660000000  0.5704520000000  0.5204840000000 1.0
C      1  0.4656800000000  0.4061360000000  0.5363100000000 1.0
C      1  0.6185760000000  0.3505970000000  0.3475140000000 1.0
C      1  0.5732410000000  0.6704380000000  0.3639540000000 1.0
C      1  0.3181930000000  0.4732540000000  0.3574180000000 1.0
C      1  0.5052570000000  0.6155440000000  0.5025720000000 1.0
C      1  0.3829770000000  0.4443960000000  0.5184880000000 1.0
C      1  0.5923630000000  0.4322900000000  0.5048460000000 1.0
END
