TITL C-3036484-3770-18 0.00022014997345637 3375 -333.114386050664 0 0 60 (Ci) n - 1
REM
REM in /home/bkarasulu/work/CARBON/AIRSS/Generating-Clusters/REBO/Higher-Symm/Only-C60
REM
REM
REM
REM
REM
REM ./C.cell (a2850807a9bf4ad07a5b6933b78d9264)
REM AIRSS Version 0.9.1 bugfix July 2018 build 013d7b7c2542+ Fri, 06 Jul 2018 19:26:36 +0100
REM compiler GCC version 9.2.1 20190827 (Red Hat 9.2.1-1)
REM options -cpp -mtune=generic -march=x86-64 -g -O0 -fpre-include=/usr/include/finclude/math-vector-fortran.h
REM seed -614674984 1711089381 -1289656562 628650299 2104799477 67049771 1030311685 1499483339 1924415821 -1579931093 871814907 1413213280 1875034324 -320832342 -1036448310 -27008033 1898106874 394855468 -1965176907 29903793 -35981243 605199801 476244690 651431114 -1827008865 1910120938 -549455092 680420668 -2084053797 -1173711097 244053379 360030766 -729374879
REM
CELL 1.54180   15.00000   15.00000   15.00000   90.00000   90.00000   90.00000
LATT -1
SFAC C  
C      1  0.6429560000000  0.5979440000000  0.3397100000000 1.0
C      1  0.3570500000000  0.4020710000000  0.6603010000000 1.0
C      1  0.5402960000000  0.3135380000000  0.6383210000000 1.0
C      1  0.4597060000000  0.6864670000000  0.3616670000000 1.0
C      1  0.5240560000000  0.5401630000000  0.7217700000000 1.0
C      1  0.4759440000000  0.4598330000000  0.2782190000000 1.0
C      1  0.3030190000000  0.6061460000000  0.5623340000000 1.0
C      1  0.6969820000000  0.3938480000000  0.4376680000000 1.0
C      1  0.6339160000000  0.6766140000000  0.4212560000000 1.0
C      1  0.3660830000000  0.3233900000000  0.5787550000000 1.0
C      1  0.5908600000000  0.4141420000000  0.4011120000000 1.0
C      1  0.4091360000000  0.5858560000000  0.5988870000000 1.0
C      1  0.5463000000000  0.3248750000000  0.5253950000000 1.0
C      1  0.4537080000000  0.6751320000000  0.4746140000000 1.0
C      1  0.3441770000000  0.4474770000000  0.2719510000000 1.0
C      1  0.6558230000000  0.5525240000000  0.7280390000000 1.0
C      1  0.2717090000000  0.4809900000000  0.4537790000000 1.0
C      1  0.7282900000000  0.5190070000000  0.5462550000000 1.0
C      1  0.5636280000000  0.6815010000000  0.3328420000000 1.0
C      1  0.4363790000000  0.3185230000000  0.6671480000000 1.0
C      1  0.8166730000000  0.5420280000000  0.5307860000000 1.0
C      1  0.1833130000000  0.4579670000000  0.4691870000000 1.0
C      1  0.3858680000000  0.5987190000000  0.4259570000000 1.0
C      1  0.6141600000000  0.4012690000000  0.5740560000000 1.0
C      1  0.4867900000000  0.3575970000000  0.3266000000000 1.0
C      1  0.5132250000000  0.6423970000000  0.6733930000000 1.0
C      1  0.5410350000000  0.4764150000000  0.5620630000000 1.0
C      1  0.4589660000000  0.5235630000000  0.4379400000000 1.0
C      1  0.6831430000000  0.4919640000000  0.3411580000000 1.0
C      1  0.3168400000000  0.5080350000000  0.6588200000000 1.0
C      1  0.6000310000000  0.3897410000000  0.6834000000000 1.0
C      1  0.3999590000000  0.6102640000000  0.3166220000000 1.0
C      1  0.4764810000000  0.5208780000000  0.6333980000000 1.0
C      1  0.5235230000000  0.4791210000000  0.3665880000000 1.0
C      1  0.4013370000000  0.5309750000000  0.2628480000000 1.0
C      1  0.5986600000000  0.4690400000000  0.7371610000000 1.0
C      1  0.3653280000000  0.4906340000000  0.5648570000000 1.0
C      1  0.6346750000000  0.5093630000000  0.4351340000000 1.0
C      1  0.5275160000000  0.2988140000000  0.4163270000000 1.0
C      1  0.4724900000000  0.7011850000000  0.5836500000000 1.0
C      1  0.4437540000000  0.3534170000000  0.5029960000000 1.0
C      1  0.5562330000000  0.6465920000000  0.4970100000000 1.0
C      1  0.5976060000000  0.3295670000000  0.3318380000000 1.0
C      1  0.4024030000000  0.6704230000000  0.6681800000000 1.0
C      1  0.5385040000000  0.5823570000000  0.3817090000000 1.0
C      1  0.4614940000000  0.4176470000000  0.6182910000000 1.0
C      1  0.6603000000000  0.6003800000000  0.5727880000000 1.0
C      1  0.3396820000000  0.3996060000000  0.4272200000000 1.0
C      1  0.3020390000000  0.5696730000000  0.4736030000000 1.0
C      1  0.6979550000000  0.4303490000000  0.5263840000000 1.0
C      1  0.5891890000000  0.5469950000000  0.5118550000000 1.0
C      1  0.4108140000000  0.4530030000000  0.4881390000000 1.0
C      1  0.4144340000000  0.2905980000000  0.4130570000000 1.0
C      1  0.5855470000000  0.7094030000000  0.5869460000000 1.0
C      1  0.3775060000000  0.3869240000000  0.3338410000000 1.0
C      1  0.6224950000000  0.6130660000000  0.6661530000000 1.0
C      1  0.3235720000000  0.3053760000000  0.4793990000000 1.0
C      1  0.6764340000000  0.6946110000000  0.5206080000000 1.0
C      1  0.6946960000000  0.3892660000000  0.3247240000000 1.0
C      1  0.3053150000000  0.6107370000000  0.6752950000000 1.0
END
