TITL C-3036486-2224-1082 0.0217418415062035 3375 -341.692656081409 0 0 60 (C1) n - 1
REM
REM in /home/bkarasulu/work/CARBON/AIRSS/Generating-Clusters/REBO/Higher-Symm/Only-C60
REM
REM
REM
REM
REM
REM ./C.cell (a2850807a9bf4ad07a5b6933b78d9264)
REM AIRSS Version 0.9.1 bugfix July 2018 build 013d7b7c2542+ Fri, 06 Jul 2018 19:26:36 +0100
REM compiler GCC version 9.2.1 20190827 (Red Hat 9.2.1-1)
REM options -cpp -mtune=generic -march=x86-64 -g -O0 -fpre-include=/usr/include/finclude/math-vector-fortran.h
REM seed 909644942 1249875691 -1693882696 11852851 -414185401 220212367 -741921921 -762028270 567276102 1820974607 -1112845980 588164680 -1526724896 -1459654702 459213300 -606824600 753854679 865355909 818025629 -1650636500 479022240 2038970236 1456413600 -2037621328 416959694 135411900 -2124598149 -166372840 255808700 1696260141 -335165841 158835165 1741052246
REM
CELL 1.54180   15.00000   15.00000   15.00000   90.00000   90.00000   90.00000
LATT -1
SFAC C  
C      1  0.5847550000000  0.5129850000000  0.4088890000000 1.0
C      1  0.4192590000000  0.5251390000000  0.7329040000000 1.0
C      1  0.3769870000000  0.6909240000000  0.5348010000000 1.0
C      1  0.6251280000000  0.7158170000000  0.6161500000000 1.0
C      1  0.5296290000000  0.7267260000000  0.6353710000000 1.0
C      1  0.4363910000000  0.3691520000000  0.2700490000000 1.0
C      1  0.7106460000000  0.6140020000000  0.5058810000000 1.0
C      1  0.2893990000000  0.3725860000000  0.5141160000000 1.0
C      1  0.4280320000000  0.5453570000000  0.5025900000000 1.0
C      1  0.6828200000000  0.5288210000000  0.4402850000000 1.0
C      1  0.5856110000000  0.5893900000000  0.7210040000000 1.0
C      1  0.4056120000000  0.6217740000000  0.6919570000000 1.0
C      1  0.3825110000000  0.7303470000000  0.4516360000000 1.0
C      1  0.2460500000000  0.4684460000000  0.4907450000000 1.0
C      1  0.7432020000000  0.5147850000000  0.3587090000000 1.0
C      1  0.5442680000000  0.6690430000000  0.3857250000000 1.0
C      1  0.6027640000000  0.3309120000000  0.4275200000000 1.0
C      1  0.4074550000000  0.5119010000000  0.3541950000000 1.0
C      1  0.5025850000000  0.2504050000000  0.5580970000000 1.0
C      1  0.5257020000000  0.7629980000000  0.3246520000000 1.0
C      1  0.3168490000000  0.5570410000000  0.4938460000000 1.0
C      1  0.6960010000000  0.4474030000000  0.5111780000000 1.0
C      1  0.3849260000000  0.3233610000000  0.3303900000000 1.0
C      1  0.4130990000000  0.3754420000000  0.6691980000000 1.0
C      1  0.4726010000000  0.5248100000000  0.4217470000000 1.0
C      1  0.2974060000000  0.3344170000000  0.3866040000000 1.0
C      1  0.4863440000000  0.5711450000000  0.5821850000000 1.0
C      1  0.5133130000000  0.4299430000000  0.3181310000000 1.0
C      1  0.6166340000000  0.4802220000000  0.7140400000000 1.0
C      1  0.4185380000000  0.2412590000000  0.5378850000000 1.0
C      1  0.5724620000000  0.5654230000000  0.5298060000000 1.0
C      1  0.7108560000000  0.5832960000000  0.6100930000000 1.0
C      1  0.7733680000000  0.4832860000000  0.2853000000000 1.0
C      1  0.3502380000000  0.6015190000000  0.5947250000000 1.0
C      1  0.6091150000000  0.4063510000000  0.6758350000000 1.0
C      1  0.5850890000000  0.6441220000000  0.4747700000000 1.0
C      1  0.6113020000000  0.2749540000000  0.3542350000000 1.0
C      1  0.5387600000000  0.4095860000000  0.4175000000000 1.0
C      1  0.3673720000000  0.4564920000000  0.6904890000000 1.0
C      1  0.6519110000000  0.7027410000000  0.5210280000000 1.0
C      1  0.4573760000000  0.3960220000000  0.4879940000000 1.0
C      1  0.5628100000000  0.3417370000000  0.6142910000000 1.0
C      1  0.4620030000000  0.6727650000000  0.5822970000000 1.0
C      1  0.3287580000000  0.2796780000000  0.4817560000000 1.0
C      1  0.6474220000000  0.5149250000000  0.5678010000000 1.0
C      1  0.5542100000000  0.5836060000000  0.3348280000000 1.0
C      1  0.4742220000000  0.4507480000000  0.2106100000000 1.0
C      1  0.5993470000000  0.2874060000000  0.5283690000000 1.0
C      1  0.4685330000000  0.3732700000000  0.5958950000000 1.0
C      1  0.4204160000000  0.3152960000000  0.4278530000000 1.0
C      1  0.4978150000000  0.6619200000000  0.7095350000000 1.0
C      1  0.2634110000000  0.4231000000000  0.3937340000000 1.0
C      1  0.3657640000000  0.4328750000000  0.5358820000000 1.0
C      1  0.6891080000000  0.3601070000000  0.4874090000000 1.0
C      1  0.5157990000000  0.5304920000000  0.2673770000000 1.0
C      1  0.4504350000000  0.7323960000000  0.3905090000000 1.0
C      1  0.3190630000000  0.5107130000000  0.3899350000000 1.0
C      1  0.6609260000000  0.6417730000000  0.6687650000000 1.0
C      1  0.5030390000000  0.5342600000000  0.6750090000000 1.0
C      1  0.3445550000000  0.4925890000000  0.6058910000000 1.0
END
