TITL C-3036481-494-389 -0.0300585018629386 3375 -361.096689078876 0 0 60 (D2) n - 1
REM
REM in /home/bkarasulu/work/CARBON/AIRSS/Generating-Clusters/REBO/Higher-Symm/Only-C60
REM
REM
REM
REM
REM
REM ./C.cell (a2850807a9bf4ad07a5b6933b78d9264)
REM AIRSS Version 0.9.1 bugfix July 2018 build 013d7b7c2542+ Fri, 06 Jul 2018 19:26:36 +0100
REM compiler GCC version 9.2.1 20190827 (Red Hat 9.2.1-1)
REM options -cpp -mtune=generic -march=x86-64 -g -O0 -fpre-include=/usr/include/finclude/math-vector-fortran.h
REM seed 1352954330 -1379891484 -1722830201 -1195724727 302832261 1511187442 -1675711665 -886596888 -1826490657 -653573934 685757954 60163625 1555360266 -872586317 145618051 596158255 -1327334550 615368702 -92941442 1021209609 1502500050 1171511478 -526117608 1340299739 1298236840 1025242380 1929853394 1889629184 370781327 1294211187 1642177032 1623119019 515089666
REM
CELL 1.54180   15.00000   15.00000   15.00000   90.00000   90.00000   90.00000
LATT -1
SFAC C  
C      1  0.5913310000000  0.5404760000000  0.6888300000000 1.0
C      1  0.5071980000000  0.5950740000000  0.6918230000000 1.0
C      1  0.4143320000000  0.5586940000000  0.6899910000000 1.0
C      1  0.4086780000000  0.4595040000000  0.6887890000000 1.0
C      1  0.4928030000000  0.4049440000000  0.6918200000000 1.0
C      1  0.5856670000000  0.4413030000000  0.6900070000000 1.0
C      1  0.4086710000000  0.5405050000000  0.3111930000000 1.0
C      1  0.4928120000000  0.5950520000000  0.3081890000000 1.0
C      1  0.5856630000000  0.5586990000000  0.3099990000000 1.0
C      1  0.5913280000000  0.4595170000000  0.3111740000000 1.0
C      1  0.5071840000000  0.4049350000000  0.3082160000000 1.0
C      1  0.4143390000000  0.4412790000000  0.3099780000000 1.0
C      1  0.6527170000000  0.6456370000000  0.5523240000000 1.0
C      1  0.4413510000000  0.6840300000000  0.5312390000000 1.0
C      1  0.3056900000000  0.5511230000000  0.5423490000000 1.0
C      1  0.3472680000000  0.3543270000000  0.5523350000000 1.0
C      1  0.5586460000000  0.3159590000000  0.5312370000000 1.0
C      1  0.6943130000000  0.4488980000000  0.5423570000000 1.0
C      1  0.3473040000000  0.6456340000000  0.4476620000000 1.0
C      1  0.5586530000000  0.6840410000000  0.4687620000000 1.0
C      1  0.6943100000000  0.5511050000000  0.4576420000000 1.0
C      1  0.6527170000000  0.3543610000000  0.4476830000000 1.0
C      1  0.4413480000000  0.3159590000000  0.4687540000000 1.0
C      1  0.3056870000000  0.4488810000000  0.4576630000000 1.0
C      1  0.4364040000000  0.7068400000000  0.4253920000000 1.0
C      1  0.2687090000000  0.5461470000000  0.4348470000000 1.0
C      1  0.3427100000000  0.3236920000000  0.4419450000000 1.0
C      1  0.5636090000000  0.2931550000000  0.4253910000000 1.0
C      1  0.7312890000000  0.4538470000000  0.4348430000000 1.0
C      1  0.6572950000000  0.6763270000000  0.4419280000000 1.0
C      1  0.5635950000000  0.7068430000000  0.5746010000000 1.0
C      1  0.7312890000000  0.5461510000000  0.5651590000000 1.0
C      1  0.6572920000000  0.3236730000000  0.5580670000000 1.0
C      1  0.4364140000000  0.2931570000000  0.5746050000000 1.0
C      1  0.2686950000000  0.4538750000000  0.5651530000000 1.0
C      1  0.3426990000000  0.6763200000000  0.5580840000000 1.0
C      1  0.3413590000000  0.3935430000000  0.3642750000000 1.0
C      1  0.5179400000000  0.3172690000000  0.3467780000000 1.0
C      1  0.6698760000000  0.4186210000000  0.3552860000000 1.0
C      1  0.6586460000000  0.6064560000000  0.3642840000000 1.0
C      1  0.4820440000000  0.6827590000000  0.3467630000000 1.0
C      1  0.3301100000000  0.5813730000000  0.3552650000000 1.0
C      1  0.6586420000000  0.3935490000000  0.6357150000000 1.0
C      1  0.4820460000000  0.3172400000000  0.6532360000000 1.0
C      1  0.3301540000000  0.4186130000000  0.6446810000000 1.0
C      1  0.3413540000000  0.6064680000000  0.6357190000000 1.0
C      1  0.5179490000000  0.6827510000000  0.6532470000000 1.0
C      1  0.6698810000000  0.5813760000000  0.6447250000000 1.0
C      1  0.4324030000000  0.4303060000000  0.5609470000000 1.0
C      1  0.5233700000000  0.4054180000000  0.5622140000000 1.0
C      1  0.5871810000000  0.4773490000000  0.5621940000000 1.0
C      1  0.5676250000000  0.5696800000000  0.5609630000000 1.0
C      1  0.4766340000000  0.5945840000000  0.5622130000000 1.0
C      1  0.4128410000000  0.5226920000000  0.5621850000000 1.0
C      1  0.5676130000000  0.4303110000000  0.4390360000000 1.0
C      1  0.4766110000000  0.4054110000000  0.4377950000000 1.0
C      1  0.4128290000000  0.4773420000000  0.4378060000000 1.0
C      1  0.4323620000000  0.5696810000000  0.4390420000000 1.0
C      1  0.5233410000000  0.5945890000000  0.4377910000000 1.0
C      1  0.5871820000000  0.5226530000000  0.4378100000000 1.0
END
