TITL C-3036484-3770-1146 -0.00858297242575417 3375 -344.933254728943 0 0 60 (C2v) n - 1
REM
REM in /home/bkarasulu/work/CARBON/AIRSS/Generating-Clusters/REBO/Higher-Symm/Only-C60
REM
REM
REM
REM
REM
REM ./C.cell (a2850807a9bf4ad07a5b6933b78d9264)
REM AIRSS Version 0.9.1 bugfix July 2018 build 013d7b7c2542+ Fri, 06 Jul 2018 19:26:36 +0100
REM compiler GCC version 9.2.1 20190827 (Red Hat 9.2.1-1)
REM options -cpp -mtune=generic -march=x86-64 -g -O0 -fpre-include=/usr/include/finclude/math-vector-fortran.h
REM seed 466640473 -1296191203 -609848788 -593706224 -1510169663 -1253857942 1568857278 -946537768 -440807935 -951296484 1993497893 1284637826 1583539663 -2059976903 -1394410395 -1487214459 -2137554565 1631723343 756167305 -1773991032 257865306 257348256 669098010 -228730607 1859053220 -1340929454 -1990470399 1263651488 -563065138 1711298237 964264088 1176217305 765260853
REM
CELL 1.54180   15.00000   15.00000   15.00000   90.00000   90.00000   90.00000
LATT -1
SFAC C  
C      1  0.4243710000000  0.5943450000000  0.4156120000000 1.0
C      1  0.4243780000000  0.4056650000000  0.5843710000000 1.0
C      1  0.4243780000000  0.5943350000000  0.5843710000000 1.0
C      1  0.4243710000000  0.4056560000000  0.4156110000000 1.0
C      1  0.5917030000000  0.5949360000000  0.4173120000000 1.0
C      1  0.5917000000000  0.4050660000000  0.5826850000000 1.0
C      1  0.5917000000000  0.5949340000000  0.5826850000000 1.0
C      1  0.5917030000000  0.4050640000000  0.4173120000000 1.0
C      1  0.3238720000000  0.5537150000000  0.5532700000000 1.0
C      1  0.3238730000000  0.4462750000000  0.4467230000000 1.0
C      1  0.3238730000000  0.5537260000000  0.4467230000000 1.0
C      1  0.3238720000000  0.4462860000000  0.5532710000000 1.0
C      1  0.7479120000000  0.4111830000000  0.4536780000000 1.0
C      1  0.7479100000000  0.5888170000000  0.5463230000000 1.0
C      1  0.7479100000000  0.4111830000000  0.5463230000000 1.0
C      1  0.7479120000000  0.5888170000000  0.4536780000000 1.0
C      1  0.3715420000000  0.6620480000000  0.3446320000000 1.0
C      1  0.3715500000000  0.3379580000000  0.6553560000000 1.0
C      1  0.3715490000000  0.6620410000000  0.6553560000000 1.0
C      1  0.3715410000000  0.3379520000000  0.3446320000000 1.0
C      1  0.5055990000000  0.4478890000000  0.4462340000000 1.0
C      1  0.5056010000000  0.5521090000000  0.5537490000000 1.0
C      1  0.5056010000000  0.4478910000000  0.5537490000000 1.0
C      1  0.5055990000000  0.5521110000000  0.4462340000000 1.0
C      1  0.5377660000000  0.4509220000000  0.7312780000000 1.0
C      1  0.5377680000000  0.5490820000000  0.2687300000000 1.0
C      1  0.5377670000000  0.4509180000000  0.2687300000000 1.0
C      1  0.5377670000000  0.5490780000000  0.7312780000000 1.0
C      1  0.3273870000000  0.4430640000000  0.3331420000000 1.0
C      1  0.3273910000000  0.5569280000000  0.6668550000000 1.0
C      1  0.3273900000000  0.4430710000000  0.6668550000000 1.0
C      1  0.3273870000000  0.5569350000000  0.3331420000000 1.0
C      1  0.5919520000000  0.6919060000000  0.5483870000000 1.0
C      1  0.5919550000000  0.3080930000000  0.4516150000000 1.0
C      1  0.5919550000000  0.6919080000000  0.4516150000000 1.0
C      1  0.5919520000000  0.3080940000000  0.5483870000000 1.0
C      1  0.4727750000000  0.3400380000000  0.6967780000000 1.0
C      1  0.4727730000000  0.6599650000000  0.3032350000000 1.0
C      1  0.4727730000000  0.3400340000000  0.3032350000000 1.0
C      1  0.4727750000000  0.6599620000000  0.6967780000000 1.0
C      1  0.4280240000000  0.4430570000000  0.7135790000000 1.0
C      1  0.4280330000000  0.5569440000000  0.2864680000000 1.0
C      1  0.4280320000000  0.4430560000000  0.2864680000000 1.0
C      1  0.4280250000000  0.5569430000000  0.7135790000000 1.0
C      1  0.3619640000000  0.6808550000000  0.4563660000000 1.0
C      1  0.3620160000000  0.3191190000000  0.5436250000000 1.0
C      1  0.3620190000000  0.6808830000000  0.5436250000000 1.0
C      1  0.3619680000000  0.3191430000000  0.4563660000000 1.0
C      1  0.5597870000000  0.7089880000000  0.3571370000000 1.0
C      1  0.5597800000000  0.2910170000000  0.6428650000000 1.0
C      1  0.5597800000000  0.7089830000000  0.6428650000000 1.0
C      1  0.5597870000000  0.2910120000000  0.3571370000000 1.0
C      1  0.5821780000000  0.6374720000000  0.7211160000000 1.0
C      1  0.5821760000000  0.3625210000000  0.2788770000000 1.0
C      1  0.5821760000000  0.6374790000000  0.2788770000000 1.0
C      1  0.5821780000000  0.3625280000000  0.7211160000000 1.0
C      1  0.6731290000000  0.4519660000000  0.5901420000000 1.0
C      1  0.6731310000000  0.5480340000000  0.4098580000000 1.0
C      1  0.6731310000000  0.4519660000000  0.4098580000000 1.0
C      1  0.6731290000000  0.5480340000000  0.5901420000000 1.0
END
