TITL C-3036486-2224-1065 -3.89320528201675e-07 3375 -338.808323050129 0 0 60 (C2) n - 1
REM
REM in /home/bkarasulu/work/CARBON/AIRSS/Generating-Clusters/REBO/Higher-Symm/Only-C60
REM
REM
REM
REM
REM
REM ./C.cell (a2850807a9bf4ad07a5b6933b78d9264)
REM AIRSS Version 0.9.1 bugfix July 2018 build 013d7b7c2542+ Fri, 06 Jul 2018 19:26:36 +0100
REM compiler GCC version 9.2.1 20190827 (Red Hat 9.2.1-1)
REM options -cpp -mtune=generic -march=x86-64 -g -O0 -fpre-include=/usr/include/finclude/math-vector-fortran.h
REM seed 450534985 1902693412 1682406520 855979682 419976507 1674983153 1110031234 1161966296 69534789 142512916 1420504730 1435652411 1302037237 1951105433 -1593494591 1649143249 -1447791977 -297172761 1997247531 83364668 1928647117 -93057144 -2035406600 -132861866 1763779076 -553397524 -936497791 1399399082 726168883 2002287107 -90028051 -930786464 -1713598151
REM
CELL 1.54180   15.00000   15.00000   15.00000   90.00000   90.00000   90.00000
LATT -1
SFAC C  
C      1  0.3605590000000  0.4477240000000  0.4102240000000 1.0
C      1  0.6276090000000  0.3734900000000  0.4260930000000 1.0
C      1  0.5326210000000  0.6963900000000  0.3714660000000 1.0
C      1  0.6394410000000  0.4477270000000  0.5897760000000 1.0
C      1  0.3723910000000  0.3734880000000  0.5739060000000 1.0
C      1  0.4673770000000  0.6963880000000  0.6285340000000 1.0
C      1  0.3441870000000  0.3158280000000  0.4138030000000 1.0
C      1  0.7354980000000  0.4487060000000  0.4408100000000 1.0
C      1  0.4106440000000  0.7623660000000  0.4840290000000 1.0
C      1  0.6558140000000  0.3158310000000  0.5861960000000 1.0
C      1  0.2645020000000  0.4487030000000  0.5591900000000 1.0
C      1  0.5893530000000  0.7623670000000  0.5159710000000 1.0
C      1  0.4434620000000  0.5311890000000  0.5532600000000 1.0
C      1  0.4986520000000  0.3998520000000  0.5408900000000 1.0
C      1  0.5443220000000  0.5407130000000  0.5493200000000 1.0
C      1  0.5565400000000  0.5311860000000  0.4467440000000 1.0
C      1  0.5013480000000  0.3998520000000  0.4591090000000 1.0
C      1  0.4556800000000  0.5407140000000  0.4506840000000 1.0
C      1  0.5591800000000  0.7471120000000  0.5991580000000 1.0
C      1  0.2915640000000  0.3865270000000  0.6512600000000 1.0
C      1  0.6702510000000  0.3812460000000  0.6777330000000 1.0
C      1  0.4408170000000  0.7471110000000  0.4008420000000 1.0
C      1  0.7084370000000  0.3865300000000  0.3487390000000 1.0
C      1  0.3297490000000  0.3812440000000  0.3222670000000 1.0
C      1  0.3545240000000  0.4922200000000  0.3048740000000 1.0
C      1  0.6056980000000  0.3446660000000  0.3170280000000 1.0
C      1  0.5430680000000  0.6091310000000  0.3132530000000 1.0
C      1  0.6454740000000  0.4922220000000  0.6951260000000 1.0
C      1  0.3943030000000  0.3446630000000  0.6829710000000 1.0
C      1  0.4569320000000  0.6091280000000  0.6867460000000 1.0
C      1  0.6323180000000  0.4669770000000  0.3587340000000 1.0
C      1  0.4224700000000  0.6584680000000  0.3400500000000 1.0
C      1  0.4396720000000  0.3975230000000  0.3426930000000 1.0
C      1  0.3676820000000  0.4669750000000  0.6412640000000 1.0
C      1  0.5775290000000  0.6584710000000  0.6599510000000 1.0
C      1  0.5603280000000  0.3975240000000  0.6573060000000 1.0
C      1  0.5673250000000  0.5311230000000  0.3021450000000 1.0
C      1  0.3843090000000  0.5749170000000  0.2808550000000 1.0
C      1  0.5242610000000  0.4036970000000  0.2786990000000 1.0
C      1  0.4326780000000  0.5311200000000  0.6978540000000 1.0
C      1  0.6156890000000  0.5749180000000  0.7191470000000 1.0
C      1  0.4757390000000  0.4036960000000  0.7213000000000 1.0
C      1  0.6184540000000  0.3108190000000  0.5047510000000 1.0
C      1  0.6086420000000  0.7141390000000  0.4372670000000 1.0
C      1  0.3005110000000  0.4891820000000  0.4845380000000 1.0
C      1  0.3815470000000  0.3108170000000  0.4952480000000 1.0
C      1  0.3913560000000  0.7141380000000  0.5627330000000 1.0
C      1  0.6994890000000  0.4891850000000  0.5154620000000 1.0
C      1  0.6123100000000  0.5920210000000  0.5874350000000 1.0
C      1  0.3567370000000  0.5597640000000  0.5924800000000 1.0
C      1  0.4855860000000  0.3206510000000  0.6196210000000 1.0
C      1  0.3876910000000  0.5920190000000  0.4125670000000 1.0
C      1  0.6432620000000  0.5597640000000  0.4075210000000 1.0
C      1  0.5144150000000  0.3206510000000  0.3803780000000 1.0
C      1  0.3250060000000  0.6446360000000  0.5553650000000 1.0
C      1  0.4638840000000  0.2718210000000  0.5291710000000 1.0
C      1  0.6894580000000  0.5871090000000  0.5292950000000 1.0
C      1  0.6749920000000  0.6446380000000  0.4446350000000 1.0
C      1  0.5361180000000  0.2718220000000  0.4708280000000 1.0
C      1  0.3105420000000  0.5871060000000  0.4707060000000 1.0
END
