TITL C-3036486-2224-73 -2.13289850055714e-06 3375 -340.643266962854 0 0 60 (C6) n - 1
REM
REM in /home/bkarasulu/work/CARBON/AIRSS/Generating-Clusters/REBO/Higher-Symm/Only-C60
REM
REM
REM
REM
REM
REM ./C.cell (a2850807a9bf4ad07a5b6933b78d9264)
REM AIRSS Version 0.9.1 bugfix July 2018 build 013d7b7c2542+ Fri, 06 Jul 2018 19:26:36 +0100
REM compiler GCC version 9.2.1 20190827 (Red Hat 9.2.1-1)
REM options -cpp -mtune=generic -march=x86-64 -g -O0 -fpre-include=/usr/include/finclude/math-vector-fortran.h
REM seed -1735134814 1256048381 464757553 540866790 -36875581 -2054930901 -1283064616 -978739036 -970578463 759108974 324964069 1176658732 1160422498 778437104 249152868 -310991509 -1725953545 142838746 -676608272 600239606 604388406 -241127071 -556102931 1168351847 316347048 573026600 -1271040137 1887981474 1566903441 -929982216 77054169 -1379662881 -505735469
REM
CELL 1.54180   15.00000   15.00000   15.00000   90.00000   90.00000   90.00000
LATT -1
SFAC C  
C      1  0.5852830000000  0.3515190000000  0.6815980000000 1.0
C      1  0.6712300000000  0.4996140000000  0.6815990000000 1.0
C      1  0.5859490000000  0.6480930000000  0.6816000000000 1.0
C      1  0.4147220000000  0.6484780000000  0.6816030000000 1.0
C      1  0.3287750000000  0.5003830000000  0.6816030000000 1.0
C      1  0.4140550000000  0.3519040000000  0.6816000000000 1.0
C      1  0.4387870000000  0.6616340000000  0.3459520000000 1.0
C      1  0.3294140000000  0.5278090000000  0.3459520000000 1.0
C      1  0.3906250000000  0.3661760000000  0.3459480000000 1.0
C      1  0.5612090000000  0.3383690000000  0.3459460000000 1.0
C      1  0.6705820000000  0.4721940000000  0.3459470000000 1.0
C      1  0.6093710000000  0.6338270000000  0.3459480000000 1.0
C      1  0.6242470000000  0.6571000000000  0.4759930000000 1.0
C      1  0.4260710000000  0.6861520000000  0.4759970000000 1.0
C      1  0.3018230000000  0.5290510000000  0.4759970000000 1.0
C      1  0.3757520000000  0.3429000000000  0.4759930000000 1.0
C      1  0.5739280000000  0.3138480000000  0.4759910000000 1.0
C      1  0.6981770000000  0.4709490000000  0.4759920000000 1.0
C      1  0.5467080000000  0.4167760000000  0.7377650000000 1.0
C      1  0.5954280000000  0.4988350000000  0.7377650000000 1.0
C      1  0.5487230000000  0.5820560000000  0.7377660000000 1.0
C      1  0.4532980000000  0.5832190000000  0.7377680000000 1.0
C      1  0.4045780000000  0.5011600000000  0.7377680000000 1.0
C      1  0.4512840000000  0.4179390000000  0.7377660000000 1.0
C      1  0.5507650000000  0.2357040000000  0.3960480000000 1.0
C      1  0.7542710000000  0.4118180000000  0.3960480000000 1.0
C      1  0.7035030000000  0.6761150000000  0.3960500000000 1.0
C      1  0.4492320000000  0.7642980000000  0.3960540000000 1.0
C      1  0.2457270000000  0.5881850000000  0.3960560000000 1.0
C      1  0.2964940000000  0.3238870000000  0.3960510000000 1.0
C      1  0.5622240000000  0.5779090000000  0.4285600000000 1.0
C      1  0.4636410000000  0.5928440000000  0.4285620000000 1.0
C      1  0.4014160000000  0.5149350000000  0.4285620000000 1.0
C      1  0.4377740000000  0.4220930000000  0.4285600000000 1.0
C      1  0.5363570000000  0.4071580000000  0.4285590000000 1.0
C      1  0.5985820000000  0.4850660000000  0.4285590000000 1.0
C      1  0.3274160000000  0.6413220000000  0.3404560000000 1.0
C      1  0.2913210000000  0.4212030000000  0.3404530000000 1.0
C      1  0.4639020000000  0.2798840000000  0.3404480000000 1.0
C      1  0.6725800000000  0.3586810000000  0.3404490000000 1.0
C      1  0.7086750000000  0.5788010000000  0.3404490000000 1.0
C      1  0.5360930000000  0.7201200000000  0.3404520000000 1.0
C      1  0.4765550000000  0.3052110000000  0.6109180000000 1.0
C      1  0.6569690000000  0.3823000000000  0.6109170000000 1.0
C      1  0.6804150000000  0.5770880000000  0.6109190000000 1.0
C      1  0.5234480000000  0.6947870000000  0.6109210000000 1.0
C      1  0.3430330000000  0.6176980000000  0.6109230000000 1.0
C      1  0.3195880000000  0.4229100000000  0.6109220000000 1.0
C      1  0.3825600000000  0.2510230000000  0.4097650000000 1.0
C      1  0.6569000000000  0.2738060000000  0.4097630000000 1.0
C      1  0.7743400000000  0.5227850000000  0.4097640000000 1.0
C      1  0.6174380000000  0.7489790000000  0.4097670000000 1.0
C      1  0.3430970000000  0.7261960000000  0.4097720000000 1.0
C      1  0.2256580000000  0.4772170000000  0.4097710000000 1.0
C      1  0.3058530000000  0.5284960000000  0.5729440000000 1.0
C      1  0.3782480000000  0.3461100000000  0.5729400000000 1.0
C      1  0.5723960000000  0.3176130000000  0.5729380000000 1.0
C      1  0.6941490000000  0.4715030000000  0.5729380000000 1.0
C      1  0.6217540000000  0.6538890000000  0.5729400000000 1.0
C      1  0.4276060000000  0.6823860000000  0.5729440000000 1.0
END
