TITL C-3036484-3770-543 6.29727490236065e-06 3375 -347.284787153383 0 0 60 (Ci) n - 1
REM
REM in /home/bkarasulu/work/CARBON/AIRSS/Generating-Clusters/REBO/Higher-Symm/Only-C60
REM
REM
REM
REM
REM
REM ./C.cell (a2850807a9bf4ad07a5b6933b78d9264)
REM AIRSS Version 0.9.1 bugfix July 2018 build 013d7b7c2542+ Fri, 06 Jul 2018 19:26:36 +0100
REM compiler GCC version 9.2.1 20190827 (Red Hat 9.2.1-1)
REM options -cpp -mtune=generic -march=x86-64 -g -O0 -fpre-include=/usr/include/finclude/math-vector-fortran.h
REM seed -1222202633 -37386944 1608950762 1034761133 -1935029805 424407252 -1777714307 1311765920 629995035 1129588086 -1834022249 -1405438811 -1632395670 1299057114 -521177606 -500038264 1572281811 808016285 -811679172 -862724683 -1984334303 -1289932016 -1546828841 -843070990 -877612565 -265473 -1760181589 756319637 -993623418 -414485070 -1023173839 1736882042 1180588969
REM
CELL 1.54180   15.00000   15.00000   15.00000   90.00000   90.00000   90.00000
LATT -1
SFAC C  
C      1  0.5462020000000  0.4953580000000  0.7010320000000 1.0
C      1  0.4537980000000  0.5046420000000  0.2989680000000 1.0
C      1  0.4179590000000  0.7098150000000  0.4217820000000 1.0
C      1  0.5820410000000  0.2901850000000  0.5782170000000 1.0
C      1  0.6301230000000  0.6948160000000  0.5827470000000 1.0
C      1  0.3698770000000  0.3051840000000  0.4172530000000 1.0
C      1  0.3759260000000  0.3554520000000  0.5773280000000 1.0
C      1  0.6240740000000  0.6445480000000  0.4226720000000 1.0
C      1  0.5742440000000  0.6347340000000  0.3211470000000 1.0
C      1  0.4257570000000  0.3652660000000  0.6788530000000 1.0
C      1  0.5782110000000  0.5440750000000  0.4184160000000 1.0
C      1  0.4217890000000  0.4559250000000  0.5815840000000 1.0
C      1  0.3422380000000  0.6031230000000  0.6331710000000 1.0
C      1  0.6577620000000  0.3968760000000  0.3668290000000 1.0
C      1  0.6038360000000  0.4365250000000  0.2907910000000 1.0
C      1  0.3961640000000  0.5634750000000  0.7092090000000 1.0
C      1  0.3486340000000  0.6299980000000  0.3957020000000 1.0
C      1  0.6513660000000  0.3700020000000  0.6042980000000 1.0
C      1  0.5314800000000  0.3664550000000  0.3379110000000 1.0
C      1  0.4685200000000  0.6335450000000  0.6620890000000 1.0
C      1  0.3530890000000  0.6918070000000  0.6101830000000 1.0
C      1  0.6469110000000  0.3081930000000  0.3898170000000 1.0
C      1  0.4807690000000  0.6274440000000  0.3833750000000 1.0
C      1  0.5192310000000  0.3725560000000  0.6166250000000 1.0
C      1  0.4967780000000  0.2340690000000  0.5228720000000 1.0
C      1  0.5032220000000  0.7659310000000  0.4771280000000 1.0
C      1  0.3003630000000  0.5948550000000  0.4691010000000 1.0
C      1  0.6996370000000  0.4051450000000  0.5308990000000 1.0
C      1  0.4723780000000  0.5518950000000  0.4592270000000 1.0
C      1  0.5276220000000  0.4481050000000  0.5407730000000 1.0
C      1  0.3346720000000  0.4662660000000  0.3449020000000 1.0
C      1  0.6653280000000  0.5337340000000  0.6550990000000 1.0
C      1  0.3628710000000  0.3637640000000  0.3368650000000 1.0
C      1  0.6371290000000  0.6362360000000  0.6631350000000 1.0
C      1  0.4467270000000  0.4717010000000  0.6905460000000 1.0
C      1  0.5532730000000  0.5282990000000  0.3094540000000 1.0
C      1  0.3106860000000  0.4392320000000  0.4723440000000 1.0
C      1  0.6893140000000  0.5607680000000  0.5276560000000 1.0
C      1  0.4497710000000  0.6087260000000  0.5548000000000 1.0
C      1  0.5502290000000  0.3912740000000  0.4452000000000 1.0
C      1  0.6392490000000  0.4587320000000  0.4510670000000 1.0
C      1  0.3607510000000  0.5412680000000  0.5489330000000 1.0
C      1  0.5532930000000  0.5905880000000  0.6969590000000 1.0
C      1  0.4467070000000  0.4094120000000  0.3030410000000 1.0
C      1  0.3759010000000  0.5639820000000  0.3311000000000 1.0
C      1  0.6240990000000  0.4360180000000  0.6689000000000 1.0
C      1  0.4502400000000  0.2526490000000  0.4268240000000 1.0
C      1  0.5497600000000  0.7473510000000  0.5731760000000 1.0
C      1  0.4521450000000  0.2807570000000  0.6052670000000 1.0
C      1  0.5478550000000  0.7192430000000  0.3947330000000 1.0
C      1  0.6007780000000  0.5155450000000  0.5647440000000 1.0
C      1  0.3992220000000  0.4844550000000  0.4352560000000 1.0
C      1  0.2490880000000  0.5103560000000  0.4832260000000 1.0
C      1  0.7509120000000  0.4896440000000  0.5167740000000 1.0
C      1  0.5786730000000  0.2875320000000  0.4690570000000 1.0
C      1  0.4213270000000  0.7124680000000  0.5309430000000 1.0
C      1  0.3286610000000  0.3477390000000  0.4921540000000 1.0
C      1  0.6713390000000  0.6522610000000  0.5078460000000 1.0
C      1  0.5099320000000  0.2655670000000  0.3571610000000 1.0
C      1  0.4900680000000  0.7344330000000  0.6428390000000 1.0
END
