TITL C-3036483-1610-212 0.0261329004645455 3375 -347.980529203463 0 0 60 (C3i) n - 1
REM
REM in /home/bkarasulu/work/CARBON/AIRSS/Generating-Clusters/REBO/Higher-Symm/Only-C60
REM
REM
REM
REM
REM
REM ./C.cell (a2850807a9bf4ad07a5b6933b78d9264)
REM AIRSS Version 0.9.1 bugfix July 2018 build 013d7b7c2542+ Fri, 06 Jul 2018 19:26:36 +0100
REM compiler GCC version 9.2.1 20190827 (Red Hat 9.2.1-1)
REM options -cpp -mtune=generic -march=x86-64 -g -O0 -fpre-include=/usr/include/finclude/math-vector-fortran.h
REM seed -1402535964 -2038947094 -845198298 -1543167454 1373666951 449016696 -1420094217 635949683 -232706528 -1068096316 239733843 -1551403761 20706616 1349980427 -103972548 -757135867 341442045 1931134956 139955763 -394158366 -500579844 -1216908219 1667358664 2126625496 -1271240830 1793454497 -1814114851 -294464593 1522401070 1274119615 1220598779 -1609043210 1610408383
REM
CELL 1.54180   15.00000   15.00000   15.00000   90.00000   90.00000   90.00000
LATT -1
SFAC C  
C      1  0.2900620000000  0.6740740000000  0.4795990000000 1.0
C      1  0.7097220000000  0.6047140000000  0.6408970000000 1.0
C      1  0.2900440000000  0.4308160000000  0.6613680000000 1.0
C      1  0.7099650000000  0.3258410000000  0.5199980000000 1.0
C      1  0.2902770000000  0.3951580000000  0.3593120000000 1.0
C      1  0.7097090000000  0.5697170000000  0.3388830000000 1.0
C      1  0.7452020000000  0.5193120000000  0.6671250000000 1.0
C      1  0.2544010000000  0.3654020000000  0.6005840000000 1.0
C      1  0.7453190000000  0.3457940000000  0.4327970000000 1.0
C      1  0.2549720000000  0.4805300000000  0.3326130000000 1.0
C      1  0.7451090000000  0.6351960000000  0.3997670000000 1.0
C      1  0.2544730000000  0.6543240000000  0.5666900000000 1.0
C      1  0.3370330000000  0.5506090000000  0.4672280000000 1.0
C      1  0.6629760000000  0.5538380000000  0.5274390000000 1.0
C      1  0.3369770000000  0.5029050000000  0.5603050000000 1.0
C      1  0.6631050000000  0.4492120000000  0.5328330000000 1.0
C      1  0.3372270000000  0.4461000000000  0.4724640000000 1.0
C      1  0.6631570000000  0.4970730000000  0.4396630000000 1.0
C      1  0.4976780000000  0.6477970000000  0.6436920000000 1.0
C      1  0.5021900000000  0.4494680000000  0.6999170000000 1.0
C      1  0.4978470000000  0.3015740000000  0.5562960000000 1.0
C      1  0.5024310000000  0.3519970000000  0.3563890000000 1.0
C      1  0.4977470000000  0.5503950000000  0.3001080000000 1.0
C      1  0.5021880000000  0.6982840000000  0.4438150000000 1.0
C      1  0.4876310000000  0.4734980000000  0.5973070000000 1.0
C      1  0.5123540000000  0.4024280000000  0.5257870000000 1.0
C      1  0.4877610000000  0.4288640000000  0.4285060000000 1.0
C      1  0.5123810000000  0.5263620000000  0.4027270000000 1.0
C      1  0.4875740000000  0.5974460000000  0.4742580000000 1.0
C      1  0.5122900000000  0.5709980000000  0.5715790000000 1.0
C      1  0.5036810000000  0.3566810000000  0.7142880000000 1.0
C      1  0.4966330000000  0.2426390000000  0.4830620000000 1.0
C      1  0.5037570000000  0.3859210000000  0.2687820000000 1.0
C      1  0.4963790000000  0.6431440000000  0.2856950000000 1.0
C      1  0.5035660000000  0.7571100000000  0.5169010000000 1.0
C      1  0.4962820000000  0.6138720000000  0.7312300000000 1.0
C      1  0.7640520000000  0.4332120000000  0.6448230000000 1.0
C      1  0.2358420000000  0.3414620000000  0.5148910000000 1.0
C      1  0.7640760000000  0.4081270000000  0.3693500000000 1.0
C      1  0.2361260000000  0.5666350000000  0.3547750000000 1.0
C      1  0.7638180000000  0.6590420000000  0.4854520000000 1.0
C      1  0.2357700000000  0.5924170000000  0.6305180000000 1.0
C      1  0.6134870000000  0.5979310000000  0.6015050000000 1.0
C      1  0.3863020000000  0.4611910000000  0.6358000000000 1.0
C      1  0.6136430000000  0.3630950000000  0.5340460000000 1.0
C      1  0.3865250000000  0.4017390000000  0.3984450000000 1.0
C      1  0.6135760000000  0.5388830000000  0.3643760000000 1.0
C      1  0.3863230000000  0.6368770000000  0.4658890000000 1.0
C      1  0.7626350000000  0.3562790000000  0.5953960000000 1.0
C      1  0.2376110000000  0.3454670000000  0.4236110000000 1.0
C      1  0.7624250000000  0.4893490000000  0.3274770000000 1.0
C      1  0.2375590000000  0.6434630000000  0.4042290000000 1.0
C      1  0.7622900000000  0.6547220000000  0.5767550000000 1.0
C      1  0.2375430000000  0.5113460000000  0.6726250000000 1.0
C      1  0.5028900000000  0.2663090000000  0.3946930000000 1.0
C      1  0.4973830000000  0.4743060000000  0.2450040000000 1.0
C      1  0.5026270000000  0.7079420000000  0.3503180000000 1.0
C      1  0.4972970000000  0.7336250000000  0.6053010000000 1.0
C      1  0.5025510000000  0.5255900000000  0.7550440000000 1.0
C      1  0.4975480000000  0.2918960000000  0.6497750000000 1.0
END
