TITL C-3036481-494-1093 -1.44883536735385e-05 3375 -340.138249812439 0 0 60 (C1) n - 1
REM
REM in /home/bkarasulu/work/CARBON/AIRSS/Generating-Clusters/REBO/Higher-Symm/Only-C60
REM
REM
REM
REM
REM
REM ./C.cell (a2850807a9bf4ad07a5b6933b78d9264)
REM AIRSS Version 0.9.1 bugfix July 2018 build 013d7b7c2542+ Fri, 06 Jul 2018 19:26:36 +0100
REM compiler GCC version 9.2.1 20190827 (Red Hat 9.2.1-1)
REM options -cpp -mtune=generic -march=x86-64 -g -O0 -fpre-include=/usr/include/finclude/math-vector-fortran.h
REM seed -988650426 1018620227 310808624 619472377 1189357307 1459382642 235002863 -636926784 937192194 1551318898 -1323820313 1199330017 -425020353 -1211934405 1136083943 680339517 -458884410 -1402395522 570358051 -2144257237 -518816452 298403807 -1014117619 -1120032895 2092068890 1203247283 -922599902 1987876432 -720673939 -1009647353 619080058 2136923438 132863497
REM
CELL 1.54180   15.00000   15.00000   15.00000   90.00000   90.00000   90.00000
LATT -1
SFAC C  
C      1  0.2294030000000  0.4249580000000  0.3543790000000 1.0
C      1  0.3640670000000  0.2983490000000  0.5320460000000 1.0
C      1  0.2968100000000  0.3112350000000  0.6114410000000 1.0
C      1  0.1346040000000  0.4636170000000  0.6974530000000 1.0
C      1  0.1022430000000  0.5522490000000  0.6546980000000 1.0
C      1  0.1131530000000  0.6830910000000  0.4741430000000 1.0
C      1  0.1782760000000  0.5076350000000  0.3504830000000 1.0
C      1  0.6097590000000  0.4937800000000  0.6555710000000 1.0
C      1  0.7024230000000  0.6316000000000  0.6350820000000 1.0
C      1  0.8031340000000  0.6926600000000  0.5135480000000 1.0
C      1  0.8514530000000  0.6010440000000  0.3767210000000 1.0
C      1  0.8062950000000  0.4395350000000  0.3500280000000 1.0
C      1  0.6970390000000  0.3283040000000  0.4184820000000 1.0
C      1  0.6038610000000  0.3546890000000  0.5576480000000 1.0
C      1  0.7933020000000  0.5444460000000  0.3179300000000 1.0
C      1  0.7142550000000  0.3998810000000  0.3375760000000 1.0
C      1  0.6023020000000  0.3475630000000  0.4481510000000 1.0
C      1  0.5500040000000  0.4363110000000  0.5845130000000 1.0
C      1  0.6001820000000  0.5908600000000  0.6335000000000 1.0
C      1  0.7033820000000  0.6955390000000  0.5570010000000 1.0
C      1  0.7856660000000  0.6817890000000  0.4140330000000 1.0
C      1  0.3065380000000  0.3771810000000  0.4970600000000 1.0
C      1  0.2454170000000  0.3968160000000  0.5797830000000 1.0
C      1  0.1859630000000  0.4617190000000  0.6064070000000 1.0
C      1  0.1520640000000  0.5522200000000  0.5639280000000 1.0
C      1  0.1600540000000  0.6038600000000  0.4869020000000 1.0
C      1  0.2164010000000  0.5682430000000  0.4175010000000 1.0
C      1  0.2982400000000  0.4367360000000  0.4230390000000 1.0
C      1  0.7729630000000  0.7850900000000  0.5608370000000 1.0
C      1  0.8724620000000  0.7018640000000  0.3437730000000 1.0
C      1  0.8525470000000  0.4693700000000  0.2568270000000 1.0
C      1  0.7097530000000  0.2892420000000  0.3127580000000 1.0
C      1  0.5340690000000  0.2839450000000  0.5068120000000 1.0
C      1  0.5152210000000  0.4394760000000  0.6869220000000 1.0
C      1  0.6315430000000  0.6578430000000  0.7125340000000 1.0
C      1  0.5690080000000  0.6002220000000  0.5343410000000 1.0
C      1  0.6400560000000  0.6548540000000  0.4856680000000 1.0
C      1  0.6901900000000  0.6385870000000  0.4049060000000 1.0
C      1  0.6941100000000  0.5608060000000  0.3502600000000 1.0
C      1  0.6487100000000  0.4779510000000  0.3590410000000 1.0
C      1  0.5830150000000  0.4476460000000  0.4221190000000 1.0
C      1  0.5422900000000  0.4959510000000  0.5013050000000 1.0
C      1  0.0453886000000  0.6133880000000  0.6878340000000 1.0
C      1  0.0690742000000  0.7575530000000  0.4621520000000 1.0
C      1  0.1054810000000  0.5233690000000  0.2997460000000 1.0
C      1  0.2126960000000  0.3494300000000  0.3081370000000 1.0
C      1  0.4483910000000  0.2664510000000  0.5148150000000 1.0
C      1  0.2892310000000  0.2650510000000  0.6880220000000 1.0
C      1  0.1246640000000  0.4153980000000  0.7712250000000 1.0
C      1  0.8407590000000  0.6055860000000  0.5478430000000 1.0
C      1  0.8728280000000  0.5449120000000  0.4576470000000 1.0
C      1  0.8280210000000  0.4398570000000  0.4540290000000 1.0
C      1  0.7567860000000  0.3701800000000  0.4932820000000 1.0
C      1  0.7037510000000  0.3871170000000  0.5720990000000 1.0
C      1  0.7057990000000  0.4647230000000  0.6293570000000 1.0
C      1  0.7684370000000  0.5502190000000  0.6165380000000 1.0
C      1  0.4652620000000  0.5741700000000  0.5003790000000 1.0
C      1  0.3037860000000  0.5329030000000  0.4437480000000 1.0
C      1  0.3810010000000  0.5702180000000  0.4788360000000 1.0
C      1  0.8429220000000  0.4926260000000  0.5532940000000 1.0
END
