TITL C-3036480-97-178 2.36879795485717e-07 3375 -341.473774251559 0 0 60 (C5) n - 1
REM
REM in /home/bkarasulu/work/CARBON/AIRSS/Generating-Clusters/REBO/Higher-Symm/Only-C60
REM
REM
REM
REM
REM
REM ./C.cell (a2850807a9bf4ad07a5b6933b78d9264)
REM AIRSS Version 0.9.1 bugfix July 2018 build 013d7b7c2542+ Fri, 06 Jul 2018 19:26:36 +0100
REM compiler GCC version 9.2.1 20190827 (Red Hat 9.2.1-1)
REM options -cpp -mtune=generic -march=x86-64 -g -O0 -fpre-include=/usr/include/finclude/math-vector-fortran.h
REM seed -1165247637 -1354489294 1995963091 2020738818 -1805915283 1710882418 -725424415 -1746296793 1076939085 -84426358 -1809825778 -55174283 1824187918 707130022 2051953888 570827622 1946131198 1288182325 2019005663 1337514887 -2126589595 -1596755059 -1943486779 -454457779 1306850957 -119734488 -395039281 732866510 -219871340 680864147 -1889980652 -1394997261 -485523322
REM
CELL 1.54180   15.00000   15.00000   15.00000   90.00000   90.00000   90.00000
LATT -1
SFAC C  
C      1  0.7150300000000  0.6212320000000  0.3859920000000 1.0
C      1  0.4511530000000  0.7419500000000  0.3859510000000 1.0
C      1  0.2548010000000  0.5282920000000  0.3859400000000 1.0
C      1  0.3973250000000  0.2755260000000  0.3859730000000 1.0
C      1  0.6817630000000  0.3329660000000  0.3860050000000 1.0
C      1  0.2524270000000  0.5611200000000  0.4949530000000 1.0
C      1  0.3653680000000  0.2834300000000  0.4949840000000 1.0
C      1  0.6643670000000  0.3050330000000  0.4950210000000 1.0
C      1  0.7362170000000  0.5960730000000  0.4950120000000 1.0
C      1  0.4816250000000  0.7543430000000  0.4949700000000 1.0
C      1  0.6665340000000  0.3740840000000  0.6179690000000 1.0
C      1  0.6712120000000  0.6194930000000  0.6179550000000 1.0
C      1  0.4392600000000  0.6997770000000  0.6179210000000 1.0
C      1  0.2912280000000  0.5039860000000  0.6179140000000 1.0
C      1  0.4316910000000  0.3026970000000  0.6179440000000 1.0
C      1  0.6921600000000  0.6899520000000  0.5450940000000 1.0
C      1  0.3787250000000  0.7414610000000  0.5450520000000 1.0
C      1  0.2328790000000  0.4592830000000  0.5450510000000 1.0
C      1  0.4561780000000  0.2333780000000  0.5450930000000 1.0
C      1  0.7400290000000  0.3759390000000  0.5451200000000 1.0
C      1  0.6086660000000  0.3544720000000  0.3326660000000 1.0
C      1  0.6719900000000  0.5583500000000  0.3326610000000 1.0
C      1  0.4976580000000  0.6815760000000  0.3326310000000 1.0
C      1  0.3265930000000  0.5538560000000  0.3326180000000 1.0
C      1  0.3951990000000  0.3516950000000  0.3326390000000 1.0
C      1  0.5311030000000  0.7082330000000  0.6097340000000 1.0
C      1  0.3115670000000  0.5939460000000  0.6097140000000 1.0
C      1  0.3524200000000  0.3498380000000  0.6097340000000 1.0
C      1  0.5972050000000  0.3132580000000  0.6097670000000 1.0
C      1  0.7076370000000  0.5347590000000  0.6097670000000 1.0
C      1  0.4816890000000  0.6429450000000  0.4693610000000 1.0
C      1  0.3583940000000  0.5267530000000  0.4693530000000 1.0
C      1  0.4307990000000  0.3735860000000  0.4693720000000 1.0
C      1  0.5988430000000  0.3951170000000  0.4693910000000 1.0
C      1  0.6302950000000  0.5615890000000  0.4693850000000 1.0
C      1  0.3629650000000  0.4454110000000  0.6372640000000 1.0
C      1  0.5095670000000  0.3528250000000  0.6372880000000 1.0
C      1  0.6429240000000  0.4636420000000  0.6372980000000 1.0
C      1  0.5787410000000  0.6247160000000  0.6372800000000 1.0
C      1  0.4057160000000  0.6134480000000  0.6372590000000 1.0
C      1  0.5676640000000  0.2533410000000  0.5241350000000 1.0
C      1  0.7554950000000  0.4881340000000  0.5241440000000 1.0
C      1  0.5902370000000  0.7393280000000  0.5241080000000 1.0
C      1  0.3002700000000  0.6597810000000  0.5240760000000 1.0
C      1  0.2863190000000  0.3594240000000  0.5240930000000 1.0
C      1  0.4993110000000  0.5860000000000  0.3783620000000 1.0
C      1  0.4180000000000  0.5259000000000  0.3783550000000 1.0
C      1  0.4500310000000  0.4299970000000  0.3783650000000 1.0
C      1  0.5511390000000  0.4308250000000  0.3783780000000 1.0
C      1  0.5815960000000  0.5272400000000  0.3783750000000 1.0
C      1  0.5871880000000  0.5205460000000  0.5551300000000 1.0
C      1  0.5074010000000  0.5892790000000  0.5551160000000 1.0
C      1  0.4173760000000  0.5346360000000  0.5551080000000 1.0
C      1  0.4415250000000  0.4321320000000  0.5551180000000 1.0
C      1  0.5464750000000  0.4234240000000  0.5551310000000 1.0
C      1  0.3775480000000  0.6868220000000  0.4493550000000 1.0
C      1  0.2844830000000  0.4412650000000  0.4493580000000 1.0
C      1  0.4892640000000  0.2768730000000  0.4493940000000 1.0
C      1  0.7088900000000  0.4208310000000  0.4494130000000 1.0
C      1  0.6398460000000  0.6741940000000  0.4493890000000 1.0
END
