TITL C-3036481-494-52 -4.69743269466111e-06 3375 -340.746540867114 0 0 60 (C1) n - 1
REM
REM in /home/bkarasulu/work/CARBON/AIRSS/Generating-Clusters/REBO/Higher-Symm/Only-C60
REM
REM
REM
REM
REM
REM ./C.cell (a2850807a9bf4ad07a5b6933b78d9264)
REM AIRSS Version 0.9.1 bugfix July 2018 build 013d7b7c2542+ Fri, 06 Jul 2018 19:26:36 +0100
REM compiler GCC version 9.2.1 20190827 (Red Hat 9.2.1-1)
REM options -cpp -mtune=generic -march=x86-64 -g -O0 -fpre-include=/usr/include/finclude/math-vector-fortran.h
REM seed -924580660 1693404217 -1605282475 981969473 1840358404 -1030080551 -475299678 800016018 121245670 -1290819463 -1349446629 -2003688260 797223576 1004716063 -1412045119 53285737 -1760740674 -1787054602 -617929170 1863091983 1746664524 1502772265 -929827539 -500731511 1233257285 477030048 1307153724 -1228988691 799054918 1241159565 1979790544 2084117551 -1196500013
REM
CELL 1.54180   15.00000   15.00000   15.00000   90.00000   90.00000   90.00000
LATT -1
SFAC C  
C      1  0.5769250000000  0.4601700000000  0.5318440000000 1.0
C      1  0.4348730000000  0.4676050000000  0.5240160000000 1.0
C      1  0.5072570000000  0.6005050000000  0.5376710000000 1.0
C      1  0.3957820000000  0.5218160000000  0.6012800000000 1.0
C      1  0.5786370000000  0.5876590000000  0.6177890000000 1.0
C      1  0.5386490000000  0.3978870000000  0.6048110000000 1.0
C      1  0.4490670000000  0.6621770000000  0.3857620000000 1.0
C      1  0.6711740000000  0.4470530000000  0.3813930000000 1.0
C      1  0.3804640000000  0.3757100000000  0.3844410000000 1.0
C      1  0.6758690000000  0.5488480000000  0.6277730000000 1.0
C      1  0.4551660000000  0.3263680000000  0.6186480000000 1.0
C      1  0.3732910000000  0.6269160000000  0.6162990000000 1.0
C      1  0.6196070000000  0.7080710000000  0.5204110000000 1.0
C      1  0.6083400000000  0.2945260000000  0.5135720000000 1.0
C      1  0.2614970000000  0.5050880000000  0.5218560000000 1.0
C      1  0.3813620000000  0.5480930000000  0.2681270000000 1.0
C      1  0.5950670000000  0.5731770000000  0.2728190000000 1.0
C      1  0.5202400000000  0.3671630000000  0.2716260000000 1.0
C      1  0.3202850000000  0.3369050000000  0.4652880000000 1.0
C      1  0.4424500000000  0.7365650000000  0.4639320000000 1.0
C      1  0.7355990000000  0.4137800000000  0.4617760000000 1.0
C      1  0.5903800000000  0.6897470000000  0.6147590000000 1.0
C      1  0.6110100000000  0.3212130000000  0.6150580000000 1.0
C      1  0.2987120000000  0.4900850000000  0.6147370000000 1.0
C      1  0.4174330000000  0.6067670000000  0.4795050000000 1.0
C      1  0.6532450000000  0.5169980000000  0.4700130000000 1.0
C      1  0.4472520000000  0.3762970000000  0.4716040000000 1.0
C      1  0.6514270000000  0.6174030000000  0.3827380000000 1.0
C      1  0.5321500000000  0.2906830000000  0.3507800000000 1.0
C      1  0.3109460000000  0.5698930000000  0.3766860000000 1.0
C      1  0.3021570000000  0.3912640000000  0.6337390000000 1.0
C      1  0.5005880000000  0.7310010000000  0.6315890000000 1.0
C      1  0.6945010000000  0.3783900000000  0.6312900000000 1.0
C      1  0.3576700000000  0.2592980000000  0.5061920000000 1.0
C      1  0.3564570000000  0.7428380000000  0.5050430000000 1.0
C      1  0.7667020000000  0.4996850000000  0.5031480000000 1.0
C      1  0.5445240000000  0.6357900000000  0.3526550000000 1.0
C      1  0.5891250000000  0.3885060000000  0.3591610000000 1.0
C      1  0.3651230000000  0.4737830000000  0.3507580000000 1.0
C      1  0.5182300000000  0.2956210000000  0.4787500000000 1.0
C      1  0.3053520000000  0.5849670000000  0.4781930000000 1.0
C      1  0.6704550000000  0.6297910000000  0.4830650000000 1.0
C      1  0.3205180000000  0.6654030000000  0.5473880000000 1.0
C      1  0.7319050000000  0.5767690000000  0.5573690000000 1.0
C      1  0.4443950000000  0.2660530000000  0.5455170000000 1.0
C      1  0.4455970000000  0.4953040000000  0.4144040000000 1.0
C      1  0.5330680000000  0.5651030000000  0.4333010000000 1.0
C      1  0.5459420000000  0.4531870000000  0.4263550000000 1.0
C      1  0.4433870000000  0.6671710000000  0.6724880000000 1.0
C      1  0.6707940000000  0.4605510000000  0.6724510000000 1.0
C      1  0.3852170000000  0.3692780000000  0.6739660000000 1.0
C      1  0.6743330000000  0.5341990000000  0.3244470000000 1.0
C      1  0.4317590000000  0.3203640000000  0.3164590000000 1.0
C      1  0.3739870000000  0.6346580000000  0.3214550000000 1.0
C      1  0.5171830000000  0.7469380000000  0.5209240000000 1.0
C      1  0.7006620000000  0.3508220000000  0.5231150000000 1.0
C      1  0.2765200000000  0.3973150000000  0.5234510000000 1.0
C      1  0.4682730000000  0.4429410000000  0.6805760000000 1.0
C      1  0.4658040000000  0.5566760000000  0.6810810000000 1.0
C      1  0.5656170000000  0.5011670000000  0.6846540000000 1.0
END
