TITL C-3036484-3770-1066 0.394758618044451 3375 -331.75317576274 0 0 60 (C5) n - 1
REM
REM in /home/bkarasulu/work/CARBON/AIRSS/Generating-Clusters/REBO/Higher-Symm/Only-C60
REM
REM
REM
REM
REM
REM ./C.cell (a2850807a9bf4ad07a5b6933b78d9264)
REM AIRSS Version 0.9.1 bugfix July 2018 build 013d7b7c2542+ Fri, 06 Jul 2018 19:26:36 +0100
REM compiler GCC version 9.2.1 20190827 (Red Hat 9.2.1-1)
REM options -cpp -mtune=generic -march=x86-64 -g -O0 -fpre-include=/usr/include/finclude/math-vector-fortran.h
REM seed -252201721 -2058856169 -873033290 -526697020 -1076835899 -595606069 -440282512 -972513776 -583680531 519293977 -1994417449 919290147 187545773 -2133848906 1631315503 -982759946 -1993349702 -1748861212 2127497870 2079572063 1231361387 -709288866 -856548717 1296789229 -856179364 1266598332 -177249998 1258634114 1160261756 -1082133353 -1262227988 -1756118787 1358519928
REM
CELL 1.54180   15.00000   15.00000   15.00000   90.00000   90.00000   90.00000
LATT -1
SFAC C  
C      1  0.2792270000000  0.4726560000000  0.5983920000000 1.0
C      1  0.4578010000000  0.2815630000000  0.5983970000000 1.0
C      1  0.6946660000000  0.3923450000000  0.5983890000000 1.0
C      1  0.6625260000000  0.6519680000000  0.5984070000000 1.0
C      1  0.4057950000000  0.7015430000000  0.5983860000000 1.0
C      1  0.5074600000000  0.6694330000000  0.3544850000000 1.0
C      1  0.3412560000000  0.5593750000000  0.3545270000000 1.0
C      1  0.3944160000000  0.3673720000000  0.3544070000000 1.0
C      1  0.5935260000000  0.3586160000000  0.3543960000000 1.0
C      1  0.6633420000000  0.5452650000000  0.3544910000000 1.0
C      1  0.4667330000000  0.3339080000000  0.4947860000000 1.0
C      1  0.6477090000000  0.4172140000000  0.4946970000000 1.0
C      1  0.6242060000000  0.6154840000000  0.4948830000000 1.0
C      1  0.4287360000000  0.6535580000000  0.4947010000000 1.0
C      1  0.3318220000000  0.4799580000000  0.4946770000000 1.0
C      1  0.4226480000000  0.6266540000000  0.6701770000000 1.0
C      1  0.3556880000000  0.4655550000000  0.6701840000000 1.0
C      1  0.4881540000000  0.3520670000000  0.6702400000000 1.0
C      1  0.6369950000000  0.4430030000000  0.6701900000000 1.0
C      1  0.5965230000000  0.6126800000000  0.6701770000000 1.0
C      1  0.5592320000000  0.5517040000000  0.4374140000000 1.0
C      1  0.4691790000000  0.5723090000000  0.4373400000000 1.0
C      1  0.4216610000000  0.4928760000000  0.4374110000000 1.0
C      1  0.4824160000000  0.4233470000000  0.4374760000000 1.0
C      1  0.5675790000000  0.4596450000000  0.4374120000000 1.0
C      1  0.2412860000000  0.5538800000000  0.5581430000000 1.0
C      1  0.3688260000000  0.2705040000000  0.5582410000000 1.0
C      1  0.6775820000000  0.3042800000000  0.5581840000000 1.0
C      1  0.7405450000000  0.6086660000000  0.5579700000000 1.0
C      1  0.4712140000000  0.7626760000000  0.5579910000000 1.0
C      1  0.3440690000000  0.6479890000000  0.4190960000000 1.0
C      1  0.3111240000000  0.3973770000000  0.4191810000000 1.0
C      1  0.5394210000000  0.2885200000000  0.4188700000000 1.0
C      1  0.7132530000000  0.4721360000000  0.4191150000000 1.0
C      1  0.5926060000000  0.6938720000000  0.4192760000000 1.0
C      1  0.4250670000000  0.7060000000000  0.3723630000000 1.0
C      1  0.2809320000000  0.4923170000000  0.3721950000000 1.0
C      1  0.4396080000000  0.2894490000000  0.3724220000000 1.0
C      1  0.6817040000000  0.3774930000000  0.3721500000000 1.0
C      1  0.6727400000000  0.6348770000000  0.3722790000000 1.0
C      1  0.5823070000000  0.5184670000000  0.3105880000000 1.0
C      1  0.5077980000000  0.5840280000000  0.3108120000000 1.0
C      1  0.4225130000000  0.5334840000000  0.3106140000000 1.0
C      1  0.4442410000000  0.4367080000000  0.3106300000000 1.0
C      1  0.5430030000000  0.4274590000000  0.3106130000000 1.0
C      1  0.5928600000000  0.5224180000000  0.7342410000000 1.0
C      1  0.5073620000000  0.5952320000000  0.7342350000000 1.0
C      1  0.4116910000000  0.5364310000000  0.7342310000000 1.0
C      1  0.4380630000000  0.4272770000000  0.7342550000000 1.0
C      1  0.5500310000000  0.4186160000000  0.7342720000000 1.0
C      1  0.4892720000000  0.4111650000000  0.5766390000000 1.0
C      1  0.5810630000000  0.4623380000000  0.5766940000000 1.0
C      1  0.5608470000000  0.5654190000000  0.5766990000000 1.0
C      1  0.4565380000000  0.5780720000000  0.5766620000000 1.0
C      1  0.4123400000000  0.4827590000000  0.5767090000000 1.0
C      1  0.7228580000000  0.5622910000000  0.4736780000000 1.0
C      1  0.5094190000000  0.7309730000000  0.4735300000000 1.0
C      1  0.2833910000000  0.5801040000000  0.4737670000000 1.0
C      1  0.3569840000000  0.3187030000000  0.4738370000000 1.0
C      1  0.6281460000000  0.3079180000000  0.4737790000000 1.0
END
