TITL C-3036482-790-1083 -6.14571124544391e-06 3375 -354.091570686344 0 0 60 (Th) n - 1
REM
REM in /home/bkarasulu/work/CARBON/AIRSS/Generating-Clusters/REBO/Higher-Symm/Only-C60
REM
REM
REM
REM
REM
REM ./C.cell (a2850807a9bf4ad07a5b6933b78d9264)
REM AIRSS Version 0.9.1 bugfix July 2018 build 013d7b7c2542+ Fri, 06 Jul 2018 19:26:36 +0100
REM compiler GCC version 9.2.1 20190827 (Red Hat 9.2.1-1)
REM options -cpp -mtune=generic -march=x86-64 -g -O0 -fpre-include=/usr/include/finclude/math-vector-fortran.h
REM seed 980765411 1778798022 -2071127828 2138660446 896777865 -788660747 -1966670369 1704558996 -81456730 -2096125822 -479845347 -1765733414 -2008387824 -197844986 1871812404 1033599688 -1219811284 -1604745208 -390859466 1928561030 563249654 -1222642632 -1831319790 -963663915 -2011007926 -8843468 933610998 1449855889 1612873553 -117071393 -875275534 197621946 1869301016
REM
CELL 1.54180   15.00000   15.00000   15.00000   90.00000   90.00000   90.00000
LATT -1
SFAC C  
C      1  0.6704600000000  0.5835250000000  0.3907860000000 1.0
C      1  0.3907850000000  0.6704620000000  0.5835180000000 1.0
C      1  0.5835270000000  0.3907980000000  0.6704660000000 1.0
C      1  0.6704610000000  0.4164820000000  0.6092160000000 1.0
C      1  0.3295420000000  0.4164650000000  0.3907910000000 1.0
C      1  0.3295370000000  0.5835280000000  0.6092060000000 1.0
C      1  0.3907930000000  0.3295340000000  0.4164800000000 1.0
C      1  0.6092140000000  0.3295460000000  0.5835350000000 1.0
C      1  0.6092090000000  0.6704590000000  0.4164670000000 1.0
C      1  0.5835260000000  0.6092050000000  0.3295350000000 1.0
C      1  0.4164700000000  0.6092170000000  0.6704540000000 1.0
C      1  0.4164770000000  0.3907790000000  0.3295440000000 1.0
C      1  0.3295390000000  0.5835180000000  0.3907830000000 1.0
C      1  0.6092070000000  0.6704660000000  0.5835200000000 1.0
C      1  0.4164740000000  0.3907950000000  0.6704640000000 1.0
C      1  0.3295410000000  0.4164750000000  0.6092130000000 1.0
C      1  0.6704630000000  0.4164720000000  0.3907940000000 1.0
C      1  0.6704580000000  0.5835350000000  0.6092090000000 1.0
C      1  0.6092150000000  0.3295380000000  0.4164820000000 1.0
C      1  0.3907920000000  0.3295410000000  0.5835330000000 1.0
C      1  0.3907860000000  0.6704540000000  0.4164650000000 1.0
C      1  0.4164730000000  0.6092020000000  0.3295340000000 1.0
C      1  0.5835230000000  0.6092210000000  0.6704560000000 1.0
C      1  0.5835300000000  0.3907830000000  0.3295460000000 1.0
C      1  0.5426250000000  0.3350190000000  0.7489880000000 1.0
C      1  0.7489810000000  0.5426220000000  0.3350070000000 1.0
C      1  0.3350010000000  0.7489790000000  0.5426110000000 1.0
C      1  0.5426230000000  0.6649830000000  0.2510120000000 1.0
C      1  0.4573700000000  0.6650040000000  0.7489730000000 1.0
C      1  0.4573810000000  0.3349940000000  0.2510270000000 1.0
C      1  0.7489800000000  0.4573880000000  0.6649980000000 1.0
C      1  0.2510220000000  0.4573630000000  0.3350060000000 1.0
C      1  0.2510170000000  0.5426270000000  0.6649890000000 1.0
C      1  0.3350120000000  0.2510140000000  0.4573860000000 1.0
C      1  0.6649980000000  0.2510250000000  0.5426370000000 1.0
C      1  0.6649890000000  0.7489820000000  0.4573660000000 1.0
C      1  0.4573770000000  0.3350170000000  0.7489880000000 1.0
C      1  0.2510200000000  0.5426120000000  0.3350020000000 1.0
C      1  0.6649880000000  0.7489860000000  0.5426140000000 1.0
C      1  0.4573750000000  0.6649810000000  0.2510110000000 1.0
C      1  0.5426190000000  0.6650060000000  0.7489730000000 1.0
C      1  0.5426300000000  0.3349960000000  0.2510280000000 1.0
C      1  0.2510190000000  0.4573780000000  0.6649930000000 1.0
C      1  0.7489830000000  0.4573730000000  0.3350110000000 1.0
C      1  0.7489780000000  0.5426370000000  0.6649940000000 1.0
C      1  0.6649990000000  0.2510210000000  0.4573890000000 1.0
C      1  0.3350110000000  0.2510180000000  0.5426340000000 1.0
C      1  0.3350020000000  0.7489750000000  0.4573630000000 1.0
C      1  0.3357260000000  0.4999950000000  0.4560250000000 1.0
C      1  0.4560300000000  0.3357250000000  0.5000070000000 1.0
C      1  0.5000020000000  0.4560190000000  0.3357280000000 1.0
C      1  0.3357250000000  0.4999990000000  0.5439720000000 1.0
C      1  0.6642750000000  0.5000010000000  0.4560280000000 1.0
C      1  0.6642740000000  0.5000050000000  0.5439750000000 1.0
C      1  0.4560230000000  0.6642740000000  0.4999920000000 1.0
C      1  0.5439700000000  0.6642750000000  0.4999930000000 1.0
C      1  0.5439770000000  0.3357260000000  0.5000080000000 1.0
C      1  0.4999980000000  0.5439810000000  0.6642720000000 1.0
C      1  0.5000010000000  0.5439660000000  0.3357230000000 1.0
C      1  0.4999990000000  0.4560340000000  0.6642760000000 1.0
END
