TITL C-3036485-3770-408 -0.00155164662602532 3375 -347.061778010213 0 0 60 (C1) n - 1
REM
REM in /home/bkarasulu/work/CARBON/AIRSS/Generating-Clusters/REBO/Higher-Symm/Only-C60
REM
REM
REM
REM
REM
REM ./C.cell (a2850807a9bf4ad07a5b6933b78d9264)
REM AIRSS Version 0.9.1 bugfix July 2018 build 013d7b7c2542+ Fri, 06 Jul 2018 19:26:36 +0100
REM compiler GCC version 9.2.1 20190827 (Red Hat 9.2.1-1)
REM options -cpp -mtune=generic -march=x86-64 -g -O0 -fpre-include=/usr/include/finclude/math-vector-fortran.h
REM seed 24835206 -2110089459 1156432078 -1642747029 -1027040046 258245088 1412681606 -1890399946 1480012528 1813321212 57172715 599706930 1193328130 423827567 947634442 -2073352291 1833361235 2142679044 -1275125208 2022729159 1538356695 -1744726428 -623922175 1808997328 -1739546808 1915348889 -870013198 322448903 -1268599790 -1349389770 338862748 -230360982 2144921689
REM
CELL 1.54180   15.00000   15.00000   15.00000   90.00000   90.00000   90.00000
LATT -1
SFAC C  
C      1  0.5806350000000  0.5917000000000  0.4457680000000 1.0
C      1  0.4940650000000  0.5410670000000  0.5639580000000 1.0
C      1  0.6483600000000  0.5669910000000  0.6298550000000 1.0
C      1  0.4567510000000  0.2587200000000  0.6682850000000 1.0
C      1  0.3279680000000  0.6154490000000  0.3539010000000 1.0
C      1  0.6395990000000  0.2476490000000  0.5980630000000 1.0
C      1  0.2992300000000  0.2546910000000  0.3930470000000 1.0
C      1  0.5823660000000  0.4832310000000  0.5912790000000 1.0
C      1  0.6934810000000  0.3092610000000  0.5806670000000 1.0
C      1  0.4779890000000  0.6591400000000  0.3077950000000 1.0
C      1  0.6761350000000  0.5415850000000  0.4100670000000 1.0
C      1  0.2511980000000  0.5783600000000  0.4894610000000 1.0
C      1  0.3315480000000  0.3949630000000  0.4668230000000 1.0
C      1  0.5445780000000  0.4340960000000  0.6774100000000 1.0
C      1  0.4049440000000  0.2610580000000  0.5158240000000 1.0
C      1  0.3070040000000  0.5803000000000  0.6435140000000 1.0
C      1  0.3220890000000  0.6397280000000  0.5494440000000 1.0
C      1  0.6371810000000  0.3525080000000  0.4678430000000 1.0
C      1  0.4141130000000  0.4896050000000  0.6017710000000 1.0
C      1  0.3412760000000  0.4504550000000  0.5459360000000 1.0
C      1  0.4941940000000  0.7307040000000  0.3826120000000 1.0
C      1  0.6759510000000  0.4512900000000  0.3531640000000 1.0
C      1  0.3828380000000  0.5334780000000  0.6862910000000 1.0
C      1  0.3958040000000  0.5045580000000  0.4275970000000 1.0
C      1  0.4679550000000  0.5847910000000  0.4628830000000 1.0
C      1  0.3205480000000  0.4462460000000  0.3739350000000 1.0
C      1  0.4437740000000  0.5295140000000  0.7582590000000 1.0
C      1  0.5836020000000  0.4485600000000  0.2978490000000 1.0
C      1  0.4949000000000  0.4713140000000  0.3998710000000 1.0
C      1  0.4905840000000  0.6542320000000  0.5739890000000 1.0
C      1  0.5942150000000  0.5800160000000  0.7191880000000 1.0
C      1  0.5639630000000  0.4926830000000  0.4619810000000 1.0
C      1  0.7132410000000  0.4823170000000  0.6112240000000 1.0
C      1  0.7198160000000  0.6135490000000  0.4864440000000 1.0
C      1  0.5118440000000  0.3511260000000  0.6665760000000 1.0
C      1  0.5417020000000  0.2687420000000  0.5976050000000 1.0
C      1  0.5827710000000  0.6896410000000  0.5335860000000 1.0
C      1  0.4980000000000  0.5474120000000  0.3128540000000 1.0
C      1  0.2825160000000  0.5431580000000  0.4036360000000 1.0
C      1  0.4915080000000  0.6908770000000  0.6717620000000 1.0
C      1  0.6483970000000  0.6590240000000  0.3536600000000 1.0
C      1  0.5347870000000  0.5068150000000  0.7393860000000 1.0
C      1  0.3838140000000  0.2390880000000  0.6076420000000 1.0
C      1  0.5794360000000  0.7019480000000  0.4245160000000 1.0
C      1  0.4132790000000  0.6260350000000  0.3783700000000 1.0
C      1  0.4984160000000  0.2801910000000  0.5047410000000 1.0
C      1  0.3741320000000  0.4294400000000  0.2816150000000 1.0
C      1  0.6080630000000  0.5588670000000  0.3195330000000 1.0
C      1  0.6582230000000  0.4064650000000  0.5563490000000 1.0
C      1  0.6615120000000  0.6377770000000  0.5585630000000 1.0
C      1  0.4711020000000  0.4430170000000  0.2738570000000 1.0
C      1  0.5556700000000  0.6651320000000  0.7311650000000 1.0
C      1  0.7314450000000  0.6613610000000  0.3971180000000 1.0
C      1  0.5172220000000  0.3755110000000  0.3552560000000 1.0
C      1  0.4037160000000  0.6845370000000  0.5236940000000 1.0
C      1  0.6959270000000  0.3752020000000  0.3979610000000 1.0
C      1  0.4232840000000  0.7393710000000  0.4475930000000 1.0
C      1  0.3408320000000  0.3019410000000  0.4583340000000 1.0
C      1  0.2707260000000  0.5187560000000  0.5676360000000 1.0
C      1  0.5497780000000  0.3247550000000  0.4409940000000 1.0
END
