TITL C-3036481-494-1159 0.000796382254142446 3375 -347.800787714624 0 0 60 (C2) n - 1
REM
REM in /home/bkarasulu/work/CARBON/AIRSS/Generating-Clusters/REBO/Higher-Symm/Only-C60
REM
REM
REM
REM
REM
REM ./C.cell (a2850807a9bf4ad07a5b6933b78d9264)
REM AIRSS Version 0.9.1 bugfix July 2018 build 013d7b7c2542+ Fri, 06 Jul 2018 19:26:36 +0100
REM compiler GCC version 9.2.1 20190827 (Red Hat 9.2.1-1)
REM options -cpp -mtune=generic -march=x86-64 -g -O0 -fpre-include=/usr/include/finclude/math-vector-fortran.h
REM seed 1978514497 -1458222862 -27410449 -847467839 365594790 1232823453 97202209 1506730868 -2028806296 514239004 -348323587 112677504 1280866239 434933503 1316635663 2091474303 1101262672 -508655380 -727767703 1889860936 -334185476 1382164566 -628192669 1190294605 -2001914393 347912468 437498863 -650376252 617154680 -298804418 1462049659 1378164152 1498985285
REM
CELL 1.54180   15.00000   15.00000   15.00000   90.00000   90.00000   90.00000
LATT -1
SFAC C  
C      1  0.4959540000000  0.3116540000000  0.6122480000000 1.0
C      1  0.5040450000000  0.3116550000000  0.3877560000000 1.0
C      1  0.5645860000000  0.6869450000000  0.3013330000000 1.0
C      1  0.4354140000000  0.6869420000000  0.6986630000000 1.0
C      1  0.6316430000000  0.5002340000000  0.6656880000000 1.0
C      1  0.3683570000000  0.5002320000000  0.3343130000000 1.0
C      1  0.3426260000000  0.4766530000000  0.5090310000000 1.0
C      1  0.6573730000000  0.4766570000000  0.4909690000000 1.0
C      1  0.4901240000000  0.6469940000000  0.2650750000000 1.0
C      1  0.5098730000000  0.6469940000000  0.7349220000000 1.0
C      1  0.6210630000000  0.2800370000000  0.5199670000000 1.0
C      1  0.3789360000000  0.2800370000000  0.4800340000000 1.0
C      1  0.5392320000000  0.7615520000000  0.5246120000000 1.0
C      1  0.4607680000000  0.7615450000000  0.4753870000000 1.0
C      1  0.4326030000000  0.5919390000000  0.5644970000000 1.0
C      1  0.5673980000000  0.5919290000000  0.4355020000000 1.0
C      1  0.4024080000000  0.6921860000000  0.4459470000000 1.0
C      1  0.5975840000000  0.6921810000000  0.5540540000000 1.0
C      1  0.7232260000000  0.4337500000000  0.5979170000000 1.0
C      1  0.2767700000000  0.4337510000000  0.4020780000000 1.0
C      1  0.5660720000000  0.5825430000000  0.7088360000000 1.0
C      1  0.4339270000000  0.5825420000000  0.2911660000000 1.0
C      1  0.5503870000000  0.3770930000000  0.3392650000000 1.0
C      1  0.4496130000000  0.3770960000000  0.6607330000000 1.0
C      1  0.3568520000000  0.3899270000000  0.3600430000000 1.0
C      1  0.6431520000000  0.3899300000000  0.6399510000000 1.0
C      1  0.3095700000000  0.5403360000000  0.4239740000000 1.0
C      1  0.6904320000000  0.5403380000000  0.5760300000000 1.0
C      1  0.6907520000000  0.3939590000000  0.4351300000000 1.0
C      1  0.3092500000000  0.3939600000000  0.5648670000000 1.0
C      1  0.5764890000000  0.4982120000000  0.3881820000000 1.0
C      1  0.4235120000000  0.4982150000000  0.6118160000000 1.0
C      1  0.6948070000000  0.6299160000000  0.4346220000000 1.0
C      1  0.3051930000000  0.6299180000000  0.5653770000000 1.0
C      1  0.4098120000000  0.3205200000000  0.3982580000000 1.0
C      1  0.5901860000000  0.3205200000000  0.6017440000000 1.0
C      1  0.7022110000000  0.3153900000000  0.4859620000000 1.0
C      1  0.2977900000000  0.3153920000000  0.5140390000000 1.0
C      1  0.2980130000000  0.5358490000000  0.5894590000000 1.0
C      1  0.7019910000000  0.5358440000000  0.4105370000000 1.0
C      1  0.4974900000000  0.4700360000000  0.3173450000000 1.0
C      1  0.5025120000000  0.4700340000000  0.6826590000000 1.0
C      1  0.4083060000000  0.4896630000000  0.7430330000000 1.0
C      1  0.5916930000000  0.4896630000000  0.2569650000000 1.0
C      1  0.5487460000000  0.5407580000000  0.6052630000000 1.0
C      1  0.4512530000000  0.5407570000000  0.3947410000000 1.0
C      1  0.4396810000000  0.5999830000000  0.4718700000000 1.0
C      1  0.5603180000000  0.5999780000000  0.5281280000000 1.0
C      1  0.3129750000000  0.6385220000000  0.4670610000000 1.0
C      1  0.6870240000000  0.6385160000000  0.5329470000000 1.0
C      1  0.3563520000000  0.3825320000000  0.6465020000000 1.0
C      1  0.6436470000000  0.3825360000000  0.3535000000000 1.0
C      1  0.6114480000000  0.6675500000000  0.3809030000000 1.0
C      1  0.3885500000000  0.6675460000000  0.6190980000000 1.0
C      1  0.3332990000000  0.5090900000000  0.6801360000000 1.0
C      1  0.6667040000000  0.5090920000000  0.3198620000000 1.0
C      1  0.4563470000000  0.4732530000000  0.5097880000000 1.0
C      1  0.5436530000000  0.4732520000000  0.4902170000000 1.0
C      1  0.4458290000000  0.2629360000000  0.5467550000000 1.0
C      1  0.5541740000000  0.2629360000000  0.4532450000000 1.0
END
