TITL C-3036484-3770-59 -1.42155689492504e-05 3375 -346.250774062553 0 0 60 (C2) n - 1
REM
REM in /home/bkarasulu/work/CARBON/AIRSS/Generating-Clusters/REBO/Higher-Symm/Only-C60
REM
REM
REM
REM
REM
REM ./C.cell (a2850807a9bf4ad07a5b6933b78d9264)
REM AIRSS Version 0.9.1 bugfix July 2018 build 013d7b7c2542+ Fri, 06 Jul 2018 19:26:36 +0100
REM compiler GCC version 9.2.1 20190827 (Red Hat 9.2.1-1)
REM options -cpp -mtune=generic -march=x86-64 -g -O0 -fpre-include=/usr/include/finclude/math-vector-fortran.h
REM seed 1434182110 351039150 2109334532 1634622447 1809628013 -1662206565 -1955677942 1117976374 194865209 711141803 1944567278 -1673196694 -1203368977 1269799813 -420875504 1042612530 -724252318 -1868884025 -804743592 -661961864 538444230 617450983 -578646972 -1462372097 -451541353 812808479 1421160298 -1018513899 1889304796 180868446 -235387401 1242131386 -2131847828
REM
CELL 1.54180   15.00000   15.00000   15.00000   90.00000   90.00000   90.00000
LATT -1
SFAC C  
C      1  0.5442000000000  0.3854050000000  0.5376530000000 1.0
C      1  0.5357120000000  0.6106990000000  0.4638100000000 1.0
C      1  0.4642860000000  0.3893010000000  0.4638120000000 1.0
C      1  0.4558010000000  0.6145950000000  0.5376530000000 1.0
C      1  0.5387810000000  0.5355350000000  0.3841400000000 1.0
C      1  0.5424350000000  0.4623660000000  0.6128940000000 1.0
C      1  0.4612150000000  0.4644640000000  0.3841410000000 1.0
C      1  0.4575700000000  0.5376340000000  0.6128940000000 1.0
C      1  0.5029160000000  0.4200480000000  0.7036140000000 1.0
C      1  0.5195940000000  0.5850970000000  0.2918790000000 1.0
C      1  0.4803990000000  0.4149000000000  0.2918810000000 1.0
C      1  0.4970920000000  0.5799510000000  0.7036130000000 1.0
C      1  0.5056060000000  0.7027420000000  0.4188330000000 1.0
C      1  0.5175900000000  0.2917140000000  0.5841370000000 1.0
C      1  0.4943930000000  0.2972580000000  0.4188370000000 1.0
C      1  0.4824110000000  0.7082860000000  0.5841380000000 1.0
C      1  0.2928210000000  0.6459920000000  0.5847860000000 1.0
C      1  0.3002440000000  0.3716030000000  0.4302030000000 1.0
C      1  0.6997530000000  0.6283970000000  0.4301960000000 1.0
C      1  0.7071830000000  0.3540090000000  0.5847810000000 1.0
C      1  0.2941170000000  0.5862120000000  0.6446850000000 1.0
C      1  0.2987840000000  0.4321950000000  0.3707340000000 1.0
C      1  0.7058890000000  0.4137900000000  0.6446790000000 1.0
C      1  0.7012110000000  0.5678050000000  0.3707280000000 1.0
C      1  0.4327950000000  0.6998390000000  0.3630500000000 1.0
C      1  0.4425100000000  0.2882090000000  0.6357360000000 1.0
C      1  0.5574930000000  0.7117910000000  0.6357340000000 1.0
C      1  0.5672010000000  0.3001590000000  0.3630510000000 1.0
C      1  0.4304060000000  0.3644770000000  0.6982420000000 1.0
C      1  0.4446920000000  0.6372370000000  0.2867510000000 1.0
C      1  0.5696010000000  0.6355240000000  0.6982400000000 1.0
C      1  0.5553010000000  0.3627610000000  0.2867510000000 1.0
C      1  0.6593410000000  0.5872490000000  0.6796580000000 1.0
C      1  0.6463060000000  0.4011420000000  0.3273060000000 1.0
C      1  0.3536890000000  0.5988570000000  0.3273090000000 1.0
C      1  0.3406650000000  0.4127530000000  0.6796640000000 1.0
C      1  0.6473460000000  0.6707740000000  0.5960680000000 1.0
C      1  0.6579190000000  0.3174960000000  0.4108220000000 1.0
C      1  0.3526560000000  0.3292270000000  0.5960730000000 1.0
C      1  0.3420800000000  0.6825040000000  0.4108250000000 1.0
C      1  0.3684370000000  0.3806940000000  0.5094410000000 1.0
C      1  0.3540390000000  0.6393740000000  0.5007860000000 1.0
C      1  0.6459620000000  0.3606260000000  0.5007830000000 1.0
C      1  0.6315620000000  0.6193070000000  0.5094360000000 1.0
C      1  0.3666140000000  0.5118500000000  0.3792580000000 1.0
C      1  0.3557630000000  0.5026190000000  0.6374800000000 1.0
C      1  0.6333820000000  0.4881490000000  0.3792540000000 1.0
C      1  0.6442420000000  0.4973820000000  0.6374760000000 1.0
C      1  0.2558710000000  0.6244600000000  0.2821140000000 1.0
C      1  0.2526910000000  0.3538950000000  0.6805520000000 1.0
C      1  0.7473150000000  0.6461080000000  0.6805430000000 1.0
C      1  0.7441220000000  0.3755400000000  0.2821070000000 1.0
C      1  0.2538410000000  0.2853090000000  0.6198780000000 1.0
C      1  0.2548760000000  0.6850080000000  0.3508160000000 1.0
C      1  0.7461610000000  0.7146940000000  0.6198690000000 1.0
C      1  0.7451200000000  0.3149920000000  0.3508090000000 1.0
C      1  0.6354060000000  0.5212690000000  0.5376940000000 1.0
C      1  0.6364020000000  0.4602090000000  0.4770030000000 1.0
C      1  0.3635980000000  0.5397910000000  0.4770060000000 1.0
C      1  0.3645950000000  0.4787320000000  0.5376970000000 1.0
END
