TITL C-3036481-494-160 0.268852108210611 3375 -325.410589197051 0 0 60 (C1) n - 1
REM
REM in /home/bkarasulu/work/CARBON/AIRSS/Generating-Clusters/REBO/Higher-Symm/Only-C60
REM
REM
REM
REM
REM
REM ./C.cell (a2850807a9bf4ad07a5b6933b78d9264)
REM AIRSS Version 0.9.1 bugfix July 2018 build 013d7b7c2542+ Fri, 06 Jul 2018 19:26:36 +0100
REM compiler GCC version 9.2.1 20190827 (Red Hat 9.2.1-1)
REM options -cpp -mtune=generic -march=x86-64 -g -O0 -fpre-include=/usr/include/finclude/math-vector-fortran.h
REM seed 1787891329 754408545 195337724 -398344646 -1096039479 1177583217 1536398800 -1451569765 108975204 -1826450741 1967489512 -1165834792 -596567236 -1590597455 428869830 1065329191 1499493050 1428807002 1440276934 -191924109 -1909971207 50979944 1174411862 -1628386441 -1014045286 -288544531 -1058564664 1543304714 -1516296815 -148046052 1346233924 -1418771083 1173685465
REM
CELL 1.54180   15.00000   15.00000   15.00000   90.00000   90.00000   90.00000
LATT -1
SFAC C  
C      1  0.7044320000000  0.5458670000000  0.3114910000000 1.0
C      1  0.2945800000000  0.4283590000000  0.3131810000000 1.0
C      1  0.2727290000000  0.4762790000000  0.5742350000000 1.0
C      1  0.7409790000000  0.5038780000000  0.5764750000000 1.0
C      1  0.6662080000000  0.6397980000000  0.3394310000000 1.0
C      1  0.3499870000000  0.3470960000000  0.3325080000000 1.0
C      1  0.4988180000000  0.6461170000000  0.5863490000000 1.0
C      1  0.5221360000000  0.3288790000000  0.5919900000000 1.0
C      1  0.2499880000000  0.4701310000000  0.2468190000000 1.0
C      1  0.7336220000000  0.4988470000000  0.2446330000000 1.0
C      1  0.7069860000000  0.4580410000000  0.4817710000000 1.0
C      1  0.2976050000000  0.5310240000000  0.4807530000000 1.0
C      1  0.3533580000000  0.3421880000000  0.5316650000000 1.0
C      1  0.6744190000000  0.6495870000000  0.5417700000000 1.0
C      1  0.5231460000000  0.6329610000000  0.4427990000000 1.0
C      1  0.4996640000000  0.3744050000000  0.4128480000000 1.0
C      1  0.5951460000000  0.4997180000000  0.6919120000000 1.0
C      1  0.4464280000000  0.6060200000000  0.7021300000000 1.0
C      1  0.4288180000000  0.6452760000000  0.4735190000000 1.0
C      1  0.5728680000000  0.3523690000000  0.4719030000000 1.0
C      1  0.4463600000000  0.3867610000000  0.5626260000000 1.0
C      1  0.5794240000000  0.6075620000000  0.5619770000000 1.0
C      1  0.4840910000000  0.8153430000000  0.5873520000000 1.0
C      1  0.5186020000000  0.1616840000000  0.5683170000000 1.0
C      1  0.4031810000000  0.6014040000000  0.5762020000000 1.0
C      1  0.6039700000000  0.3882090000000  0.5776910000000 1.0
C      1  0.5020830000000  0.3182640000000  0.3206550000000 1.0
C      1  0.5462700000000  0.6798480000000  0.3488330000000 1.0
C      1  0.4488710000000  0.7335120000000  0.5718720000000 1.0
C      1  0.5547200000000  0.2435790000000  0.5579180000000 1.0
C      1  0.3590560000000  0.7185190000000  0.5257400000000 1.0
C      1  0.6374590000000  0.2633630000000  0.5011910000000 1.0
C      1  0.6601190000000  0.4681760000000  0.7370390000000 1.0
C      1  0.4145110000000  0.6894650000000  0.7068290000000 1.0
C      1  0.2795660000000  0.3822140000000  0.5680220000000 1.0
C      1  0.7459550000000  0.5980020000000  0.5763480000000 1.0
C      1  0.6766710000000  0.4344480000000  0.6091180000000 1.0
C      1  0.3374140000000  0.5454730000000  0.6070060000000 1.0
C      1  0.3327970000000  0.4535650000000  0.4094860000000 1.0
C      1  0.6736200000000  0.5370660000000  0.4138300000000 1.0
C      1  0.6843760000000  0.3619720000000  0.4750650000000 1.0
C      1  0.3168850000000  0.6277910000000  0.4784730000000 1.0
C      1  0.3877990000000  0.4683390000000  0.5077490000000 1.0
C      1  0.6243100000000  0.5286430000000  0.5172670000000 1.0
C      1  0.4194280000000  0.3082180000000  0.2803340000000 1.0
C      1  0.6070120000000  0.7018350000000  0.2783340000000 1.0
C      1  0.6307570000000  0.6386740000000  0.4431330000000 1.0
C      1  0.3923560000000  0.3591770000000  0.4325020000000 1.0
C      1  0.5483570000000  0.5399730000000  0.1412130000000 1.0
C      1  0.5423450000000  0.5110040000000  0.0579125000000 1.0
C      1  0.5049070000000  0.5278710000000  0.6475650000000 1.0
C      1  0.4565620000000  0.5117780000000  0.7463350000000 1.0
C      1  0.5013520000000  0.5329800000000  0.4664460000000 1.0
C      1  0.5219150000000  0.5071540000000  0.3104940000000 1.0
C      1  0.4797500000000  0.4934430000000  0.5616250000000 1.0
C      1  0.5053340000000  0.4740950000000  0.3943330000000 1.0
C      1  0.5206860000000  0.4704490000000  0.9825450000000 1.0
C      1  0.4614220000000  0.4617160000000  0.8205150000000 1.0
C      1  0.4889800000000  0.4464160000000  0.9034950000000 1.0
C      1  0.5388700000000  0.5366050000000  0.2290700000000 1.0
END
