TITL C-3036479-9801-953 -0.0495329448681658 3375 -334.257315757757 0 0 60 (Ci) n - 1
REM
REM in /home/bkarasulu/work/CARBON/AIRSS/Generating-Clusters/REBO/Higher-Symm/Only-C60
REM
REM
REM
REM
REM
REM ./C.cell (a2850807a9bf4ad07a5b6933b78d9264)
REM AIRSS Version 0.9.1 bugfix July 2018 build 013d7b7c2542+ Fri, 06 Jul 2018 19:26:36 +0100
REM compiler GCC version 9.2.1 20190827 (Red Hat 9.2.1-1)
REM options -cpp -mtune=generic -march=x86-64 -g -O0 -fpre-include=/usr/include/finclude/math-vector-fortran.h
REM seed 321650084 1500896390 42758863 159380721 -345406052 701901916 -967330120 576641385 -1742213669 -713226281 -151028164 -1881675699 1128961732 257816681 -1165968349 -1398093228 -1106981194 -470758972 1290651360 304650760 -1029337168 1912024431 -1925862912 500603686 -1078536825 58181304 -799559905 -669795462 -1774915543 767906618 -569181194 485314785 1395204385
REM
CELL 1.54180   15.00000   15.00000   15.00000   90.00000   90.00000   90.00000
LATT -1
SFAC C  
C      1  0.4152700000000  0.4458740000000  0.5992260000000 1.0
C      1  0.4107040000000  0.5510470000000  0.4029130000000 1.0
C      1  0.5889720000000  0.4488780000000  0.5976590000000 1.0
C      1  0.5837820000000  0.5546210000000  0.3996520000000 1.0
C      1  0.4182420000000  0.4474480000000  0.3957000000000 1.0
C      1  0.4149280000000  0.5504490000000  0.6013030000000 1.0
C      1  0.5856540000000  0.4498240000000  0.3990920000000 1.0
C      1  0.5819910000000  0.5526250000000  0.6042620000000 1.0
C      1  0.5487590000000  0.5957020000000  0.6846250000000 1.0
C      1  0.5557930000000  0.4051170000000  0.3189440000000 1.0
C      1  0.4448330000000  0.5951970000000  0.6811590000000 1.0
C      1  0.4518280000000  0.4044580000000  0.3155210000000 1.0
C      1  0.5475680000000  0.5968920000000  0.3187710000000 1.0
C      1  0.5555180000000  0.4038200000000  0.6776120000000 1.0
C      1  0.4429590000000  0.5964850000000  0.3227640000000 1.0
C      1  0.4508020000000  0.4030600000000  0.6800980000000 1.0
C      1  0.3131830000000  0.5711330000000  0.4437730000000 1.0
C      1  0.3164190000000  0.4321040000000  0.5561210000000 1.0
C      1  0.6826960000000  0.5672010000000  0.4436590000000 1.0
C      1  0.6865650000000  0.4287910000000  0.5565270000000 1.0
C      1  0.3174100000000  0.5468140000000  0.5508860000000 1.0
C      1  0.3221600000000  0.4569070000000  0.4489410000000 1.0
C      1  0.6778290000000  0.5429260000000  0.5508850000000 1.0
C      1  0.6831870000000  0.4525100000000  0.4493120000000 1.0
C      1  0.4526190000000  0.3029460000000  0.5921720000000 1.0
C      1  0.4550260000000  0.6975030000000  0.4086990000000 1.0
C      1  0.5447710000000  0.3025400000000  0.5917780000000 1.0
C      1  0.5471950000000  0.6963120000000  0.4075390000000 1.0
C      1  0.4533690000000  0.3228910000000  0.4254350000000 1.0
C      1  0.4527410000000  0.6753520000000  0.5750420000000 1.0
C      1  0.5474080000000  0.3249110000000  0.4249490000000 1.0
C      1  0.5468180000000  0.6771980000000  0.5744510000000 1.0
C      1  0.3865150000000  0.3538930000000  0.7530600000000 1.0
C      1  0.3906760000000  0.6350880000000  0.2362590000000 1.0
C      1  0.6080960000000  0.3638770000000  0.7633740000000 1.0
C      1  0.6129630000000  0.6465200000000  0.2469270000000 1.0
C      1  0.3871170000000  0.3562890000000  0.2423510000000 1.0
C      1  0.3924510000000  0.6330970000000  0.7678850000000 1.0
C      1  0.6080610000000  0.3667620000000  0.2323430000000 1.0
C      1  0.6133700000000  0.6441770000000  0.7576740000000 1.0
C      1  0.6386080000000  0.6508360000000  0.5372490000000 1.0
C      1  0.6384200000000  0.3471910000000  0.4632110000000 1.0
C      1  0.3613290000000  0.6526490000000  0.5371090000000 1.0
C      1  0.3616220000000  0.3491540000000  0.4625580000000 1.0
C      1  0.6345680000000  0.6709520000000  0.4381180000000 1.0
C      1  0.6321850000000  0.3282930000000  0.5625480000000 1.0
C      1  0.3674780000000  0.6716960000000  0.4378160000000 1.0
C      1  0.3654310000000  0.3288050000000  0.5616360000000 1.0
C      1  0.5452970000000  0.4528880000000  0.2149540000000 1.0
C      1  0.5674740000000  0.5521550000000  0.7882610000000 1.0
C      1  0.4332750000000  0.4483030000000  0.2121000000000 1.0
C      1  0.4555390000000  0.5470530000000  0.7847800000000 1.0
C      1  0.5457580000000  0.4495270000000  0.7829490000000 1.0
C      1  0.5670190000000  0.5555630000000  0.2140790000000 1.0
C      1  0.4338890000000  0.4444050000000  0.7852450000000 1.0
C      1  0.4555870000000  0.5508600000000  0.2180320000000 1.0
C      1  0.4541340000000  0.5657920000000  0.4991840000000 1.0
C      1  0.5459780000000  0.4344110000000  0.5010700000000 1.0
C      1  0.4572330000000  0.4327360000000  0.5008590000000 1.0
C      1  0.5429300000000  0.5674920000000  0.4988970000000 1.0
END
