TITL C-3036479-9801-85 -0.000420984517841741 3375 -308.332745106105 0 0 60 (D3) n - 1
REM
REM in /home/bkarasulu/work/CARBON/AIRSS/Generating-Clusters/REBO/Higher-Symm/Only-C60
REM
REM
REM
REM
REM
REM ./C.cell (a2850807a9bf4ad07a5b6933b78d9264)
REM AIRSS Version 0.9.1 bugfix July 2018 build 013d7b7c2542+ Fri, 06 Jul 2018 19:26:36 +0100
REM compiler GCC version 9.2.1 20190827 (Red Hat 9.2.1-1)
REM options -cpp -mtune=generic -march=x86-64 -g -O0 -fpre-include=/usr/include/finclude/math-vector-fortran.h
REM seed 265111178 -1977714727 27913500 -277531419 750438782 -800193734 -447677590 -1362380803 -1849816271 -484427487 918711126 -2079278424 -531598730 -823481406 -610045992 1975813693 604346596 1319425782 -1602741981 1457423558 1402998885 -885578750 -1037820665 999867580 264718685 134897731 -441507198 1262404839 1704890617 -1195047541 -281414466 -1233683636 1127971563
REM
CELL 1.54180   15.00000   15.00000   15.00000   90.00000   90.00000   90.00000
LATT -1
SFAC C  
C      1  0.4692340000000  0.4172340000000  0.2453090000000 1.0
C      1  0.7359620000000  0.4172560000000  0.6006960000000 1.0
C      1  0.2948210000000  0.4172180000000  0.6539930000000 1.0
C      1  0.5307660000000  0.5827660000000  0.2453090000000 1.0
C      1  0.2640380000000  0.5827440000000  0.6006960000000 1.0
C      1  0.7051790000000  0.5827820000000  0.6539930000000 1.0
C      1  0.2852560000000  0.4800930000000  0.5613890000000 1.0
C      1  0.5542070000000  0.4801160000000  0.2833300000000 1.0
C      1  0.6605400000000  0.4801270000000  0.6552760000000 1.0
C      1  0.7147440000000  0.5199070000000  0.5613890000000 1.0
C      1  0.4457930000000  0.5198840000000  0.2833300000000 1.0
C      1  0.3394600000000  0.5198730000000  0.6552760000000 1.0
C      1  0.4988500000000  0.5986640000000  0.6161090000000 1.0
C      1  0.4000120000000  0.5986590000000  0.4409560000000 1.0
C      1  0.6011160000000  0.5986750000000  0.4429350000000 1.0
C      1  0.5011500000000  0.4013360000000  0.6161090000000 1.0
C      1  0.5999880000000  0.4013410000000  0.4409560000000 1.0
C      1  0.3988840000000  0.4013250000000  0.4429360000000 1.0
C      1  0.6091300000000  0.5925210000000  0.3275740000000 1.0
C      1  0.5947520000000  0.5925240000000  0.6807270000000 1.0
C      1  0.2961000000000  0.5924970000000  0.4916970000000 1.0
C      1  0.3908700000000  0.4074790000000  0.3275740000000 1.0
C      1  0.4052480000000  0.4074760000000  0.6807270000000 1.0
C      1  0.7039000000000  0.4075030000000  0.4916970000000 1.0
C      1  0.4476890000000  0.3042840000000  0.4044780000000 1.0
C      1  0.6089010000000  0.3042980000000  0.5024480000000 1.0
C      1  0.4434520000000  0.3042870000000  0.5930780000000 1.0
C      1  0.5523110000000  0.6957160000000  0.4044780000000 1.0
C      1  0.3910990000000  0.6957020000000  0.5024480000000 1.0
C      1  0.5565480000000  0.6957130000000  0.5930780000000 1.0
C      1  0.6217750000000  0.4868260000000  0.3666110000000 1.0
C      1  0.5546320000000  0.4868260000000  0.6721510000000 1.0
C      1  0.3235960000000  0.4868020000000  0.4612340000000 1.0
C      1  0.3782250000000  0.5131740000000  0.3666110000000 1.0
C      1  0.4453680000000  0.5131740000000  0.6721510000000 1.0
C      1  0.6764040000000  0.5131980000000  0.4612340000000 1.0
C      1  0.3060670000000  0.6751880000000  0.5700560000000 1.0
C      1  0.5362780000000  0.6752080000000  0.2970330000000 1.0
C      1  0.6576190000000  0.6752200000000  0.6329110000000 1.0
C      1  0.6939330000000  0.3248120000000  0.5700560000000 1.0
C      1  0.4637220000000  0.3247920000000  0.2970330000000 1.0
C      1  0.3423810000000  0.3247800000000  0.6329110000000 1.0
C      1  0.4106570000000  0.6698630000000  0.6103190000000 1.0
C      1  0.4491150000000  0.6698690000000  0.3674790000000 1.0
C      1  0.6401900000000  0.6698830000000  0.5222030000000 1.0
C      1  0.5893430000000  0.3301370000000  0.6103190000000 1.0
C      1  0.5508850000000  0.3301310000000  0.3674790000000 1.0
C      1  0.3598100000000  0.3301170000000  0.5222030000000 1.0
C      1  0.4621620000000  0.2172990000000  0.4516590000000 1.0
C      1  0.5608170000000  0.2173060000000  0.4913880000000 1.0
C      1  0.4770830000000  0.2173000000000  0.5569620000000 1.0
C      1  0.5378380000000  0.7827010000000  0.4516590000000 1.0
C      1  0.4391830000000  0.7826940000000  0.4913880000000 1.0
C      1  0.5229170000000  0.7827000000000  0.5569620000000 1.0
C      1  0.5672560000000  0.4547870000000  0.5372160000000 1.0
C      1  0.4341470000000  0.4547770000000  0.5396340000000 1.0
C      1  0.4986070000000  0.4547820000000  0.4231490000000 1.0
C      1  0.4327430000000  0.5452130000000  0.5372160000000 1.0
C      1  0.5658540000000  0.5452230000000  0.5396340000000 1.0
C      1  0.5013930000000  0.5452180000000  0.4231480000000 1.0
END
