TITL C-3036484-3770-1028 -0.00192543383316946 3375 -345.361083331189 0 0 60 (C1) n - 1
REM
REM in /home/bkarasulu/work/CARBON/AIRSS/Generating-Clusters/REBO/Higher-Symm/Only-C60
REM
REM
REM
REM
REM
REM ./C.cell (a2850807a9bf4ad07a5b6933b78d9264)
REM AIRSS Version 0.9.1 bugfix July 2018 build 013d7b7c2542+ Fri, 06 Jul 2018 19:26:36 +0100
REM compiler GCC version 9.2.1 20190827 (Red Hat 9.2.1-1)
REM options -cpp -mtune=generic -march=x86-64 -g -O0 -fpre-include=/usr/include/finclude/math-vector-fortran.h
REM seed 87523308 45777248 -1226093504 1890056860 1567406855 85416550 -700414570 164926235 -1774851049 -1388825229 -187881889 481957399 1215257899 1308958772 -1478303940 -1272159891 -1795793326 -1812708723 -727828046 -1180227848 1513356358 -931748555 1489685887 1276817194 12004282 1982010232 -1812532139 366023364 -1226433056 -71531567 1459132085 -1776024298 1544251901
REM
CELL 1.54180   15.00000   15.00000   15.00000   90.00000   90.00000   90.00000
LATT -1
SFAC C  
C      1  0.4538830000000  0.3487050000000  0.6703880000000 1.0
C      1  0.6821660000000  0.3434270000000  0.4451550000000 1.0
C      1  0.3582380000000  0.3426180000000  0.3614180000000 1.0
C      1  0.4564910000000  0.6569140000000  0.6691010000000 1.0
C      1  0.6882530000000  0.6533780000000  0.4520050000000 1.0
C      1  0.3634580000000  0.6514790000000  0.3641850000000 1.0
C      1  0.5440340000000  0.3481310000000  0.6697050000000 1.0
C      1  0.3121910000000  0.3431830000000  0.4475800000000 1.0
C      1  0.6376380000000  0.3464390000000  0.3585250000000 1.0
C      1  0.5453610000000  0.6563880000000  0.6699280000000 1.0
C      1  0.3184340000000  0.6533860000000  0.4501780000000 1.0
C      1  0.6412680000000  0.6549930000000  0.3663810000000 1.0
C      1  0.4541630000000  0.4330460000000  0.5677900000000 1.0
C      1  0.5887020000000  0.4254850000000  0.4916310000000 1.0
C      1  0.4538680000000  0.4196980000000  0.4117470000000 1.0
C      1  0.4564890000000  0.5662660000000  0.5719300000000 1.0
C      1  0.5911410000000  0.5736360000000  0.4948440000000 1.0
C      1  0.4558430000000  0.5714040000000  0.4158770000000 1.0
C      1  0.5438140000000  0.4336080000000  0.5680340000000 1.0
C      1  0.4091880000000  0.4226060000000  0.4912880000000 1.0
C      1  0.5442640000000  0.4238400000000  0.4122830000000 1.0
C      1  0.5461260000000  0.5668430000000  0.5717660000000 1.0
C      1  0.4115200000000  0.5701030000000  0.4952370000000 1.0
C      1  0.5463440000000  0.5760590000000  0.4153200000000 1.0
C      1  0.2947320000000  0.3616420000000  0.5590830000000 1.0
C      1  0.6563530000000  0.3671570000000  0.6598880000000 1.0
C      1  0.5573140000000  0.3715740000000  0.2804750000000 1.0
C      1  0.2944820000000  0.6351030000000  0.5605750000000 1.0
C      1  0.6580500000000  0.6384540000000  0.6661550000000 1.0
C      1  0.5541750000000  0.6383710000000  0.2942000000000 1.0
C      1  0.7032660000000  0.3606080000000  0.5563410000000 1.0
C      1  0.3416370000000  0.3689420000000  0.6625310000000 1.0
C      1  0.4456340000000  0.3607110000000  0.2899310000000 1.0
C      1  0.7063040000000  0.6340380000000  0.5632450000000 1.0
C      1  0.3437070000000  0.6400800000000  0.6630570000000 1.0
C      1  0.4425940000000  0.6276860000000  0.2845650000000 1.0
C      1  0.5357380000000  0.5559950000000  0.2218080000000 1.0
C      1  0.2580860000000  0.5484770000000  0.6198220000000 1.0
C      1  0.7103250000000  0.5555840000000  0.7234290000000 1.0
C      1  0.5695310000000  0.4574890000000  0.2069180000000 1.0
C      1  0.2490740000000  0.4474180000000  0.6093240000000 1.0
C      1  0.7120750000000  0.4528960000000  0.7097670000000 1.0
C      1  0.4301660000000  0.5434310000000  0.2092180000000 1.0
C      1  0.7418710000000  0.5461940000000  0.6206920000000 1.0
C      1  0.2904510000000  0.5592480000000  0.7222500000000 1.0
C      1  0.4641600000000  0.4446910000000  0.2194010000000 1.0
C      1  0.7499780000000  0.4452570000000  0.6081170000000 1.0
C      1  0.2871240000000  0.4564970000000  0.7105760000000 1.0
C      1  0.6087720000000  0.5495890000000  0.3331200000000 1.0
C      1  0.3080520000000  0.5468250000000  0.4927780000000 1.0
C      1  0.5909050000000  0.5512730000000  0.6650250000000 1.0
C      1  0.6080100000000  0.4545720000000  0.3335760000000 1.0
C      1  0.3062910000000  0.4500830000000  0.4892680000000 1.0
C      1  0.5886650000000  0.4535260000000  0.6598010000000 1.0
C      1  0.3920230000000  0.5437840000000  0.3360930000000 1.0
C      1  0.6942780000000  0.5462310000000  0.4931000000000 1.0
C      1  0.4102150000000  0.5521830000000  0.6647500000000 1.0
C      1  0.3910510000000  0.4487190000000  0.3307220000000 1.0
C      1  0.6919420000000  0.4496430000000  0.4885150000000 1.0
C      1  0.4100940000000  0.4543920000000  0.6595920000000 1.0
END
