TITL C-3036483-1610-444 0.0254723144486673 3375 -328.744338126487 0 0 60 (C1) n - 1
REM
REM in /home/bkarasulu/work/CARBON/AIRSS/Generating-Clusters/REBO/Higher-Symm/Only-C60
REM
REM
REM
REM
REM
REM ./C.cell (a2850807a9bf4ad07a5b6933b78d9264)
REM AIRSS Version 0.9.1 bugfix July 2018 build 013d7b7c2542+ Fri, 06 Jul 2018 19:26:36 +0100
REM compiler GCC version 9.2.1 20190827 (Red Hat 9.2.1-1)
REM options -cpp -mtune=generic -march=x86-64 -g -O0 -fpre-include=/usr/include/finclude/math-vector-fortran.h
REM seed 1044090032 -622452573 -1712091980 1861064799 627069420 -1400275433 951726668 195105587 1565181285 1141522860 624084323 -1281125492 -1914660055 947845980 1506040710 -2105828752 -2131570415 750551560 -539654667 -179910611 -283885276 97289940 2005592154 210128390 1415582686 1241849812 -2034892110 858986522 -547750516 -1856977367 -892308092 -1749122334 419684248
REM
CELL 1.54180   15.00000   15.00000   15.00000   90.00000   90.00000   90.00000
LATT -1
SFAC C  
C      1  0.3217790000000  0.5061930000000  0.4724420000000 1.0
C      1  0.6766540000000  0.5024230000000  0.4727040000000 1.0
C      1  0.5846410000000  0.5395400000000  0.5866280000000 1.0
C      1  0.4086220000000  0.4680220000000  0.5874350000000 1.0
C      1  0.6987500000000  0.6316470000000  0.4957610000000 1.0
C      1  0.2964010000000  0.3772280000000  0.4941970000000 1.0
C      1  0.5962240000000  0.6138930000000  0.6621170000000 1.0
C      1  0.3997020000000  0.3940780000000  0.6638550000000 1.0
C      1  0.5851020000000  0.6913630000000  0.4598770000000 1.0
C      1  0.4115840000000  0.3150430000000  0.4563140000000 1.0
C      1  0.5854820000000  0.4360660000000  0.4939570000000 1.0
C      1  0.4128850000000  0.5718350000000  0.4967380000000 1.0
C      1  0.5866910000000  0.3918170000000  0.6411530000000 1.0
C      1  0.4101500000000  0.6164240000000  0.6395910000000 1.0
C      1  0.4193450000000  0.5012220000000  0.8140470000000 1.0
C      1  0.5766770000000  0.5081210000000  0.8141670000000 1.0
C      1  0.6245280000000  0.3103170000000  0.4678940000000 1.0
C      1  0.3731200000000  0.7017550000000  0.4678820000000 1.0
C      1  0.6817160000000  0.6378500000000  0.6081050000000 1.0
C      1  0.3158640000000  0.3716710000000  0.6063240000000 1.0
C      1  0.4865160000000  0.5950870000000  0.2251650000000 1.0
C      1  0.5151300000000  0.4044410000000  0.2156620000000 1.0
C      1  0.4745740000000  0.3210270000000  0.6370430000000 1.0
C      1  0.5218430000000  0.6878600000000  0.6374140000000 1.0
C      1  0.5194290000000  0.6745190000000  0.2994260000000 1.0
C      1  0.4805750000000  0.3331460000000  0.2972590000000 1.0
C      1  0.5741180000000  0.5841760000000  0.4903940000000 1.0
C      1  0.4218340000000  0.4218890000000  0.4922780000000 1.0
C      1  0.4471890000000  0.5971190000000  0.3324820000000 1.0
C      1  0.5466140000000  0.4197670000000  0.3241130000000 1.0
C      1  0.4856360000000  0.7184030000000  0.4697750000000 1.0
C      1  0.5119120000000  0.2953260000000  0.4681740000000 1.0
C      1  0.4367420000000  0.6982410000000  0.3741340000000 1.0
C      1  0.5629040000000  0.3197970000000  0.3741330000000 1.0
C      1  0.3100180000000  0.6109890000000  0.4629320000000 1.0
C      1  0.6905930000000  0.3981870000000  0.4650600000000 1.0
C      1  0.4134540000000  0.2503420000000  0.6059660000000 1.0
C      1  0.5830170000000  0.7590640000000  0.6076510000000 1.0
C      1  0.5324540000000  0.3561490000000  0.5518360000000 1.0
C      1  0.4649620000000  0.6537990000000  0.5508690000000 1.0
C      1  0.6616200000000  0.4629170000000  0.5997720000000 1.0
C      1  0.3330480000000  0.5469300000000  0.6002380000000 1.0
C      1  0.3480560000000  0.2860280000000  0.5388990000000 1.0
C      1  0.6486100000000  0.7234170000000  0.5408640000000 1.0
C      1  0.4942030000000  0.5896630000000  0.7017560000000 1.0
C      1  0.5019730000000  0.4186680000000  0.7025840000000 1.0
C      1  0.3450680000000  0.4182700000000  0.4069970000000 1.0
C      1  0.6530140000000  0.5902920000000  0.4077050000000 1.0
C      1  0.2754510000000  0.4645430000000  0.5634300000000 1.0
C      1  0.7213900000000  0.5445630000000  0.5646790000000 1.0
C      1  0.3333430000000  0.6548740000000  0.5640660000000 1.0
C      1  0.6639360000000  0.3545070000000  0.5654420000000 1.0
C      1  0.3925750000000  0.3366260000000  0.3491100000000 1.0
C      1  0.6062100000000  0.6717770000000  0.3517100000000 1.0
C      1  0.4970650000000  0.5036360000000  0.6001840000000 1.0
C      1  0.5163410000000  0.5050210000000  0.1625330000000 1.0
C      1  0.4904040000000  0.5026730000000  0.3643040000000 1.0
C      1  0.4980700000000  0.5044720000000  0.7599560000000 1.0
C      1  0.4976610000000  0.5027490000000  0.4668030000000 1.0
C      1  0.4557650000000  0.4897540000000  0.2573170000000 1.0
END
