TITL C-3036480-97-27 -0.0372781777697155 3375 -346.065939904125 0 0 60 (C1) n - 1
REM
REM in /home/bkarasulu/work/CARBON/AIRSS/Generating-Clusters/REBO/Higher-Symm/Only-C60
REM
REM
REM
REM
REM
REM ./C.cell (a2850807a9bf4ad07a5b6933b78d9264)
REM AIRSS Version 0.9.1 bugfix July 2018 build 013d7b7c2542+ Fri, 06 Jul 2018 19:26:36 +0100
REM compiler GCC version 9.2.1 20190827 (Red Hat 9.2.1-1)
REM options -cpp -mtune=generic -march=x86-64 -g -O0 -fpre-include=/usr/include/finclude/math-vector-fortran.h
REM seed 1232431088 -545374369 1428131118 1400077110 595739537 -965898596 -2035307208 -1401956223 308465093 -541358915 410456761 -1508277582 1411686773 2088497090 22973700 -966100632 709007698 161719965 1808741705 1926229801 -672975294 -305254744 -146867502 659714954 -419477428 -48963744 676371606 -1332732867 486894663 641715921 2069181569 1497710757 -775804828
REM
CELL 1.54180   15.00000   15.00000   15.00000   90.00000   90.00000   90.00000
LATT -1
SFAC C  
C      1  0.2937110000000  0.5923120000000  0.4229480000000 1.0
C      1  0.7137340000000  0.5547610000000  0.4689890000000 1.0
C      1  0.4827860000000  0.5577890000000  0.7220670000000 1.0
C      1  0.5646950000000  0.7379160000000  0.5880810000000 1.0
C      1  0.3966180000000  0.5536730000000  0.3917730000000 1.0
C      1  0.5597430000000  0.5699450000000  0.6550010000000 1.0
C      1  0.5738770000000  0.2777900000000  0.6092500000000 1.0
C      1  0.6330410000000  0.3575840000000  0.3577190000000 1.0
C      1  0.3251840000000  0.3845020000000  0.5980590000000 1.0
C      1  0.2791610000000  0.5372530000000  0.5213070000000 1.0
C      1  0.4216070000000  0.6669240000000  0.3802120000000 1.0
C      1  0.4717710000000  0.4450170000000  0.7250590000000 1.0
C      1  0.2898230000000  0.4320010000000  0.5181120000000 1.0
C      1  0.2823910000000  0.6263410000000  0.5878790000000 1.0
C      1  0.3628290000000  0.4574690000000  0.3455850000000 1.0
C      1  0.6542130000000  0.4417720000000  0.6281720000000 1.0
C      1  0.5428960000000  0.4887600000000  0.5173100000000 1.0
C      1  0.3672910000000  0.4233890000000  0.6851800000000 1.0
C      1  0.5728770000000  0.6424250000000  0.4065840000000 1.0
C      1  0.4744390000000  0.6510970000000  0.5425520000000 1.0
C      1  0.4094590000000  0.2755760000000  0.4773650000000 1.0
C      1  0.7047820000000  0.4962480000000  0.3102850000000 1.0
C      1  0.3897590000000  0.5304000000000  0.6687860000000 1.0
C      1  0.3126640000000  0.6633640000000  0.4979650000000 1.0
C      1  0.6525310000000  0.6290440000000  0.4867560000000 1.0
C      1  0.5257940000000  0.5697050000000  0.5627100000000 1.0
C      1  0.5817170000000  0.4151880000000  0.5582260000000 1.0
C      1  0.4074620000000  0.6801510000000  0.4777010000000 1.0
C      1  0.4731440000000  0.3260360000000  0.3214750000000 1.0
C      1  0.3426740000000  0.3038290000000  0.4141310000000 1.0
C      1  0.6497900000000  0.6729100000000  0.5908280000000 1.0
C      1  0.7455980000000  0.5712830000000  0.3617820000000 1.0
C      1  0.5069320000000  0.3928290000000  0.3996160000000 1.0
C      1  0.5070630000000  0.2885150000000  0.4446510000000 1.0
C      1  0.5106990000000  0.5575750000000  0.3727260000000 1.0
C      1  0.6629870000000  0.3706750000000  0.4626850000000 1.0
C      1  0.3361500000000  0.6202690000000  0.6623760000000 1.0
C      1  0.5043480000000  0.6859890000000  0.3395420000000 1.0
C      1  0.3790300000000  0.3464410000000  0.3291610000000 1.0
C      1  0.5675320000000  0.2873960000000  0.3483810000000 1.0
C      1  0.5177820000000  0.4742150000000  0.4316070000000 1.0
C      1  0.5780230000000  0.4188450000000  0.6969290000000 1.0
C      1  0.4761760000000  0.7062200000000  0.6308050000000 1.0
C      1  0.5269540000000  0.7170990000000  0.2566900000000 1.0
C      1  0.4494790000000  0.4481860000000  0.2741400000000 1.0
C      1  0.7128210000000  0.4545740000000  0.4135330000000 1.0
C      1  0.6208720000000  0.4404640000000  0.3079560000000 1.0
C      1  0.5234390000000  0.3447460000000  0.6551050000000 1.0
C      1  0.4255130000000  0.4763070000000  0.5787160000000 1.0
C      1  0.3114990000000  0.4006900000000  0.4296880000000 1.0
C      1  0.3894810000000  0.5181160000000  0.4998120000000 1.0
C      1  0.7095750000000  0.5903370000000  0.7217000000000 1.0
C      1  0.7033800000000  0.4569320000000  0.5265910000000 1.0
C      1  0.5791930000000  0.7157760000000  0.4895730000000 1.0
C      1  0.5870580000000  0.3137930000000  0.5111180000000 1.0
C      1  0.5328210000000  0.4816880000000  0.2995850000000 1.0
C      1  0.6447620000000  0.6094830000000  0.6622220000000 1.0
C      1  0.4283540000000  0.6540400000000  0.6965750000000 1.0
C      1  0.3922190000000  0.3124070000000  0.5625680000000 1.0
C      1  0.4577990000000  0.3839390000000  0.5960980000000 1.0
END
