TITL C-3036486-2224-895 -1.98831202090151e-06 3375 -332.609681761938 0 0 60 (D2) n - 1
REM
REM in /home/bkarasulu/work/CARBON/AIRSS/Generating-Clusters/REBO/Higher-Symm/Only-C60
REM
REM
REM
REM
REM
REM ./C.cell (a2850807a9bf4ad07a5b6933b78d9264)
REM AIRSS Version 0.9.1 bugfix July 2018 build 013d7b7c2542+ Fri, 06 Jul 2018 19:26:36 +0100
REM compiler GCC version 9.2.1 20190827 (Red Hat 9.2.1-1)
REM options -cpp -mtune=generic -march=x86-64 -g -O0 -fpre-include=/usr/include/finclude/math-vector-fortran.h
REM seed 423648475 1165795699 1032735825 1367091667 125996209 -701864348 579026408 1457075530 265229704 -1429903116 7494149 -396062595 -54840891 414161063 -806402792 2085185322 -1804688862 -1336884836 -2110025126 -1756823156 929215186 938499601 -832254441 163889383 1645698316 434503645 -1592488151 -1397506399 1032213102 376727014 1498040698 866589377 726927985
REM
CELL 1.54180   15.00000   15.00000   15.00000   90.00000   90.00000   90.00000
LATT -1
SFAC C  
C      1  0.4956680000000  0.5655740000000  0.6923080000000 1.0
C      1  0.5015450000000  0.7090600000000  0.4337460000000 1.0
C      1  0.4956680000000  0.4344260000000  0.3076920000000 1.0
C      1  0.5015450000000  0.2909400000000  0.5662540000000 1.0
C      1  0.5100730000000  0.5655830000000  0.3076950000000 1.0
C      1  0.5041970000000  0.7090570000000  0.5662640000000 1.0
C      1  0.5100730000000  0.4344170000000  0.6923050000000 1.0
C      1  0.5041970000000  0.2909430000000  0.4337360000000 1.0
C      1  0.3240910000000  0.4698770000000  0.3513740000000 1.0
C      1  0.3225100000000  0.3375280000000  0.5377420000000 1.0
C      1  0.3240910000000  0.5301230000000  0.6486260000000 1.0
C      1  0.3225100000000  0.6624720000000  0.4622580000000 1.0
C      1  0.6816490000000  0.4698690000000  0.6486240000000 1.0
C      1  0.6832310000000  0.3375300000000  0.4622500000000 1.0
C      1  0.6816490000000  0.5301310000000  0.3513760000000 1.0
C      1  0.6832310000000  0.6624700000000  0.5377500000000 1.0
C      1  0.5762480000000  0.6330210000000  0.6112500000000 1.0
C      1  0.5818750000000  0.6130240000000  0.3821510000000 1.0
C      1  0.5762480000000  0.3669790000000  0.3887500000000 1.0
C      1  0.5818750000000  0.3869760000000  0.6178490000000 1.0
C      1  0.4294930000000  0.6330270000000  0.3887570000000 1.0
C      1  0.4238660000000  0.6130180000000  0.6178550000000 1.0
C      1  0.4294930000000  0.3669730000000  0.6112430000000 1.0
C      1  0.4238660000000  0.3869820000000  0.3821450000000 1.0
C      1  0.7197880000000  0.5058170000000  0.4340530000000 1.0
C      1  0.7189760000000  0.4187090000000  0.4923540000000 1.0
C      1  0.7197880000000  0.4941830000000  0.5659470000000 1.0
C      1  0.7189760000000  0.5812910000000  0.5076470000000 1.0
C      1  0.2859540000000  0.5058140000000  0.5659480000000 1.0
C      1  0.2867650000000  0.4187090000000  0.5076420000000 1.0
C      1  0.2859540000000  0.4941860000000  0.4340520000000 1.0
C      1  0.2867650000000  0.5812910000000  0.4923580000000 1.0
C      1  0.5574670000000  0.5990150000000  0.4841180000000 1.0
C      1  0.5455410000000  0.4694030000000  0.4262490000000 1.0
C      1  0.5574670000000  0.4009850000000  0.5158820000000 1.0
C      1  0.5455410000000  0.5305970000000  0.5737510000000 1.0
C      1  0.4482730000000  0.5990140000000  0.5158870000000 1.0
C      1  0.4602000000000  0.4693990000000  0.5737490000000 1.0
C      1  0.4482730000000  0.4009860000000  0.4841130000000 1.0
C      1  0.4602000000000  0.5306010000000  0.4262510000000 1.0
C      1  0.4133360000000  0.5101150000000  0.3288640000000 1.0
C      1  0.4110020000000  0.2982400000000  0.4974050000000 1.0
C      1  0.4133360000000  0.4898850000000  0.6711360000000 1.0
C      1  0.4110020000000  0.7017600000000  0.5025950000000 1.0
C      1  0.5924050000000  0.5101060000000  0.6711370000000 1.0
C      1  0.5947390000000  0.2982410000000  0.5025850000000 1.0
C      1  0.5924050000000  0.4898940000000  0.3288630000000 1.0
C      1  0.5947390000000  0.7017590000000  0.4974150000000 1.0
C      1  0.6817570000000  0.6268200000000  0.3382620000000 1.0
C      1  0.6769540000000  0.3324360000000  0.3645070000000 1.0
C      1  0.6817570000000  0.3731800000000  0.6617380000000 1.0
C      1  0.6769540000000  0.6675640000000  0.6354930000000 1.0
C      1  0.3239830000000  0.6268110000000  0.6617450000000 1.0
C      1  0.3287870000000  0.3324290000000  0.6354840000000 1.0
C      1  0.3239830000000  0.3731890000000  0.3382550000000 1.0
C      1  0.3287870000000  0.6675710000000  0.3645160000000 1.0
C      1  0.4962530000000  0.3220610000000  0.3247410000000 1.0
C      1  0.4962530000000  0.6779390000000  0.6752590000000 1.0
C      1  0.5094880000000  0.3220520000000  0.6752500000000 1.0
C      1  0.5094880000000  0.6779480000000  0.3247490000000 1.0
END
