TITL C-3036485-3770-520 0.00221616312240208 3375 -340.208374159756 0 0 60 (C1) n - 1
REM
REM in /home/bkarasulu/work/CARBON/AIRSS/Generating-Clusters/REBO/Higher-Symm/Only-C60
REM
REM
REM
REM
REM
REM ./C.cell (a2850807a9bf4ad07a5b6933b78d9264)
REM AIRSS Version 0.9.1 bugfix July 2018 build 013d7b7c2542+ Fri, 06 Jul 2018 19:26:36 +0100
REM compiler GCC version 9.2.1 20190827 (Red Hat 9.2.1-1)
REM options -cpp -mtune=generic -march=x86-64 -g -O0 -fpre-include=/usr/include/finclude/math-vector-fortran.h
REM seed -1066596189 -1646323518 454305431 -1041929688 409189707 2003578201 953963249 742263834 1726974845 -733576145 718934285 -9532280 892464683 1226353611 1344665309 -529622970 -1560981661 291869013 1013068261 1808213748 -952010785 -1411620795 -1469519140 1971188714 37096276 -424117121 1260059310 1301679662 -401315702 -415702514 1661800600 -792538042 1474772966
REM
CELL 1.54180   15.00000   15.00000   15.00000   90.00000   90.00000   90.00000
LATT -1
SFAC C  
C      1  0.4820330000000  0.5360000000000  0.3364750000000 1.0
C      1  0.6403170000000  0.5433170000000  0.5540450000000 1.0
C      1  0.3877940000000  0.5383480000000  0.5959780000000 1.0
C      1  0.4536370000000  0.4139050000000  0.7055390000000 1.0
C      1  0.3464720000000  0.4114620000000  0.3567950000000 1.0
C      1  0.6963360000000  0.4018930000000  0.4396250000000 1.0
C      1  0.5705520000000  0.6797340000000  0.3594710000000 1.0
C      1  0.5928700000000  0.6852630000000  0.6516560000000 1.0
C      1  0.3286620000000  0.6656030000000  0.5333260000000 1.0
C      1  0.5163390000000  0.6336120000000  0.5383090000000 1.0
C      1  0.4531720000000  0.5956540000000  0.4517900000000 1.0
C      1  0.5659640000000  0.5841720000000  0.4512490000000 1.0
C      1  0.4352550000000  0.4841430000000  0.5219780000000 1.0
C      1  0.5000480000000  0.4725080000000  0.4289440000000 1.0
C      1  0.5483110000000  0.4806700000000  0.5324500000000 1.0
C      1  0.5231090000000  0.4195510000000  0.2329950000000 1.0
C      1  0.7164780000000  0.4216110000000  0.6380650000000 1.0
C      1  0.2714140000000  0.4232200000000  0.6275030000000 1.0
C      1  0.7053380000000  0.2407840000000  0.4868130000000 1.0
C      1  0.4078150000000  0.2531550000000  0.6951270000000 1.0
C      1  0.3761710000000  0.2494290000000  0.3280770000000 1.0
C      1  0.5475730000000  0.3881620000000  0.3881430000000 1.0
C      1  0.5654800000000  0.3963720000000  0.5935180000000 1.0
C      1  0.3760460000000  0.3968100000000  0.5083950000000 1.0
C      1  0.4771370000000  0.7197860000000  0.4103250000000 1.0
C      1  0.5829340000000  0.7460690000000  0.5640900000000 1.0
C      1  0.4124550000000  0.7279860000000  0.5742780000000 1.0
C      1  0.4198030000000  0.3329840000000  0.6481210000000 1.0
C      1  0.4128180000000  0.3303140000000  0.3580480000000 1.0
C      1  0.6606220000000  0.3219050000000  0.4960510000000 1.0
C      1  0.4006820000000  0.7177440000000  0.4659850000000 1.0
C      1  0.5694880000000  0.7135730000000  0.4686530000000 1.0
C      1  0.4945520000000  0.7343800000000  0.6225090000000 1.0
C      1  0.6985770000000  0.4877250000000  0.4809740000000 1.0
C      1  0.4402670000000  0.5113140000000  0.6843980000000 1.0
C      1  0.3844270000000  0.4941770000000  0.3316870000000 1.0
C      1  0.4541280000000  0.6281470000000  0.3225940000000 1.0
C      1  0.6491800000000  0.6359580000000  0.5414420000000 1.0
C      1  0.3818270000000  0.6247980000000  0.6483050000000 1.0
C      1  0.3377310000000  0.3677210000000  0.5968590000000 1.0
C      1  0.4971120000000  0.3633980000000  0.3016110000000 1.0
C      1  0.6619860000000  0.3657630000000  0.5898720000000 1.0
C      1  0.6937330000000  0.5132410000000  0.6419290000000 1.0
C      1  0.2820090000000  0.5154880000000  0.6099500000000 1.0
C      1  0.5419460000000  0.5105160000000  0.2558810000000 1.0
C      1  0.2950270000000  0.5308440000000  0.4545710000000 1.0
C      1  0.6502400000000  0.5126650000000  0.3286050000000 1.0
C      1  0.5717010000000  0.5245460000000  0.6923600000000 1.0
C      1  0.4438220000000  0.3293250000000  0.4595450000000 1.0
C      1  0.5567800000000  0.3215520000000  0.4731470000000 1.0
C      1  0.4887230000000  0.3276270000000  0.5646890000000 1.0
C      1  0.6361300000000  0.6039210000000  0.6726250000000 1.0
C      1  0.2790190000000  0.5825830000000  0.5336000000000 1.0
C      1  0.5917320000000  0.6023480000000  0.3023250000000 1.0
C      1  0.6436960000000  0.4171740000000  0.3595690000000 1.0
C      1  0.5482310000000  0.4334530000000  0.6865870000000 1.0
C      1  0.3045000000000  0.4321950000000  0.4427180000000 1.0
C      1  0.5073970000000  0.5852900000000  0.6299070000000 1.0
C      1  0.3743560000000  0.5647780000000  0.4083570000000 1.0
C      1  0.6480440000000  0.5533360000000  0.4215670000000 1.0
END
