TITL C-3036486-2224-754 4.43830741925334e-06 3375 -341.97810349945 0 0 60 (C4h) n - 1
REM
REM in /home/bkarasulu/work/CARBON/AIRSS/Generating-Clusters/REBO/Higher-Symm/Only-C60
REM
REM
REM
REM
REM
REM ./C.cell (a2850807a9bf4ad07a5b6933b78d9264)
REM AIRSS Version 0.9.1 bugfix July 2018 build 013d7b7c2542+ Fri, 06 Jul 2018 19:26:36 +0100
REM compiler GCC version 9.2.1 20190827 (Red Hat 9.2.1-1)
REM options -cpp -mtune=generic -march=x86-64 -g -O0 -fpre-include=/usr/include/finclude/math-vector-fortran.h
REM seed 130215780 -665640969 1810149333 1178082069 1249888757 -210112867 1279519033 -594943959 -1101973965 997300908 -220211664 -1347969877 -1623676145 -1987314582 882484838 -358604852 1161998039 -902092597 -403510238 -1347306973 1539906535 -1907578913 -1931134937 -873596411 541999964 -1244471413 1538627035 907709797 794306127 -518691314 139654541 -344286113 -816347228
REM
CELL 1.54180   15.00000   15.00000   15.00000   90.00000   90.00000   90.00000
LATT -1
SFAC C  
C      1  0.4921790000000  0.4138870000000  0.7294790000000 1.0
C      1  0.7294790000000  0.4138870000000  0.5078210000000 1.0
C      1  0.5078210000000  0.4138870000000  0.2705210000000 1.0
C      1  0.2705210000000  0.4138870000000  0.4921790000000 1.0
C      1  0.4921790000000  0.5818510000000  0.7294790000000 1.0
C      1  0.7294790000000  0.5818510000000  0.5078210000000 1.0
C      1  0.5078210000000  0.5818510000000  0.2705210000000 1.0
C      1  0.2705210000000  0.5818510000000  0.4921790000000 1.0
C      1  0.6736930000000  0.4067510000000  0.3489030000000 1.0
C      1  0.3489030000000  0.4067510000000  0.3263070000000 1.0
C      1  0.3263070000000  0.4067510000000  0.6510970000000 1.0
C      1  0.6510970000000  0.4067510000000  0.6736930000000 1.0
C      1  0.6736930000000  0.5889860000000  0.3489030000000 1.0
C      1  0.3489030000000  0.5889860000000  0.3263070000000 1.0
C      1  0.3263070000000  0.5889860000000  0.6510970000000 1.0
C      1  0.6510970000000  0.5889860000000  0.6736930000000 1.0
C      1  0.3488490000000  0.5496150000000  0.4276190000000 1.0
C      1  0.4276190000000  0.5496150000000  0.6511510000000 1.0
C      1  0.6511510000000  0.5496150000000  0.5723810000000 1.0
C      1  0.5723810000000  0.5496150000000  0.3488490000000 1.0
C      1  0.3488490000000  0.4461230000000  0.4276190000000 1.0
C      1  0.4276190000000  0.4461230000000  0.6511510000000 1.0
C      1  0.6511510000000  0.4461230000000  0.5723810000000 1.0
C      1  0.5723810000000  0.4461230000000  0.3488490000000 1.0
C      1  0.2668090000000  0.4511460000000  0.5763170000000 1.0
C      1  0.5763170000000  0.4511460000000  0.7331910000000 1.0
C      1  0.7331910000000  0.4511460000000  0.4236830000000 1.0
C      1  0.4236830000000  0.4511460000000  0.2668090000000 1.0
C      1  0.2668090000000  0.5445920000000  0.5763170000000 1.0
C      1  0.5763170000000  0.5445920000000  0.7331910000000 1.0
C      1  0.7331910000000  0.5445920000000  0.4236830000000 1.0
C      1  0.4236830000000  0.5445920000000  0.2668090000000 1.0
C      1  0.4776510000000  0.5980180000000  0.5752360000000 1.0
C      1  0.5752360000000  0.5980180000000  0.5223490000000 1.0
C      1  0.5223490000000  0.5980180000000  0.4247640000000 1.0
C      1  0.4247640000000  0.5980180000000  0.4776510000000 1.0
C      1  0.4776510000000  0.3977190000000  0.5752360000000 1.0
C      1  0.5752360000000  0.3977190000000  0.5223490000000 1.0
C      1  0.5223490000000  0.3977190000000  0.4247640000000 1.0
C      1  0.4247640000000  0.3977190000000  0.4776510000000 1.0
C      1  0.6076520000000  0.3137660000000  0.6532500000000 1.0
C      1  0.6532500000000  0.3137660000000  0.3923480000000 1.0
C      1  0.3923480000000  0.3137660000000  0.3467500000000 1.0
C      1  0.3467500000000  0.3137660000000  0.6076520000000 1.0
C      1  0.6076520000000  0.6819720000000  0.6532500000000 1.0
C      1  0.6532500000000  0.6819720000000  0.3923480000000 1.0
C      1  0.3923480000000  0.6819720000000  0.3467500000000 1.0
C      1  0.3467500000000  0.6819720000000  0.6076520000000 1.0
C      1  0.6144220000000  0.3114430000000  0.4670110000000 1.0
C      1  0.4670110000000  0.3114430000000  0.3855780000000 1.0
C      1  0.3855780000000  0.3114430000000  0.5329890000000 1.0
C      1  0.5329890000000  0.3114430000000  0.6144220000000 1.0
C      1  0.6144220000000  0.6842950000000  0.4670110000000 1.0
C      1  0.4670110000000  0.6842950000000  0.3855780000000 1.0
C      1  0.3855780000000  0.6842950000000  0.5329890000000 1.0
C      1  0.5329890000000  0.6842950000000  0.6144220000000 1.0
C      1  0.3216410000000  0.4978690000000  0.7130690000000 1.0
C      1  0.6783590000000  0.4978690000000  0.2869310000000 1.0
C      1  0.7130690000000  0.4978690000000  0.6783590000000 1.0
C      1  0.2869310000000  0.4978690000000  0.3216410000000 1.0
END
