TITL C-3036484-3770-559 -4.26224706423846e-06 3375 -347.246742574418 0 0 60 (S4) n - 1
REM
REM in /home/bkarasulu/work/CARBON/AIRSS/Generating-Clusters/REBO/Higher-Symm/Only-C60
REM
REM
REM
REM
REM
REM ./C.cell (a2850807a9bf4ad07a5b6933b78d9264)
REM AIRSS Version 0.9.1 bugfix July 2018 build 013d7b7c2542+ Fri, 06 Jul 2018 19:26:36 +0100
REM compiler GCC version 9.2.1 20190827 (Red Hat 9.2.1-1)
REM options -cpp -mtune=generic -march=x86-64 -g -O0 -fpre-include=/usr/include/finclude/math-vector-fortran.h
REM seed 259381389 810225268 1357807822 1184525918 -477443353 1754943611 -342728979 1229116992 2027212119 -1576651813 -1328772171 -699223216 -422048638 619640329 883539691 992527560 -2057243252 -307797192 -957943014 -1953614752 790127315 553046612 -590298091 -1533227298 314434611 1358563492 1518187099 830844960 -829902542 1174745058 -81384632 1655668348 1903037887
REM
CELL 1.54180   15.00000   15.00000   15.00000   90.00000   90.00000   90.00000
LATT -1
SFAC C  
C      1  0.4938330000000  0.6856890000000  0.7243920000000 1.0
C      1  0.6737010000000  0.7409630000000  0.4605220000000 1.0
C      1  0.7243770000000  0.4889110000000  0.6664650000000 1.0
C      1  0.5060260000000  0.3144790000000  0.7245340000000 1.0
C      1  0.4760520000000  0.3340290000000  0.2745500000000 1.0
C      1  0.5240870000000  0.6658020000000  0.2744400000000 1.0
C      1  0.3263240000000  0.2590080000000  0.4605920000000 1.0
C      1  0.6873400000000  0.2605680000000  0.5402120000000 1.0
C      1  0.3126350000000  0.7394620000000  0.5399160000000 1.0
C      1  0.2755190000000  0.5112130000000  0.6663160000000 1.0
C      1  0.7475490000000  0.5123360000000  0.3321750000000 1.0
C      1  0.2525560000000  0.4875350000000  0.3320290000000 1.0
C      1  0.6658160000000  0.4760660000000  0.7255660000000 1.0
C      1  0.7394600000000  0.6873380000000  0.4599420000000 1.0
C      1  0.4875470000000  0.7475600000000  0.6678010000000 1.0
C      1  0.3340430000000  0.5241020000000  0.7254440000000 1.0
C      1  0.3144660000000  0.4938180000000  0.2754810000000 1.0
C      1  0.6856760000000  0.5060110000000  0.2755940000000 1.0
C      1  0.2605660000000  0.3126330000000  0.4599300000000 1.0
C      1  0.2590100000000  0.6737040000000  0.5393020000000 1.0
C      1  0.7409650000000  0.3263270000000  0.5395840000000 1.0
C      1  0.5123480000000  0.2525670000000  0.6679940000000 1.0
C      1  0.5112020000000  0.7243660000000  0.3335290000000 1.0
C      1  0.4889000000000  0.2755090000000  0.3336900000000 1.0
C      1  0.5057080000000  0.3020780000000  0.4351960000000 1.0
C      1  0.2776430000000  0.4089920000000  0.4942040000000 1.0
C      1  0.4141050000000  0.5096220000000  0.3049900000000 1.0
C      1  0.4943320000000  0.6978750000000  0.4350440000000 1.0
C      1  0.4954330000000  0.7265100000000  0.5648670000000 1.0
C      1  0.5045270000000  0.2735390000000  0.5650390000000 1.0
C      1  0.7223610000000  0.5910040000000  0.4942760000000 1.0
C      1  0.2945730000000  0.5818090000000  0.5036410000000 1.0
C      1  0.7054250000000  0.4181940000000  0.5038310000000 1.0
C      1  0.5860160000000  0.4902310000000  0.3050500000000 1.0
C      1  0.4346170000000  0.5117990000000  0.6996580000000 1.0
C      1  0.5652590000000  0.4883510000000  0.6997070000000 1.0
C      1  0.2735350000000  0.4954290000000  0.4349770000000 1.0
C      1  0.4181940000000  0.2945730000000  0.4963160000000 1.0
C      1  0.4883380000000  0.4346040000000  0.3003390000000 1.0
C      1  0.7265070000000  0.5045230000000  0.4351170000000 1.0
C      1  0.6978780000000  0.5057130000000  0.5649400000000 1.0
C      1  0.3020810000000  0.4943360000000  0.5648200000000 1.0
C      1  0.5818090000000  0.7054250000000  0.4962130000000 1.0
C      1  0.5910040000000  0.2776440000000  0.5058720000000 1.0
C      1  0.4089930000000  0.7223610000000  0.5056490000000 1.0
C      1  0.5117860000000  0.5652460000000  0.3002960000000 1.0
C      1  0.4902430000000  0.4141180000000  0.6950090000000 1.0
C      1  0.5096350000000  0.5860290000000  0.6949510000000 1.0
C      1  0.4626130000000  0.3686020000000  0.5973990000000 1.0
C      1  0.5351750000000  0.4029540000000  0.3917220000000 1.0
C      1  0.4648930000000  0.5969660000000  0.3916270000000 1.0
C      1  0.4029590000000  0.4649000000000  0.6083090000000 1.0
C      1  0.6314660000000  0.4626070000000  0.4026930000000 1.0
C      1  0.6256300000000  0.6119630000000  0.5317020000000 1.0
C      1  0.5969710000000  0.5351810000000  0.6083420000000 1.0
C      1  0.3743500000000  0.3880610000000  0.5317080000000 1.0
C      1  0.6119610000000  0.3743480000000  0.4683770000000 1.0
C      1  0.3880590000000  0.6256290000000  0.4682130000000 1.0
C      1  0.3685970000000  0.5373200000000  0.4025840000000 1.0
C      1  0.5373250000000  0.6314710000000  0.5973230000000 1.0
END
