TITL C-3036485-3770-116 -0.0113204625785775 3375 -348.460376021983 0 0 60 (C1) n - 1
REM
REM in /home/bkarasulu/work/CARBON/AIRSS/Generating-Clusters/REBO/Higher-Symm/Only-C60
REM
REM
REM
REM
REM
REM ./C.cell (a2850807a9bf4ad07a5b6933b78d9264)
REM AIRSS Version 0.9.1 bugfix July 2018 build 013d7b7c2542+ Fri, 06 Jul 2018 19:26:36 +0100
REM compiler GCC version 9.2.1 20190827 (Red Hat 9.2.1-1)
REM options -cpp -mtune=generic -march=x86-64 -g -O0 -fpre-include=/usr/include/finclude/math-vector-fortran.h
REM seed 1139348081 -1597251980 1603188888 1140754973 -1110930062 -1179238798 1354457236 378398084 -145399953 -1341924013 -1958751733 -1178176648 64230567 772103197 1004319759 -775450647 -1775066341 -1218601671 -1558794395 -2011563129 -874206197 448823125 544843545 1636895145 -1618465400 -697098973 -438726281 555973961 -47452642 1338834906 1690306060 -480342928 642486318
REM
CELL 1.54180   15.00000   15.00000   15.00000   90.00000   90.00000   90.00000
LATT -1
SFAC C  
C      1  0.3375390000000  0.3713750000000  0.6795670000000 1.0
C      1  0.6582430000000  0.3202190000000  0.3773210000000 1.0
C      1  0.3366940000000  0.6293970000000  0.3192650000000 1.0
C      1  0.6549150000000  0.6822930000000  0.6226950000000 1.0
C      1  0.5888230000000  0.5014320000000  0.5520520000000 1.0
C      1  0.4154870000000  0.4473500000000  0.4977330000000 1.0
C      1  0.5891200000000  0.4968110000000  0.4468940000000 1.0
C      1  0.4157410000000  0.5534840000000  0.5007710000000 1.0
C      1  0.5733620000000  0.6678770000000  0.6956380000000 1.0
C      1  0.4257180000000  0.3102910000000  0.6672100000000 1.0
C      1  0.5745910000000  0.3279250000000  0.3083700000000 1.0
C      1  0.4252810000000  0.6898130000000  0.3322220000000 1.0
C      1  0.6911800000000  0.3835960000000  0.5316650000000 1.0
C      1  0.3073680000000  0.4725370000000  0.3795260000000 1.0
C      1  0.6895680000000  0.6166670000000  0.4685010000000 1.0
C      1  0.3090680000000  0.5287270000000  0.6201670000000 1.0
C      1  0.7629910000000  0.4062550000000  0.4710340000000 1.0
C      1  0.2366460000000  0.5322090000000  0.4097750000000 1.0
C      1  0.7613060000000  0.5952920000000  0.5295700000000 1.0
C      1  0.2373080000000  0.4698700000000  0.5907180000000 1.0
C      1  0.4709400000000  0.7154330000000  0.4062990000000 1.0
C      1  0.5331580000000  0.5894340000000  0.7168900000000 1.0
C      1  0.4718890000000  0.2831630000000  0.5939750000000 1.0
C      1  0.5350420000000  0.4063770000000  0.2834890000000 1.0
C      1  0.5089040000000  0.4185000000000  0.4497700000000 1.0
C      1  0.4956210000000  0.5477370000000  0.4208000000000 1.0
C      1  0.5094570000000  0.5798310000000  0.5492900000000 1.0
C      1  0.4951680000000  0.4506100000000  0.5781190000000 1.0
C      1  0.5459850000000  0.2885990000000  0.4088520000000 1.0
C      1  0.4488700000000  0.5901060000000  0.2908630000000 1.0
C      1  0.5491050000000  0.7118290000000  0.5942900000000 1.0
C      1  0.4501070000000  0.4099100000000  0.7082320000000 1.0
C      1  0.6216270000000  0.4301300000000  0.6869090000000 1.0
C      1  0.3755890000000  0.3156630000000  0.4216600000000 1.0
C      1  0.6203530000000  0.5688460000000  0.3133480000000 1.0
C      1  0.3777190000000  0.6853480000000  0.5781450000000 1.0
C      1  0.7439240000000  0.4767980000000  0.3910670000000 1.0
C      1  0.2608180000000  0.6089270000000  0.4817410000000 1.0
C      1  0.7422630000000  0.5250280000000  0.6095900000000 1.0
C      1  0.2600530000000  0.3931430000000  0.5183830000000 1.0
C      1  0.2560910000000  0.6336890000000  0.3771690000000 1.0
C      1  0.7400620000000  0.6308870000000  0.6287930000000 1.0
C      1  0.2561770000000  0.3680450000000  0.6228460000000 1.0
C      1  0.7424780000000  0.3711710000000  0.3714500000000 1.0
C      1  0.3360470000000  0.5957890000000  0.5469360000000 1.0
C      1  0.6680130000000  0.4584570000000  0.5984770000000 1.0
C      1  0.3347640000000  0.4056610000000  0.4525430000000 1.0
C      1  0.6682020000000  0.5416370000000  0.4016070000000 1.0
C      1  0.6188120000000  0.6678120000000  0.5157260000000 1.0
C      1  0.3673800000000  0.4788460000000  0.6782010000000 1.0
C      1  0.6202240000000  0.3314370000000  0.4836320000000 1.0
C      1  0.3655870000000  0.5216160000000  0.3206030000000 1.0
C      1  0.5459620000000  0.4251390000000  0.7188490000000 1.0
C      1  0.4487330000000  0.2787530000000  0.4195440000000 1.0
C      1  0.5448610000000  0.5739720000000  0.2813070000000 1.0
C      1  0.4506600000000  0.7224820000000  0.5817830000000 1.0
C      1  0.5072610000000  0.4619800000000  0.3482980000000 1.0
C      1  0.5064580000000  0.6500180000000  0.4624530000000 1.0
C      1  0.5063640000000  0.5354510000000  0.6505360000000 1.0
C      1  0.5083230000000  0.3483270000000  0.5368440000000 1.0
END
