TITL C-3036482-790-31 0.082580214565525 3375 -345.348347362031 0 0 60 (C1) n - 1
REM
REM in /home/bkarasulu/work/CARBON/AIRSS/Generating-Clusters/REBO/Higher-Symm/Only-C60
REM
REM
REM
REM
REM
REM ./C.cell (a2850807a9bf4ad07a5b6933b78d9264)
REM AIRSS Version 0.9.1 bugfix July 2018 build 013d7b7c2542+ Fri, 06 Jul 2018 19:26:36 +0100
REM compiler GCC version 9.2.1 20190827 (Red Hat 9.2.1-1)
REM options -cpp -mtune=generic -march=x86-64 -g -O0 -fpre-include=/usr/include/finclude/math-vector-fortran.h
REM seed -661870857 -1070966158 788372694 1456552519 -974414308 1628667815 1077167973 2117956370 2131379787 1261479161 -422207838 252711371 -240299296 -1404741267 352912491 -1491226457 306468064 -1123854116 -607600969 -1054546119 2110692385 -1306986772 -150763802 -2019953714 -592656466 -1381438599 -405844868 1541174625 849532014 733856588 -1155934542 1528386652 426735866
REM
CELL 1.54180   15.00000   15.00000   15.00000   90.00000   90.00000   90.00000
LATT -1
SFAC C  
C      1  0.5779250000000  0.3843260000000  0.4850880000000 1.0
C      1  0.5790980000000  0.5370670000000  0.6087430000000 1.0
C      1  0.5700060000000  0.5866980000000  0.4001010000000 1.0
C      1  0.3862330000000  0.2771640000000  0.4989310000000 1.0
C      1  0.3877090000000  0.6105840000000  0.6886270000000 1.0
C      1  0.4023200000000  0.6300310000000  0.2909610000000 1.0
C      1  0.4207430000000  0.3603140000000  0.6633650000000 1.0
C      1  0.4214990000000  0.6956780000000  0.5253750000000 1.0
C      1  0.4273000000000  0.4330760000000  0.3004350000000 1.0
C      1  0.6721320000000  0.5816890000000  0.4388160000000 1.0
C      1  0.6813220000000  0.4045320000000  0.4594160000000 1.0
C      1  0.6850990000000  0.5121870000000  0.6035500000000 1.0
C      1  0.4275870000000  0.5292980000000  0.5908770000000 1.0
C      1  0.4180190000000  0.5716800000000  0.4094970000000 1.0
C      1  0.4256820000000  0.4041030000000  0.4899750000000 1.0
C      1  0.3802590000000  0.7075100000000  0.3649150000000 1.0
C      1  0.3434040000000  0.2815010000000  0.3864370000000 1.0
C      1  0.3427880000000  0.5156460000000  0.7474040000000 1.0
C      1  0.5543880000000  0.6265030000000  0.6201570000000 1.0
C      1  0.5518850000000  0.5503610000000  0.3153960000000 1.0
C      1  0.5547020000000  0.3243530000000  0.5528950000000 1.0
C      1  0.6763300000000  0.6062020000000  0.5496420000000 1.0
C      1  0.6819010000000  0.4880600000000  0.3829710000000 1.0
C      1  0.6795650000000  0.4041270000000  0.5688830000000 1.0
C      1  0.6346560000000  0.5186430000000  0.2840050000000 1.0
C      1  0.6362020000000  0.3027520000000  0.5994320000000 1.0
C      1  0.6344510000000  0.6808790000000  0.6262510000000 1.0
C      1  0.6205650000000  0.6895000000000  0.4954860000000 1.0
C      1  0.6152350000000  0.4035550000000  0.3447580000000 1.0
C      1  0.6144180000000  0.4173340000000  0.6614990000000 1.0
C      1  0.3545020000000  0.4215950000000  0.6848890000000 1.0
C      1  0.3590960000000  0.6817050000000  0.4553260000000 1.0
C      1  0.3583890000000  0.3845630000000  0.3413530000000 1.0
C      1  0.5437690000000  0.7476720000000  0.2851590000000 1.0
C      1  0.5178080000000  0.2089650000000  0.3963970000000 1.0
C      1  0.5190620000000  0.5580430000000  0.8016030000000 1.0
C      1  0.6019870000000  0.2400990000000  0.3908060000000 1.0
C      1  0.6033450000000  0.5355380000000  0.7794720000000 1.0
C      1  0.6214010000000  0.7306950000000  0.3277150000000 1.0
C      1  0.5177730000000  0.4240980000000  0.3455440000000 1.0
C      1  0.5175720000000  0.3911680000000  0.6618720000000 1.0
C      1  0.5246510000000  0.6917010000000  0.5078560000000 1.0
C      1  0.4353140000000  0.5667760000000  0.7771170000000 1.0
C      1  0.4549110000000  0.7242840000000  0.2886030000000 1.0
C      1  0.4339780000000  0.2266880000000  0.4146120000000 1.0
C      1  0.4495520000000  0.6351030000000  0.6067750000000 1.0
C      1  0.4475090000000  0.5358450000000  0.3097340000000 1.0
C      1  0.4486140000000  0.3288150000000  0.5664370000000 1.0
C      1  0.6563830000000  0.6879050000000  0.4008380000000 1.0
C      1  0.6475400000000  0.3197100000000  0.3916370000000 1.0
C      1  0.6520680000000  0.4961880000000  0.7119250000000 1.0
C      1  0.3420070000000  0.4983510000000  0.6165230000000 1.0
C      1  0.3258370000000  0.5841420000000  0.4487790000000 1.0
C      1  0.3429920000000  0.4001220000000  0.4442900000000 1.0
C      1  0.2486210000000  0.5397320000000  0.4497530000000 1.0
C      1  0.2830460000000  0.3175720000000  0.4763790000000 1.0
C      1  0.2836770000000  0.5721420000000  0.6675650000000 1.0
C      1  0.5066920000000  0.4792060000000  0.6093790000000 1.0
C      1  0.4939200000000  0.6162760000000  0.4465860000000 1.0
C      1  0.5045630000000  0.4199500000000  0.4411880000000 1.0
END
