TITL C-3036481-494-365 -0.0405904775682958 3375 -345.194725182645 0 0 60 (Td) n - 1
REM
REM in /home/bkarasulu/work/CARBON/AIRSS/Generating-Clusters/REBO/Higher-Symm/Only-C60
REM
REM
REM
REM
REM
REM ./C.cell (a2850807a9bf4ad07a5b6933b78d9264)
REM AIRSS Version 0.9.1 bugfix July 2018 build 013d7b7c2542+ Fri, 06 Jul 2018 19:26:36 +0100
REM compiler GCC version 9.2.1 20190827 (Red Hat 9.2.1-1)
REM options -cpp -mtune=generic -march=x86-64 -g -O0 -fpre-include=/usr/include/finclude/math-vector-fortran.h
REM seed 939198132 -444148515 1982134539 -776612672 1012037584 1246024156 1380176162 -2063286654 -18974289 -2069438904 -2039940322 -1965068531 868911863 119254340 6202349 1808927382 1147454027 -1895071315 -1642613609 1804598635 -1323087385 -1242030533 -674254882 1625739041 -1966322144 -138867895 288821231 -1847117161 1160682138 -404308482 588705240 1817320483 -1453605086
REM
CELL 1.54180   15.00000   15.00000   15.00000   90.00000   90.00000   90.00000
LATT -1
SFAC C  
C      1  0.3689750000000  0.4325530000000  0.2994760000000 1.0
C      1  0.2983460000000  0.3673590000000  0.4353050000000 1.0
C      1  0.4341740000000  0.2967280000000  0.3701070000000 1.0
C      1  0.6336620000000  0.4325520000000  0.7054300000000 1.0
C      1  0.3689740000000  0.5668520000000  0.7054330000000 1.0
C      1  0.6336640000000  0.5668520000000  0.2994750000000 1.0
C      1  0.7043010000000  0.3673610000000  0.5696050000000 1.0
C      1  0.2983400000000  0.6320440000000  0.5696060000000 1.0
C      1  0.7042980000000  0.6320450000000  0.4353030000000 1.0
C      1  0.5684730000000  0.2967250000000  0.6347930000000 1.0
C      1  0.4341720000000  0.7026740000000  0.6347950000000 1.0
C      1  0.5684710000000  0.7026790000000  0.3701090000000 1.0
C      1  0.2983440000000  0.4325520000000  0.3701120000000 1.0
C      1  0.4341680000000  0.3673610000000  0.2994730000000 1.0
C      1  0.3689810000000  0.2967250000000  0.4353000000000 1.0
C      1  0.7042980000000  0.4325530000000  0.6347980000000 1.0
C      1  0.7042980000000  0.5668520000000  0.3701090000000 1.0
C      1  0.2983410000000  0.5668520000000  0.6347990000000 1.0
C      1  0.5684680000000  0.3673590000000  0.7054270000000 1.0
C      1  0.5684710000000  0.6320450000000  0.2994750000000 1.0
C      1  0.4341670000000  0.6320440000000  0.7054330000000 1.0
C      1  0.6336670000000  0.2967280000000  0.5695990000000 1.0
C      1  0.6336640000000  0.7026790000000  0.4353020000000 1.0
C      1  0.3689790000000  0.7026740000000  0.5696010000000 1.0
C      1  0.3876680000000  0.6919420000000  0.4639220000000 1.0
C      1  0.4627900000000  0.3860500000000  0.6946930000000 1.0
C      1  0.6935590000000  0.4611730000000  0.3888000000000 1.0
C      1  0.6149760000000  0.6919400000000  0.5409810000000 1.0
C      1  0.3876670000000  0.3074670000000  0.5409800000000 1.0
C      1  0.6149760000000  0.3074600000000  0.4639210000000 1.0
C      1  0.5398490000000  0.3860470000000  0.3102140000000 1.0
C      1  0.4627910000000  0.6133560000000  0.3102130000000 1.0
C      1  0.5398480000000  0.6133590000000  0.6946910000000 1.0
C      1  0.3090810000000  0.4611740000000  0.6161080000000 1.0
C      1  0.6935600000000  0.5382320000000  0.6161090000000 1.0
C      1  0.3090810000000  0.5382330000000  0.3887990000000 1.0
C      1  0.4627920000000  0.6919400000000  0.3887980000000 1.0
C      1  0.6935590000000  0.3860470000000  0.4639250000000 1.0
C      1  0.3876660000000  0.4611740000000  0.6946930000000 1.0
C      1  0.5398510000000  0.6919420000000  0.6161050000000 1.0
C      1  0.5398520000000  0.3074600000000  0.3887980000000 1.0
C      1  0.4627930000000  0.3074670000000  0.6161060000000 1.0
C      1  0.3090800000000  0.3860500000000  0.5409830000000 1.0
C      1  0.3090820000000  0.6133590000000  0.4639250000000 1.0
C      1  0.6935600000000  0.6133560000000  0.5409820000000 1.0
C      1  0.6149730000000  0.4611730000000  0.3102150000000 1.0
C      1  0.6149740000000  0.5382330000000  0.6946930000000 1.0
C      1  0.3876640000000  0.5382320000000  0.3102140000000 1.0
C      1  0.5013220000000  0.6857600000000  0.5024510000000 1.0
C      1  0.5013220000000  0.3136400000000  0.5024510000000 1.0
C      1  0.5013180000000  0.4997030000000  0.6885150000000 1.0
C      1  0.6873780000000  0.4996990000000  0.5024540000000 1.0
C      1  0.5013200000000  0.4996990000000  0.3163960000000 1.0
C      1  0.3152580000000  0.4997030000000  0.5024550000000 1.0
C      1  0.5013170000000  0.4147120000000  0.5024560000000 1.0
C      1  0.5013200000000  0.5846880000000  0.5024540000000 1.0
C      1  0.5013230000000  0.4996980000000  0.4174660000000 1.0
C      1  0.4163310000000  0.4997040000000  0.5024610000000 1.0
C      1  0.5013130000000  0.4997040000000  0.5874420000000 1.0
C      1  0.5863070000000  0.4996980000000  0.5024500000000 1.0
END
