TITL C-3036484-3770-140 -1.92294585869646e-05 3375 -330.442180018026 0 0 60 (D2) n - 1
REM
REM in /home/bkarasulu/work/CARBON/AIRSS/Generating-Clusters/REBO/Higher-Symm/Only-C60
REM
REM
REM
REM
REM
REM ./C.cell (a2850807a9bf4ad07a5b6933b78d9264)
REM AIRSS Version 0.9.1 bugfix July 2018 build 013d7b7c2542+ Fri, 06 Jul 2018 19:26:36 +0100
REM compiler GCC version 9.2.1 20190827 (Red Hat 9.2.1-1)
REM options -cpp -mtune=generic -march=x86-64 -g -O0 -fpre-include=/usr/include/finclude/math-vector-fortran.h
REM seed 837289359 922476478 1081572015 1197491665 -1123056816 1748498562 1091357840 2066387854 -899663313 -1506691305 -1091883117 -21632744 -707692545 -471520722 1248163293 -272396571 517841684 -1483575159 1372556171 1506486424 -1845092330 -1128707195 -136443116 -1007485301 417379134 -2101955195 1100845214 -1853708102 712204020 -425412094 1358527786 -153919552 819332281
REM
CELL 1.54180   15.00000   15.00000   15.00000   90.00000   90.00000   90.00000
LATT -1
SFAC C  
C      1  0.6851000000000  0.4382220000000  0.3710570000000 1.0
C      1  0.3149000000000  0.4382220000000  0.6289430000000 1.0
C      1  0.6851000000000  0.5617780000000  0.6289430000000 1.0
C      1  0.3149000000000  0.5617780000000  0.3710570000000 1.0
C      1  0.5542980000000  0.4917570000000  0.5907190000000 1.0
C      1  0.4457020000000  0.4917570000000  0.4092810000000 1.0
C      1  0.5542980000000  0.5082430000000  0.4092810000000 1.0
C      1  0.4457020000000  0.5082430000000  0.5907190000000 1.0
C      1  0.4432980000000  0.5037380000000  0.2976790000000 1.0
C      1  0.5567020000000  0.5037380000000  0.7023210000000 1.0
C      1  0.4432980000000  0.4962620000000  0.7023210000000 1.0
C      1  0.5567020000000  0.4962620000000  0.2976790000000 1.0
C      1  0.5573550000000  0.3071880000000  0.5858380000000 1.0
C      1  0.4426450000000  0.3071880000000  0.4141620000000 1.0
C      1  0.5573550000000  0.6928120000000  0.4141620000000 1.0
C      1  0.4426450000000  0.6928120000000  0.5858380000000 1.0
C      1  0.5844310000000  0.3962830000000  0.3434750000000 1.0
C      1  0.4155690000000  0.3962830000000  0.6565250000000 1.0
C      1  0.5844310000000  0.6037170000000  0.6565250000000 1.0
C      1  0.4155690000000  0.6037170000000  0.3434750000000 1.0
C      1  0.6929630000000  0.4545950000000  0.6535930000000 1.0
C      1  0.3070370000000  0.4545950000000  0.3464070000000 1.0
C      1  0.6929630000000  0.5454050000000  0.3464070000000 1.0
C      1  0.3070370000000  0.5454050000000  0.6535930000000 1.0
C      1  0.2762400000000  0.5119090000000  0.5483700000000 1.0
C      1  0.7237600000000  0.5119090000000  0.4516300000000 1.0
C      1  0.2762400000000  0.4880910000000  0.4516300000000 1.0
C      1  0.7237600000000  0.4880910000000  0.5483700000000 1.0
C      1  0.5913740000000  0.2857490000000  0.4837700000000 1.0
C      1  0.4086260000000  0.2857490000000  0.5162300000000 1.0
C      1  0.5913740000000  0.7142510000000  0.5162300000000 1.0
C      1  0.4086260000000  0.7142510000000  0.4837700000000 1.0
C      1  0.5270270000000  0.6032330000000  0.3205010000000 1.0
C      1  0.4729730000000  0.6032330000000  0.6794990000000 1.0
C      1  0.5270270000000  0.3967670000000  0.6794990000000 1.0
C      1  0.4729730000000  0.3967670000000  0.3205010000000 1.0
C      1  0.2852350000000  0.6226580000000  0.5747270000000 1.0
C      1  0.7147650000000  0.6226580000000  0.4252730000000 1.0
C      1  0.2852350000000  0.3773420000000  0.4252730000000 1.0
C      1  0.7147650000000  0.3773420000000  0.5747270000000 1.0
C      1  0.6269320000000  0.6371560000000  0.3545840000000 1.0
C      1  0.3730680000000  0.6371560000000  0.6454160000000 1.0
C      1  0.6269320000000  0.3628440000000  0.6454160000000 1.0
C      1  0.3730680000000  0.3628440000000  0.3545840000000 1.0
C      1  0.3898200000000  0.5520490000000  0.4790590000000 1.0
C      1  0.6101800000000  0.5520490000000  0.5209410000000 1.0
C      1  0.3898200000000  0.4479510000000  0.5209410000000 1.0
C      1  0.6101800000000  0.4479510000000  0.4790590000000 1.0
C      1  0.5381560000000  0.3977280000000  0.5325230000000 1.0
C      1  0.4618440000000  0.3977280000000  0.4674770000000 1.0
C      1  0.5381560000000  0.6022720000000  0.4674770000000 1.0
C      1  0.4618440000000  0.6022720000000  0.5325230000000 1.0
C      1  0.4515060000000  0.3166690000000  0.5931500000000 1.0
C      1  0.5484940000000  0.3166690000000  0.4068500000000 1.0
C      1  0.4515060000000  0.6833310000000  0.4068500000000 1.0
C      1  0.5484940000000  0.6833310000000  0.5931500000000 1.0
C      1  0.3044200000000  0.6160390000000  0.4701680000000 1.0
C      1  0.6955800000000  0.6160390000000  0.5298320000000 1.0
C      1  0.3044200000000  0.3839610000000  0.5298320000000 1.0
C      1  0.6955800000000  0.3839610000000  0.4701680000000 1.0
END
