TITL C-3036485-3770-416 -3.24925138667499e-05 3375 -345.825896021481 0 0 60 (C1) n - 1
REM
REM in /home/bkarasulu/work/CARBON/AIRSS/Generating-Clusters/REBO/Higher-Symm/Only-C60
REM
REM
REM
REM
REM
REM ./C.cell (a2850807a9bf4ad07a5b6933b78d9264)
REM AIRSS Version 0.9.1 bugfix July 2018 build 013d7b7c2542+ Fri, 06 Jul 2018 19:26:36 +0100
REM compiler GCC version 9.2.1 20190827 (Red Hat 9.2.1-1)
REM options -cpp -mtune=generic -march=x86-64 -g -O0 -fpre-include=/usr/include/finclude/math-vector-fortran.h
REM seed 2096210430 -1150341013 1149031527 952377643 1341373799 -1983394337 -371182165 860774510 1874440393 -1758664404 -810981543 1362123245 -1016113297 -1707139509 -1225767841 -172430538 688331482 -1455730946 -1441845122 1572510444 162549347 149214738 735317537 -467902789 -1711532970 -1971383935 736910434 -1321227715 703329122 888951245 456225339 -1679755005 -1146171628
REM
CELL 1.54180   15.00000   15.00000   15.00000   90.00000   90.00000   90.00000
LATT -1
SFAC C  
C      1  0.7175030000000  0.4149220000000  0.4921530000000 1.0
C      1  0.2842010000000  0.4297330000000  0.4919300000000 1.0
C      1  0.3538630000000  0.6669490000000  0.5252620000000 1.0
C      1  0.6439950000000  0.6658180000000  0.5319260000000 1.0
C      1  0.3290500000000  0.4478100000000  0.6622480000000 1.0
C      1  0.6506650000000  0.4382320000000  0.6521070000000 1.0
C      1  0.6835490000000  0.4835390000000  0.4374870000000 1.0
C      1  0.3089160000000  0.4934790000000  0.4266060000000 1.0
C      1  0.5882950000000  0.7311850000000  0.5700650000000 1.0
C      1  0.4091210000000  0.7325790000000  0.5647230000000 1.0
C      1  0.6602300000000  0.3638220000000  0.6067000000000 1.0
C      1  0.3354340000000  0.3746090000000  0.6119550000000 1.0
C      1  0.5852440000000  0.5789720000000  0.2756480000000 1.0
C      1  0.4182770000000  0.5833970000000  0.2680140000000 1.0
C      1  0.4986030000000  0.3857080000000  0.8100080000000 1.0
C      1  0.5125500000000  0.4349370000000  0.6884300000000 1.0
C      1  0.6055100000000  0.2709710000000  0.5860190000000 1.0
C      1  0.4313250000000  0.3298450000000  0.5860680000000 1.0
C      1  0.4131370000000  0.5580610000000  0.4780120000000 1.0
C      1  0.5752310000000  0.5501480000000  0.4765910000000 1.0
C      1  0.3591380000000  0.5515830000000  0.3420640000000 1.0
C      1  0.6355160000000  0.5441840000000  0.3539440000000 1.0
C      1  0.3217070000000  0.6064030000000  0.4347040000000 1.0
C      1  0.6744950000000  0.5966000000000  0.4473050000000 1.0
C      1  0.4271910000000  0.5664220000000  0.7250110000000 1.0
C      1  0.5565070000000  0.5598620000000  0.7139340000000 1.0
C      1  0.6288650000000  0.5710110000000  0.5694930000000 1.0
C      1  0.3627550000000  0.5760790000000  0.5754720000000 1.0
C      1  0.4098080000000  0.3497730000000  0.4083270000000 1.0
C      1  0.5852920000000  0.3417370000000  0.4175870000000 1.0
C      1  0.3946540000000  0.4479930000000  0.3728370000000 1.0
C      1  0.5935370000000  0.4427800000000  0.3846140000000 1.0
C      1  0.4256320000000  0.7237050000000  0.6551380000000 1.0
C      1  0.5669520000000  0.7218530000000  0.6594130000000 1.0
C      1  0.3664090000000  0.5345000000000  0.6594120000000 1.0
C      1  0.6169420000000  0.5257800000000  0.6508260000000 1.0
C      1  0.6521270000000  0.3279310000000  0.4991980000000 1.0
C      1  0.3564360000000  0.3484060000000  0.5028560000000 1.0
C      1  0.5052060000000  0.4276200000000  0.1963950000000 1.0
C      1  0.5003570000000  0.7491770000000  0.5135380000000 1.0
C      1  0.5024700000000  0.7655060000000  0.4120240000000 1.0
C      1  0.4963730000000  0.4733040000000  0.3482890000000 1.0
C      1  0.4828950000000  0.4097540000000  0.5242710000000 1.0
C      1  0.4969720000000  0.6170690000000  0.4363490000000 1.0
C      1  0.5006850000000  0.3339240000000  0.3416420000000 1.0
C      1  0.5131830000000  0.2388120000000  0.5357040000000 1.0
C      1  0.5005910000000  0.6856780000000  0.3673100000000 1.0
C      1  0.5014170000000  0.5120300000000  0.2503370000000 1.0
C      1  0.4938440000000  0.6519600000000  0.7007510000000 1.0
C      1  0.4920680000000  0.4948380000000  0.7799460000000 1.0
C      1  0.4980020000000  0.5654520000000  0.5941020000000 1.0
C      1  0.4948980000000  0.3132350000000  0.4707240000000 1.0
C      1  0.5067600000000  0.2782250000000  0.6419010000000 1.0
C      1  0.4898240000000  0.4864940000000  0.4578590000000 1.0
C      1  0.5087310000000  0.4268350000000  0.1047590000000 1.0
C      1  0.5028380000000  0.6406700000000  0.2837310000000 1.0
C      1  0.5045070000000  0.3528540000000  0.2538430000000 1.0
C      1  0.4987580000000  0.6373940000000  0.5422600000000 1.0
C      1  0.5028070000000  0.4729170000000  0.6065910000000 1.0
C      1  0.5140890000000  0.3386740000000  0.7211200000000 1.0
END
