TITL C-3036481-494-719 5.44255222937178e-07 3375 -342.039586645201 0 0 60 (C3) n - 1
REM
REM in /home/bkarasulu/work/CARBON/AIRSS/Generating-Clusters/REBO/Higher-Symm/Only-C60
REM
REM
REM
REM
REM
REM ./C.cell (a2850807a9bf4ad07a5b6933b78d9264)
REM AIRSS Version 0.9.1 bugfix July 2018 build 013d7b7c2542+ Fri, 06 Jul 2018 19:26:36 +0100
REM compiler GCC version 9.2.1 20190827 (Red Hat 9.2.1-1)
REM options -cpp -mtune=generic -march=x86-64 -g -O0 -fpre-include=/usr/include/finclude/math-vector-fortran.h
REM seed 881734131 -164338852 -2092975507 -751798196 -572106878 -860019600 111367706 -1609622602 203529601 -1802633572 -1434016658 -448247646 -324593387 -1579242594 1989176442 1643595871 -461816414 594526624 -1938052176 1745388932 -400105970 1985844247 -512229772 -70042719 1640345206 -1194693076 605356915 -334443291 1682660015 -1394171850 -1156715086 463221980 -1014606589
REM
CELL 1.54180   15.00000   15.00000   15.00000   90.00000   90.00000   90.00000
LATT -1
SFAC C  
C      1  0.5037680000000  0.7305500000000  0.5433500000000 1.0
C      1  0.2984530000000  0.3879890000000  0.5433450000000 1.0
C      1  0.6977770000000  0.3814610000000  0.5433560000000 1.0
C      1  0.4342850000000  0.5017370000000  0.2747900000000 1.0
C      1  0.5313620000000  0.4422160000000  0.2747930000000 1.0
C      1  0.5343700000000  0.5560480000000  0.2747930000000 1.0
C      1  0.3351650000000  0.4907970000000  0.5745920000000 1.0
C      1  0.5903850000000  0.3618500000000  0.5745990000000 1.0
C      1  0.5744450000000  0.6473520000000  0.5745980000000 1.0
C      1  0.7075710000000  0.3395850000000  0.4381440000000 1.0
C      1  0.5351420000000  0.7599680000000  0.4381390000000 1.0
C      1  0.2572930000000  0.4004490000000  0.4381330000000 1.0
C      1  0.5315720000000  0.5701690000000  0.4351750000000 1.0
C      1  0.4234480000000  0.4922560000000  0.4351720000000 1.0
C      1  0.5449840000000  0.4375740000000  0.4351760000000 1.0
C      1  0.5936740000000  0.5050860000000  0.7327840000000 1.0
C      1  0.4487480000000  0.5785900000000  0.7327820000000 1.0
C      1  0.4575590000000  0.4163240000000  0.7327820000000 1.0
C      1  0.5034520000000  0.3387470000000  0.4255260000000 1.0
C      1  0.6379250000000  0.5836120000000  0.4255300000000 1.0
C      1  0.3586290000000  0.5776390000000  0.4255230000000 1.0
C      1  0.6625390000000  0.6368640000000  0.5147280000000 1.0
C      1  0.3002020000000  0.5723310000000  0.5147190000000 1.0
C      1  0.5372580000000  0.2908030000000  0.5147250000000 1.0
C      1  0.3274250000000  0.3142600000000  0.4613700000000 1.0
C      1  0.7471460000000  0.4434150000000  0.4613820000000 1.0
C      1  0.4254340000000  0.7423260000000  0.4613720000000 1.0
C      1  0.4574570000000  0.6838100000000  0.6270820000000 1.0
C      1  0.3620840000000  0.3712550000000  0.6270800000000 1.0
C      1  0.6804490000000  0.4449360000000  0.6270880000000 1.0
C      1  0.6132460000000  0.4259580000000  0.6891770000000 1.0
C      1  0.5074920000000  0.6351020000000  0.6891750000000 1.0
C      1  0.3792480000000  0.4389420000000  0.6891710000000 1.0
C      1  0.4503660000000  0.6917570000000  0.3635020000000 1.0
C      1  0.3587550000000  0.3611330000000  0.3634990000000 1.0
C      1  0.6908890000000  0.4471110000000  0.3635100000000 1.0
C      1  0.3690630000000  0.6474640000000  0.6299600000000 1.0
C      1  0.4377550000000  0.3128740000000  0.6299610000000 1.0
C      1  0.6931720000000  0.5396600000000  0.6299680000000 1.0
C      1  0.3000560000000  0.6501240000000  0.5645700000000 1.0
C      1  0.4699580000000  0.2517820000000  0.5645730000000 1.0
C      1  0.7299810000000  0.5980930000000  0.5645800000000 1.0
C      1  0.3666740000000  0.5414970000000  0.6704600000000 1.0
C      1  0.5307190000000  0.3637880000000  0.6704630000000 1.0
C      1  0.6025950000000  0.5947130000000  0.6704650000000 1.0
C      1  0.4123260000000  0.6409910000000  0.4936610000000 1.0
C      1  0.4217360000000  0.3535760000000  0.4936610000000 1.0
C      1  0.6659380000000  0.5054320000000  0.4936680000000 1.0
C      1  0.6513400000000  0.3463830000000  0.3516600000000 1.0
C      1  0.5573740000000  0.7078700000000  0.3516570000000 1.0
C      1  0.2912980000000  0.4457490000000  0.3516500000000 1.0
C      1  0.4775520000000  0.5945710000000  0.3600110000000 1.0
C      1  0.4293280000000  0.4332710000000  0.3600090000000 1.0
C      1  0.5931290000000  0.4721590000000  0.3600150000000 1.0
C      1  0.5561290000000  0.3479200000000  0.3329330000000 1.0
C      1  0.6036480000000  0.6246440000000  0.3329340000000 1.0
C      1  0.3402370000000  0.5274360000000  0.3329270000000 1.0
C      1  0.4968460000000  0.6006740000000  0.5165170000000 1.0
C      1  0.4143910000000  0.4469330000000  0.5165140000000 1.0
C      1  0.5887610000000  0.4523930000000  0.5165200000000 1.0
END
