TITL C-3036485-3770-1137 0.0689425959135228 3375 -341.375510151713 0 0 60 (C2v) n - 1
REM
REM in /home/bkarasulu/work/CARBON/AIRSS/Generating-Clusters/REBO/Higher-Symm/Only-C60
REM
REM
REM
REM
REM
REM ./C.cell (a2850807a9bf4ad07a5b6933b78d9264)
REM AIRSS Version 0.9.1 bugfix July 2018 build 013d7b7c2542+ Fri, 06 Jul 2018 19:26:36 +0100
REM compiler GCC version 9.2.1 20190827 (Red Hat 9.2.1-1)
REM options -cpp -mtune=generic -march=x86-64 -g -O0 -fpre-include=/usr/include/finclude/math-vector-fortran.h
REM seed -1885864342 -2100076429 397102229 -1929264484 -816297946 1560358547 456110225 -1111820857 2059815577 -1363173291 387515663 -1100650762 -737118742 1721924865 -1191751249 1821986535 -100855802 -712143726 1500801789 -335834665 1359002277 -1207026760 -25234842 -149456215 1738626004 -363500705 -257264317 1538517060 1043782328 -2068484822 -780453824 -752125290 1662114536
REM
CELL 1.54180   15.00000   15.00000   15.00000   90.00000   90.00000   90.00000
LATT -1
SFAC C  
C      1  0.5050820000000  0.6833300000000  0.3901490000000 1.0
C      1  0.5050870000000  0.3166670000000  0.6098590000000 1.0
C      1  0.5051300000000  0.3166590000000  0.3901060000000 1.0
C      1  0.5051400000000  0.6833400000000  0.6098990000000 1.0
C      1  0.7228740000000  0.4424520000000  0.5542970000000 1.0
C      1  0.7228850000000  0.5575640000000  0.4457040000000 1.0
C      1  0.7228720000000  0.5574710000000  0.5543410000000 1.0
C      1  0.7228570000000  0.4425450000000  0.4456570000000 1.0
C      1  0.4346140000000  0.7271470000000  0.5520600000000 1.0
C      1  0.4345930000000  0.2728630000000  0.4479580000000 1.0
C      1  0.4344850000000  0.2729310000000  0.5519390000000 1.0
C      1  0.4344680000000  0.7270560000000  0.4480800000000 1.0
C      1  0.6207900000000  0.4515210000000  0.5879590000000 1.0
C      1  0.6208050000000  0.5484800000000  0.4120520000000 1.0
C      1  0.6207680000000  0.5484550000000  0.5880190000000 1.0
C      1  0.6207470000000  0.4515450000000  0.4119750000000 1.0
C      1  0.4977910000000  0.5415170000000  0.2200930000000 1.0
C      1  0.4977880000000  0.4584820000000  0.7799100000000 1.0
C      1  0.4977740000000  0.4584930000000  0.2200810000000 1.0
C      1  0.4977770000000  0.5415060000000  0.7799190000000 1.0
C      1  0.2620040000000  0.5458650000000  0.6119850000000 1.0
C      1  0.2620000000000  0.4541350000000  0.3880100000000 1.0
C      1  0.2619960000000  0.4541820000000  0.6120070000000 1.0
C      1  0.2619930000000  0.5458170000000  0.3879880000000 1.0
C      1  0.5964950000000  0.4424140000000  0.6920460000000 1.0
C      1  0.5964950000000  0.5575790000000  0.3079610000000 1.0
C      1  0.5965020000000  0.5576110000000  0.6920820000000 1.0
C      1  0.5964990000000  0.4423820000000  0.3079140000000 1.0
C      1  0.6104490000000  0.6639630000000  0.3522300000000 1.0
C      1  0.6104560000000  0.3360330000000  0.6477730000000 1.0
C      1  0.6105070000000  0.3360190000000  0.3522230000000 1.0
C      1  0.6105160000000  0.6639760000000  0.6477820000000 1.0
C      1  0.3348550000000  0.6926120000000  0.5526980000000 1.0
C      1  0.3348320000000  0.3073900000000  0.4472830000000 1.0
C      1  0.3347110000000  0.3074120000000  0.5528280000000 1.0
C      1  0.3346910000000  0.6925860000000  0.4471520000000 1.0
C      1  0.4126160000000  0.5915400000000  0.6374520000000 1.0
C      1  0.4126120000000  0.4084610000000  0.3625450000000 1.0
C      1  0.4125980000000  0.4084780000000  0.6374780000000 1.0
C      1  0.4125960000000  0.5915190000000  0.3625190000000 1.0
C      1  0.5482950000000  0.6009680000000  0.5490830000000 1.0
C      1  0.5482860000000  0.3990310000000  0.4509210000000 1.0
C      1  0.5482920000000  0.3990290000000  0.5490320000000 1.0
C      1  0.5482920000000  0.6009640000000  0.4509730000000 1.0
C      1  0.4977680000000  0.6138700000000  0.7002900000000 1.0
C      1  0.4977640000000  0.3861250000000  0.2997100000000 1.0
C      1  0.4977780000000  0.3861240000000  0.7002690000000 1.0
C      1  0.4977820000000  0.6138750000000  0.2997350000000 1.0
C      1  0.3235680000000  0.3815930000000  0.3858040000000 1.0
C      1  0.3235730000000  0.6184100000000  0.6141830000000 1.0
C      1  0.3235450000000  0.6183620000000  0.3857310000000 1.0
C      1  0.3235470000000  0.3816330000000  0.6142580000000 1.0
C      1  0.4548940000000  0.5516850000000  0.5563640000000 1.0
C      1  0.4548860000000  0.4483130000000  0.4436340000000 1.0
C      1  0.4548870000000  0.4482930000000  0.5563940000000 1.0
C      1  0.4548860000000  0.5517040000000  0.4436010000000 1.0
C      1  0.6780590000000  0.3371150000000  0.4431800000000 1.0
C      1  0.6780620000000  0.6628960000000  0.5568190000000 1.0
C      1  0.6780440000000  0.6629700000000  0.4431600000000 1.0
C      1  0.6780440000000  0.3370410000000  0.5568410000000 1.0
END
