TITL C-3036483-1610-1114 -1.57413646894063e-06 3375 -348.397662003887 0 0 60 (Ci) n - 1
REM
REM in /home/bkarasulu/work/CARBON/AIRSS/Generating-Clusters/REBO/Higher-Symm/Only-C60
REM
REM
REM
REM
REM
REM ./C.cell (a2850807a9bf4ad07a5b6933b78d9264)
REM AIRSS Version 0.9.1 bugfix July 2018 build 013d7b7c2542+ Fri, 06 Jul 2018 19:26:36 +0100
REM compiler GCC version 9.2.1 20190827 (Red Hat 9.2.1-1)
REM options -cpp -mtune=generic -march=x86-64 -g -O0 -fpre-include=/usr/include/finclude/math-vector-fortran.h
REM seed 1623625017 39758415 -1716404735 2112661921 162742844 -1610456318 -1720306303 1018161978 1320264131 -1419047548 1113089618 -2007908108 -1297344743 -997153098 662034854 1236961973 -1725403273 -1922664438 -2078201818 -1012946987 -993499594 -345734251 1220538631 505258353 -2090089483 -1306701293 -1883918420 -1149532010 -738772471 -196855668 -2079549188 194344549 -794261669
REM
CELL 1.54180   15.00000   15.00000   15.00000   90.00000   90.00000   90.00000
LATT -1
SFAC C  
C      1  0.4437540000000  0.7796290000000  0.3608200000000 1.0
C      1  0.3481290000000  0.2182300000000  0.4685770000000 1.0
C      1  0.4360160000000  0.7658200000000  0.5763640000000 1.0
C      1  0.5567230000000  0.2206220000000  0.6396140000000 1.0
C      1  0.6526770000000  0.7814480000000  0.5309750000000 1.0
C      1  0.5630790000000  0.2302920000000  0.4256340000000 1.0
C      1  0.6147070000000  0.4373460000000  0.6715990000000 1.0
C      1  0.6893700000000  0.5577850000000  0.5072820000000 1.0
C      1  0.5784610000000  0.4397810000000  0.3418550000000 1.0
C      1  0.3850910000000  0.5629380000000  0.3286340000000 1.0
C      1  0.3106480000000  0.4422160000000  0.4925590000000 1.0
C      1  0.4214540000000  0.5603840000000  0.6580650000000 1.0
C      1  0.5857280000000  0.6929770000000  0.5098870000000 1.0
C      1  0.4874250000000  0.3098300000000  0.4211640000000 1.0
C      1  0.3474160000000  0.7289470000000  0.3563440000000 1.0
C      1  0.4147280000000  0.3069530000000  0.4897820000000 1.0
C      1  0.5129540000000  0.6892870000000  0.5781300000000 1.0
C      1  0.6529780000000  0.2715230000000  0.6442980000000 1.0
C      1  0.6548670000000  0.4114950000000  0.4084710000000 1.0
C      1  0.4835070000000  0.5891890000000  0.3056840000000 1.0
C      1  0.3038450000000  0.4147950000000  0.3918050000000 1.0
C      1  0.3448550000000  0.5884680000000  0.5913190000000 1.0
C      1  0.5163760000000  0.4110560000000  0.6946010000000 1.0
C      1  0.6959420000000  0.5853570000000  0.6080810000000 1.0
C      1  0.5871860000000  0.5525680000000  0.3329410000000 1.0
C      1  0.3764540000000  0.4507890000000  0.3130470000000 1.0
C      1  0.2955530000000  0.5545700000000  0.4950230000000 1.0
C      1  0.4129780000000  0.4475520000000  0.6666530000000 1.0
C      1  0.6235740000000  0.5494760000000  0.6871520000000 1.0
C      1  0.7038500000000  0.4453550000000  0.5049150000000 1.0
C      1  0.3393980000000  0.4783270000000  0.5939680000000 1.0
C      1  0.5168760000000  0.5202510000000  0.7052500000000 1.0
C      1  0.7011170000000  0.4743260000000  0.6099430000000 1.0
C      1  0.6608690000000  0.5216970000000  0.4056720000000 1.0
C      1  0.4829410000000  0.4800290000000  0.2950250000000 1.0
C      1  0.2985500000000  0.5257960000000  0.3900200000000 1.0
C      1  0.3319550000000  0.6348260000000  0.3954140000000 1.0
C      1  0.3874110000000  0.3840100000000  0.5524650000000 1.0
C      1  0.5157950000000  0.6150750000000  0.6468430000000 1.0
C      1  0.6673230000000  0.3654210000000  0.6046920000000 1.0
C      1  0.6129090000000  0.6160540000000  0.4471030000000 1.0
C      1  0.4842060000000  0.3852750000000  0.3536640000000 1.0
C      1  0.4676370000000  0.2470360000000  0.6278110000000 1.0
C      1  0.6176380000000  0.7567250000000  0.6241380000000 1.0
C      1  0.6339110000000  0.2457480000000  0.4812610000000 1.0
C      1  0.5328780000000  0.7531640000000  0.3719950000000 1.0
C      1  0.3820900000000  0.2435000000000  0.3750650000000 1.0
C      1  0.3656360000000  0.7538190000000  0.5193690000000 1.0
C      1  0.5827870000000  0.7839520000000  0.4469550000000 1.0
C      1  0.4792840000000  0.2088670000000  0.3626100000000 1.0
C      1  0.3664930000000  0.7993120000000  0.4350300000000 1.0
C      1  0.4178680000000  0.2160970000000  0.5528200000000 1.0
C      1  0.5212070000000  0.7925210000000  0.6354850000000 1.0
C      1  0.6345530000000  0.2007090000000  0.5660080000000 1.0
C      1  0.3787650000000  0.3433030000000  0.3518580000000 1.0
C      1  0.3338440000000  0.6595730000000  0.5060240000000 1.0
C      1  0.4470810000000  0.3440260000000  0.6403290000000 1.0
C      1  0.6212440000000  0.6570490000000  0.6484950000000 1.0
C      1  0.6641490000000  0.3406600000000  0.4941070000000 1.0
C      1  0.5532610000000  0.6561750000000  0.3593100000000 1.0
END
