TITL C-3036485-3770-1066 1.26231903550944e-05 3375 -346.779188278813 0 0 60 (C1) n - 1
REM
REM in /home/bkarasulu/work/CARBON/AIRSS/Generating-Clusters/REBO/Higher-Symm/Only-C60
REM
REM
REM
REM
REM
REM ./C.cell (a2850807a9bf4ad07a5b6933b78d9264)
REM AIRSS Version 0.9.1 bugfix July 2018 build 013d7b7c2542+ Fri, 06 Jul 2018 19:26:36 +0100
REM compiler GCC version 9.2.1 20190827 (Red Hat 9.2.1-1)
REM options -cpp -mtune=generic -march=x86-64 -g -O0 -fpre-include=/usr/include/finclude/math-vector-fortran.h
REM seed 1947710322 -2042243913 1319130106 2040355704 -1631940135 640571079 763279597 -1800171430 698248717 -1983604823 -511673862 -1994008167 2066946040 1099051654 1191153256 -2065264772 -1068344185 -1734726380 2010997925 1964819991 -286878459 1192196223 314348232 -620967736 -1560844608 -816416634 1300798245 1398829249 601179652 1485885225 597701192 741671020 -1586951946
REM
CELL 1.54180   15.00000   15.00000   15.00000   90.00000   90.00000   90.00000
LATT -1
SFAC C  
C      1  0.5492260000000  0.4852020000000  0.7170120000000 1.0
C      1  0.5314280000000  0.6768400000000  0.4244660000000 1.0
C      1  0.6889120000000  0.6393840000000  0.4181860000000 1.0
C      1  0.2996250000000  0.2556530000000  0.6259420000000 1.0
C      1  0.5393080000000  0.4432780000000  0.2786410000000 1.0
C      1  0.2970060000000  0.5402050000000  0.5576440000000 1.0
C      1  0.5408180000000  0.2746490000000  0.6088470000000 1.0
C      1  0.6834260000000  0.4655540000000  0.6195260000000 1.0
C      1  0.4805620000000  0.4370220000000  0.3728440000000 1.0
C      1  0.5251180000000  0.7132200000000  0.5517270000000 1.0
C      1  0.3830930000000  0.6645000000000  0.6225650000000 1.0
C      1  0.6137570000000  0.7043560000000  0.6228310000000 1.0
C      1  0.5516260000000  0.5364680000000  0.2467280000000 1.0
C      1  0.4484030000000  0.6018640000000  0.6631790000000 1.0
C      1  0.3402320000000  0.3238840000000  0.5777030000000 1.0
C      1  0.3277930000000  0.5021200000000  0.3974550000000 1.0
C      1  0.4193220000000  0.4807270000000  0.5133430000000 1.0
C      1  0.4689510000000  0.4114670000000  0.6808040000000 1.0
C      1  0.5897730000000  0.6011360000000  0.5824130000000 1.0
C      1  0.4341180000000  0.7073880000000  0.4156240000000 1.0
C      1  0.3789880000000  0.4394520000000  0.3488960000000 1.0
C      1  0.3268850000000  0.4928170000000  0.6385600000000 1.0
C      1  0.4488910000000  0.6392290000000  0.3272150000000 1.0
C      1  0.3415620000000  0.6748950000000  0.4633910000000 1.0
C      1  0.4103430000000  0.3197420000000  0.3973830000000 1.0
C      1  0.3195610000000  0.6350490000000  0.5492130000000 1.0
C      1  0.6858930000000  0.4386560000000  0.4778180000000 1.0
C      1  0.3811720000000  0.3954520000000  0.4742690000000 1.0
C      1  0.6818310000000  0.4918700000000  0.3770880000000 1.0
C      1  0.6929570000000  0.7200920000000  0.4691150000000 1.0
C      1  0.5326700000000  0.4562400000000  0.4507800000000 1.0
C      1  0.6304480000000  0.4007160000000  0.5591340000000 1.0
C      1  0.5766100000000  0.6046150000000  0.4833110000000 1.0
C      1  0.5725870000000  0.3492920000000  0.3330880000000 1.0
C      1  0.7172980000000  0.5419170000000  0.5764380000000 1.0
C      1  0.5128490000000  0.2980380000000  0.4086960000000 1.0
C      1  0.7206490000000  0.5472940000000  0.4692100000000 1.0
C      1  0.4212240000000  0.2930110000000  0.5050150000000 1.0
C      1  0.6500780000000  0.4686240000000  0.7056800000000 1.0
C      1  0.3717220000000  0.5939740000000  0.3915770000000 1.0
C      1  0.6105860000000  0.6421330000000  0.3606570000000 1.0
C      1  0.4511060000000  0.6546390000000  0.5409160000000 1.0
C      1  0.3565840000000  0.5281670000000  0.7243890000000 1.0
C      1  0.5094020000000  0.4564700000000  0.5622610000000 1.0
C      1  0.6001190000000  0.3372670000000  0.4701760000000 1.0
C      1  0.6237310000000  0.7527120000000  0.5240190000000 1.0
C      1  0.5483790000000  0.3688570000000  0.6224950000000 1.0
C      1  0.3992500000000  0.3486320000000  0.2987920000000 1.0
C      1  0.4866740000000  0.3484290000000  0.2579210000000 1.0
C      1  0.4229950000000  0.5731960000000  0.4874360000000 1.0
C      1  0.6923580000000  0.6262240000000  0.6242700000000 1.0
C      1  0.6591640000000  0.3809130000000  0.3836950000000 1.0
C      1  0.5364520000000  0.6140240000000  0.2982770000000 1.0
C      1  0.2762330000000  0.3841630000000  0.5057730000000 1.0
C      1  0.5242270000000  0.2642680000000  0.5148350000000 1.0
C      1  0.3748320000000  0.4071550000000  0.6307560000000 1.0
C      1  0.2814770000000  0.4832580000000  0.4802890000000 1.0
C      1  0.5249730000000  0.5410410000000  0.6270700000000 1.0
C      1  0.5943020000000  0.5253470000000  0.4347990000000 1.0
C      1  0.4404400000000  0.4972130000000  0.7478240000000 1.0
END
