TITL C-3036486-2224-864 -7.47383544076276e-06 3375 -347.993753369806 0 0 60 (D3) n - 1
REM
REM in /home/bkarasulu/work/CARBON/AIRSS/Generating-Clusters/REBO/Higher-Symm/Only-C60
REM
REM
REM
REM
REM
REM ./C.cell (a2850807a9bf4ad07a5b6933b78d9264)
REM AIRSS Version 0.9.1 bugfix July 2018 build 013d7b7c2542+ Fri, 06 Jul 2018 19:26:36 +0100
REM compiler GCC version 9.2.1 20190827 (Red Hat 9.2.1-1)
REM options -cpp -mtune=generic -march=x86-64 -g -O0 -fpre-include=/usr/include/finclude/math-vector-fortran.h
REM seed -1215887934 -2023919530 1245687489 1335359913 -1930857188 1893301594 -752851586 -1374790762 -1208356846 783282516 614746205 -1550673484 633949888 -526959828 1292489697 655865033 1863497834 1794046692 -1041815150 -133888372 -289191699 -680368172 1544458089 1172334369 -1957213803 1389210440 -797512769 243492791 2057310006 63152343 323040513 -629903663 -10109834
REM
CELL 1.54180   15.00000   15.00000   15.00000   90.00000   90.00000   90.00000
LATT -1
SFAC C  
C      1  0.5577560000000  0.5820870000000  0.5933960000000 1.0
C      1  0.5099620000000  0.6004220000000  0.4070140000000 1.0
C      1  0.4560080000000  0.5908210000000  0.5929860000000 1.0
C      1  0.4174730000000  0.5571240000000  0.4066050000000 1.0
C      1  0.4000340000000  0.5089740000000  0.5933960000000 1.0
C      1  0.4080500000000  0.4584170000000  0.4070140000000 1.0
C      1  0.4433440000000  0.4164910000000  0.5929860000000 1.0
C      1  0.4917920000000  0.3999680000000  0.4066040000000 1.0
C      1  0.5422120000000  0.4089400000000  0.5933960000000 1.0
C      1  0.5819860000000  0.4411610000000  0.4070140000000 1.0
C      1  0.6006500000000  0.4926890000000  0.5929860000000 1.0
C      1  0.5907340000000  0.5429080000000  0.4066040000000 1.0
C      1  0.3429060000000  0.6079350000000  0.6683150000000 1.0
C      1  0.3102220000000  0.5177000000000  0.3316860000000 1.0
C      1  0.3138700000000  0.4113270000000  0.6877550000000 1.0
C      1  0.3808790000000  0.3317200000000  0.3122470000000 1.0
C      1  0.4850730000000  0.3099850000000  0.6683140000000 1.0
C      1  0.5795590000000  0.3267980000000  0.3316860000000 1.0
C      1  0.6698600000000  0.3831420000000  0.6877530000000 1.0
C      1  0.7052940000000  0.4809780000000  0.3122450000000 1.0
C      1  0.6720220000000  0.5820800000000  0.6683140000000 1.0
C      1  0.6102170000000  0.6555020000000  0.3316850000000 1.0
C      1  0.5162730000000  0.7055310000000  0.6877540000000 1.0
C      1  0.4138250000000  0.6873010000000  0.3122460000000 1.0
C      1  0.3113920000000  0.4110720000000  0.5753250000000 1.0
C      1  0.3802060000000  0.3293230000000  0.4246760000000 1.0
C      1  0.4803870000000  0.2833560000000  0.5682970000000 1.0
C      1  0.5931430000000  0.3034210000000  0.4317030000000 1.0
C      1  0.6713180000000  0.3811240000000  0.5753240000000 1.0
C      1  0.7077070000000  0.4815940000000  0.4246750000000 1.0
C      1  0.6974250000000  0.5913360000000  0.5682970000000 1.0
C      1  0.6236710000000  0.6789540000000  0.4317020000000 1.0
C      1  0.5172910000000  0.7078040000000  0.5753240000000 1.0
C      1  0.4120860000000  0.6890830000000  0.4246760000000 1.0
C      1  0.3221870000000  0.6253070000000  0.5682970000000 1.0
C      1  0.2831860000000  0.5176250000000  0.4317030000000 1.0
C      1  0.4843640000000  0.2985880000000  0.4573390000000 1.0
C      1  0.5841560000000  0.3163450000000  0.5426610000000 1.0
C      1  0.6637190000000  0.3838250000000  0.4617390000000 1.0
C      1  0.7001420000000  0.4843860000000  0.5382600000000 1.0
C      1  0.6822460000000  0.5871650000000  0.4573390000000 1.0
C      1  0.6169720000000  0.6647090000000  0.5426600000000 1.0
C      1  0.5187510000000  0.6998720000000  0.4617390000000 1.0
C      1  0.4134510000000  0.6811350000000  0.5382610000000 1.0
C      1  0.3333890000000  0.6142470000000  0.4573400000000 1.0
C      1  0.2988720000000  0.5189470000000  0.5426610000000 1.0
C      1  0.3175300000000  0.4163030000000  0.4617400000000 1.0
C      1  0.3864070000000  0.3344790000000  0.5382610000000 1.0
C      1  0.3622220000000  0.6023160000000  0.3203630000000 1.0
C      1  0.3286580000000  0.5096460000000  0.6796370000000 1.0
C      1  0.3460150000000  0.4245910000000  0.3202660000000 1.0
C      1  0.3994330000000  0.3611340000000  0.6797350000000 1.0
C      1  0.4802800000000  0.3295230000000  0.3203630000000 1.0
C      1  0.5773180000000  0.3467900000000  0.6796370000000 1.0
C      1  0.6422980000000  0.4043500000000  0.3202650000000 1.0
C      1  0.6705460000000  0.4823390000000  0.6797340000000 1.0
C      1  0.6574960000000  0.5681610000000  0.3203630000000 1.0
C      1  0.5940260000000  0.6435640000000  0.6796370000000 1.0
C      1  0.5116860000000  0.6710590000000  0.3202660000000 1.0
C      1  0.4300220000000  0.6565280000000  0.6797340000000 1.0
END
