TITL C-3036483-1610-85 6.43779518076738e-06 3375 -354.091305613497 0 0 60 (Th) n - 1
REM
REM in /home/bkarasulu/work/CARBON/AIRSS/Generating-Clusters/REBO/Higher-Symm/Only-C60
REM
REM
REM
REM
REM
REM ./C.cell (a2850807a9bf4ad07a5b6933b78d9264)
REM AIRSS Version 0.9.1 bugfix July 2018 build 013d7b7c2542+ Fri, 06 Jul 2018 19:26:36 +0100
REM compiler GCC version 9.2.1 20190827 (Red Hat 9.2.1-1)
REM options -cpp -mtune=generic -march=x86-64 -g -O0 -fpre-include=/usr/include/finclude/math-vector-fortran.h
REM seed 366007750 -1270659646 -760274981 1710838428 1457575535 -447512477 -1076817286 -243132160 1372588633 -145170782 -1811250897 -1675622381 -85450577 451775736 1945683827 1967141227 1268627981 -578581244 1144384697 844387354 -1379127940 -1940006916 1725926552 1937952517 -1778229539 1524108255 -2105101314 506770993 462777639 2140489028 2087930518 -314277220 -816930133
REM
CELL 1.54180   15.00000   15.00000   15.00000   90.00000   90.00000   90.00000
LATT -1
SFAC C  
C      1  0.3350140000000  0.2510120000000  0.5426090000000 1.0
C      1  0.2510220000000  0.5426240000000  0.3350040000000 1.0
C      1  0.5426340000000  0.3350200000000  0.2510120000000 1.0
C      1  0.3349990000000  0.7489770000000  0.4573850000000 1.0
C      1  0.6650020000000  0.2510270000000  0.4573670000000 1.0
C      1  0.6649840000000  0.7489840000000  0.5426390000000 1.0
C      1  0.2510180000000  0.4573600000000  0.6649870000000 1.0
C      1  0.7489760000000  0.5426240000000  0.6650010000000 1.0
C      1  0.7489850000000  0.4573920000000  0.3350090000000 1.0
C      1  0.5426140000000  0.6649830000000  0.7489890000000 1.0
C      1  0.4573760000000  0.3349930000000  0.7489710000000 1.0
C      1  0.4573750000000  0.6650040000000  0.2510270000000 1.0
C      1  0.6650010000000  0.2510230000000  0.5426150000000 1.0
C      1  0.7489820000000  0.5426400000000  0.3350130000000 1.0
C      1  0.4573860000000  0.3350170000000  0.2510110000000 1.0
C      1  0.6649860000000  0.7489880000000  0.4573910000000 1.0
C      1  0.3350160000000  0.2510160000000  0.4573600000000 1.0
C      1  0.3349970000000  0.7489730000000  0.5426330000000 1.0
C      1  0.7489790000000  0.4573760000000  0.6649970000000 1.0
C      1  0.2510150000000  0.5426080000000  0.6649910000000 1.0
C      1  0.2510240000000  0.4573750000000  0.3350000000000 1.0
C      1  0.4573660000000  0.6649800000000  0.7489880000000 1.0
C      1  0.5426250000000  0.3349960000000  0.7489730000000 1.0
C      1  0.5426240000000  0.6650070000000  0.2510280000000 1.0
C      1  0.6092180000000  0.3295480000000  0.4164670000000 1.0
C      1  0.3295400000000  0.4164630000000  0.6092040000000 1.0
C      1  0.4164730000000  0.6092170000000  0.3295440000000 1.0
C      1  0.6092040000000  0.6704600000000  0.5835370000000 1.0
C      1  0.3907930000000  0.3295320000000  0.5835160000000 1.0
C      1  0.3907850000000  0.6704610000000  0.4164800000000 1.0
C      1  0.3295390000000  0.5835260000000  0.3907900000000 1.0
C      1  0.6704650000000  0.4164840000000  0.3907880000000 1.0
C      1  0.6704550000000  0.5835270000000  0.6092190000000 1.0
C      1  0.4164740000000  0.3907780000000  0.6704530000000 1.0
C      1  0.5835200000000  0.6092060000000  0.6704670000000 1.0
C      1  0.5835330000000  0.3908000000000  0.3295360000000 1.0
C      1  0.3907960000000  0.3295400000000  0.4164630000000 1.0
C      1  0.6704610000000  0.4164740000000  0.6092100000000 1.0
C      1  0.5835260000000  0.6092220000000  0.3295470000000 1.0
C      1  0.3907820000000  0.6704530000000  0.5835330000000 1.0
C      1  0.6092150000000  0.3295390000000  0.5835200000000 1.0
C      1  0.6092070000000  0.6704680000000  0.4164840000000 1.0
C      1  0.6704600000000  0.5835370000000  0.3907960000000 1.0
C      1  0.3295450000000  0.4164730000000  0.3907820000000 1.0
C      1  0.3295350000000  0.5835160000000  0.6092120000000 1.0
C      1  0.5835270000000  0.3907830000000  0.6704570000000 1.0
C      1  0.4164670000000  0.6092000000000  0.6704640000000 1.0
C      1  0.4164800000000  0.3907940000000  0.3295330000000 1.0
C      1  0.4999980000000  0.4560180000000  0.6642720000000 1.0
C      1  0.4560210000000  0.6642730000000  0.5000070000000 1.0
C      1  0.5000020000000  0.5439810000000  0.3357280000000 1.0
C      1  0.5000050000000  0.4560340000000  0.3357230000000 1.0
C      1  0.4999950000000  0.5439660000000  0.6642760000000 1.0
C      1  0.5439790000000  0.3357270000000  0.4999930000000 1.0
C      1  0.6642750000000  0.5000080000000  0.4560300000000 1.0
C      1  0.6642740000000  0.5000030000000  0.5439770000000 1.0
C      1  0.3357250000000  0.4999920000000  0.5439700000000 1.0
C      1  0.3357270000000  0.4999970000000  0.4560230000000 1.0
C      1  0.4560320000000  0.3357240000000  0.4999910000000 1.0
C      1  0.5439680000000  0.6642760000000  0.5000090000000 1.0
END
