TITL C-3036479-9801-624 -5.38845080483958e-06 3375 -338.16332775704 0 0 60 (C1) n - 1
REM
REM in /home/bkarasulu/work/CARBON/AIRSS/Generating-Clusters/REBO/Higher-Symm/Only-C60
REM
REM
REM
REM
REM
REM ./C.cell (a2850807a9bf4ad07a5b6933b78d9264)
REM AIRSS Version 0.9.1 bugfix July 2018 build 013d7b7c2542+ Fri, 06 Jul 2018 19:26:36 +0100
REM compiler GCC version 9.2.1 20190827 (Red Hat 9.2.1-1)
REM options -cpp -mtune=generic -march=x86-64 -g -O0 -fpre-include=/usr/include/finclude/math-vector-fortran.h
REM seed -1947437923 1598569600 576809673 2124977026 204366353 -1437328780 -1234799296 332232273 -523982021 -963611245 413171516 245136837 -935153360 1127394216 79333870 261614811 1632749811 -921075886 -1781587065 -1747581048 -1616883214 1848761554 -702217643 415115770 1309270666 -1459918004 -1503913977 2062499974 -117814738 -2003387903 363018582 1539231550 -1783600795
REM
CELL 1.54180   15.00000   15.00000   15.00000   90.00000   90.00000   90.00000
LATT -1
SFAC C  
C      1  0.5719180000000  0.3006410000000  0.3755100000000 1.0
C      1  0.6833250000000  0.4315990000000  0.6975000000000 1.0
C      1  0.5783990000000  0.7019260000000  0.3185020000000 1.0
C      1  0.5926440000000  0.4154850000000  0.6391890000000 1.0
C      1  0.3246990000000  0.2387540000000  0.6587090000000 1.0
C      1  0.4545880000000  0.5768210000000  0.4570890000000 1.0
C      1  0.5569080000000  0.5826060000000  0.4429630000000 1.0
C      1  0.4889130000000  0.4041940000000  0.2842110000000 1.0
C      1  0.7058220000000  0.3405740000000  0.6769180000000 1.0
C      1  0.3593210000000  0.3422360000000  0.5126490000000 1.0
C      1  0.3333940000000  0.6372750000000  0.3066400000000 1.0
C      1  0.4416570000000  0.4519230000000  0.6892840000000 1.0
C      1  0.5634320000000  0.4708990000000  0.5624310000000 1.0
C      1  0.3414080000000  0.5063760000000  0.5773760000000 1.0
C      1  0.3626810000000  0.2973150000000  0.6087440000000 1.0
C      1  0.5746810000000  0.6909800000000  0.4215760000000 1.0
C      1  0.4258290000000  0.6605690000000  0.3979110000000 1.0
C      1  0.6585040000000  0.6614100000000  0.4775730000000 1.0
C      1  0.5439740000000  0.3150770000000  0.6258360000000 1.0
C      1  0.3868380000000  0.5292170000000  0.6558380000000 1.0
C      1  0.7172660000000  0.5201850000000  0.5254710000000 1.0
C      1  0.5564130000000  0.5729600000000  0.5899350000000 1.0
C      1  0.5053910000000  0.4800810000000  0.3461860000000 1.0
C      1  0.4467350000000  0.3720070000000  0.6082980000000 1.0
C      1  0.4797210000000  0.7390430000000  0.4595650000000 1.0
C      1  0.2746430000000  0.3563690000000  0.4547450000000 1.0
C      1  0.5366400000000  0.5879760000000  0.6944210000000 1.0
C      1  0.6675270000000  0.4542320000000  0.4115230000000 1.0
C      1  0.6638940000000  0.6592630000000  0.5738370000000 1.0
C      1  0.7285520000000  0.4258010000000  0.5260580000000 1.0
C      1  0.5683760000000  0.5460820000000  0.3152600000000 1.0
C      1  0.4044130000000  0.3954010000000  0.3589080000000 1.0
C      1  0.4543630000000  0.3369510000000  0.4671830000000 1.0
C      1  0.6069700000000  0.3440690000000  0.4553820000000 1.0
C      1  0.6350640000000  0.5310950000000  0.6888470000000 1.0
C      1  0.5581520000000  0.7462920000000  0.5412170000000 1.0
C      1  0.2704590000000  0.5416940000000  0.5289620000000 1.0
C      1  0.3160910000000  0.6871870000000  0.4087650000000 1.0
C      1  0.6992370000000  0.5794750000000  0.4442170000000 1.0
C      1  0.4740920000000  0.3066660000000  0.3732430000000 1.0
C      1  0.6546010000000  0.3035510000000  0.6038800000000 1.0
C      1  0.5209670000000  0.3776150000000  0.7181020000000 1.0
C      1  0.5305790000000  0.6278040000000  0.2798680000000 1.0
C      1  0.4402290000000  0.6083120000000  0.6438830000000 1.0
C      1  0.5269160000000  0.6541320000000  0.5506840000000 1.0
C      1  0.6880870000000  0.5705360000000  0.6061610000000 1.0
C      1  0.5962310000000  0.4986720000000  0.4672410000000 1.0
C      1  0.3176660000000  0.3840200000000  0.3305930000000 1.0
C      1  0.2444150000000  0.5244710000000  0.4391880000000 1.0
C      1  0.5391490000000  0.4881940000000  0.7363140000000 1.0
C      1  0.5296440000000  0.3874010000000  0.4978380000000 1.0
C      1  0.4226190000000  0.6471480000000  0.5403350000000 1.0
C      1  0.4354810000000  0.6340760000000  0.2931160000000 1.0
C      1  0.6562320000000  0.5415970000000  0.3562480000000 1.0
C      1  0.3717490000000  0.7290660000000  0.4945080000000 1.0
C      1  0.2640540000000  0.5930380000000  0.3785130000000 1.0
C      1  0.2341410000000  0.4315160000000  0.4228110000000 1.0
C      1  0.4332590000000  0.4755050000000  0.4344010000000 1.0
C      1  0.4013440000000  0.4412520000000  0.5289600000000 1.0
C      1  0.6797070000000  0.3433870000000  0.5188830000000 1.0
END
