TITL C-3036480-97-334 -5.94203905540821e-07 3375 -330.775768347796 0 0 60 (D2) n - 1
REM
REM in /home/bkarasulu/work/CARBON/AIRSS/Generating-Clusters/REBO/Higher-Symm/Only-C60
REM
REM
REM
REM
REM
REM ./C.cell (a2850807a9bf4ad07a5b6933b78d9264)
REM AIRSS Version 0.9.1 bugfix July 2018 build 013d7b7c2542+ Fri, 06 Jul 2018 19:26:36 +0100
REM compiler GCC version 9.2.1 20190827 (Red Hat 9.2.1-1)
REM options -cpp -mtune=generic -march=x86-64 -g -O0 -fpre-include=/usr/include/finclude/math-vector-fortran.h
REM seed 1333354658 1531679229 692814982 -2138167731 1644921364 1064428944 -344672763 -2013582948 -1422481588 2016059386 1321933262 1937193930 -479679865 -1796780209 -1207317446 -2013554583 274510254 1531206202 -1667061056 -560898871 2143697625 919857015 1786692635 1480604400 1240109453 -924782274 917264792 -388225690 -572885355 371345308 -390458790 -2095190535 1275292778
REM
CELL 1.54180   15.00000   15.00000   15.00000   90.00000   90.00000   90.00000
LATT -1
SFAC C  
C      1  0.4048960000000  0.2937530000000  0.5729110000000 1.0
C      1  0.4048940000000  0.7062460000000  0.4270890000000 1.0
C      1  0.5951060000000  0.2937550000000  0.4270890000000 1.0
C      1  0.5951040000000  0.7062460000000  0.5729120000000 1.0
C      1  0.4133980000000  0.5869720000000  0.3076610000000 1.0
C      1  0.4133980000000  0.4130270000000  0.6923390000000 1.0
C      1  0.5866030000000  0.4130280000000  0.3076610000000 1.0
C      1  0.5866010000000  0.5869730000000  0.6923390000000 1.0
C      1  0.5042760000000  0.5569990000000  0.2818280000000 1.0
C      1  0.5042760000000  0.4430010000000  0.7181720000000 1.0
C      1  0.4957240000000  0.5569990000000  0.7181730000000 1.0
C      1  0.4957250000000  0.4430010000000  0.2818270000000 1.0
C      1  0.4989200000000  0.2675080000000  0.5570660000000 1.0
C      1  0.4989170000000  0.7324920000000  0.4429340000000 1.0
C      1  0.5010800000000  0.7324920000000  0.5570670000000 1.0
C      1  0.5010830000000  0.2675080000000  0.4429330000000 1.0
C      1  0.3202540000000  0.6658270000000  0.5940230000000 1.0
C      1  0.3202570000000  0.3341710000000  0.4059760000000 1.0
C      1  0.6797440000000  0.6658300000000  0.4059770000000 1.0
C      1  0.6797450000000  0.3341720000000  0.5940230000000 1.0
C      1  0.3162110000000  0.5716230000000  0.6421680000000 1.0
C      1  0.3162120000000  0.4283750000000  0.3578310000000 1.0
C      1  0.6837890000000  0.4283770000000  0.6421690000000 1.0
C      1  0.6837880000000  0.5716250000000  0.3578320000000 1.0
C      1  0.4138120000000  0.2803180000000  0.3695740000000 1.0
C      1  0.4138090000000  0.7196810000000  0.6304260000000 1.0
C      1  0.5861900000000  0.2803190000000  0.6304250000000 1.0
C      1  0.5861880000000  0.7196820000000  0.3695750000000 1.0
C      1  0.4054400000000  0.3764760000000  0.3079740000000 1.0
C      1  0.4054390000000  0.6235230000000  0.6920260000000 1.0
C      1  0.5945600000000  0.6235250000000  0.3079750000000 1.0
C      1  0.5945610000000  0.3764760000000  0.6920250000000 1.0
C      1  0.5547180000000  0.5486070000000  0.3790430000000 1.0
C      1  0.5547190000000  0.4513940000000  0.6209570000000 1.0
C      1  0.4452810000000  0.5486060000000  0.6209570000000 1.0
C      1  0.4452820000000  0.4513940000000  0.3790430000000 1.0
C      1  0.5534440000000  0.3632930000000  0.5664460000000 1.0
C      1  0.5534430000000  0.6367070000000  0.4335540000000 1.0
C      1  0.4465550000000  0.6367070000000  0.5664470000000 1.0
C      1  0.4465570000000  0.3632930000000  0.4335530000000 1.0
C      1  0.2895710000000  0.5904450000000  0.5136660000000 1.0
C      1  0.2895720000000  0.4095520000000  0.4863340000000 1.0
C      1  0.7104280000000  0.5904480000000  0.4863340000000 1.0
C      1  0.7104290000000  0.4095550000000  0.5136660000000 1.0
C      1  0.2924780000000  0.4899040000000  0.5664300000000 1.0
C      1  0.2924780000000  0.5100940000000  0.4335690000000 1.0
C      1  0.7075220000000  0.5100960000000  0.5664310000000 1.0
C      1  0.7075220000000  0.4899060000000  0.4335700000000 1.0
C      1  0.3861980000000  0.4626020000000  0.6131660000000 1.0
C      1  0.3861980000000  0.5373960000000  0.3868330000000 1.0
C      1  0.6138020000000  0.4626040000000  0.3868330000000 1.0
C      1  0.6138010000000  0.5373970000000  0.6131670000000 1.0
C      1  0.3835470000000  0.6300990000000  0.4824250000000 1.0
C      1  0.3835480000000  0.3699000000000  0.5175750000000 1.0
C      1  0.6164530000000  0.3699010000000  0.4824240000000 1.0
C      1  0.6164520000000  0.6301000000000  0.5175760000000 1.0
C      1  0.4527470000000  0.5463090000000  0.4708200000000 1.0
C      1  0.5472530000000  0.4536910000000  0.4708200000000 1.0
C      1  0.4527480000000  0.4536900000000  0.5291800000000 1.0
C      1  0.5472520000000  0.5463090000000  0.5291800000000 1.0
END
