TITL C-3036479-9801-197 -4.54913037273696e-06 3375 -346.040740591071 0 0 60 (C1) n - 1
REM
REM in /home/bkarasulu/work/CARBON/AIRSS/Generating-Clusters/REBO/Higher-Symm/Only-C60
REM
REM
REM
REM
REM
REM ./C.cell (a2850807a9bf4ad07a5b6933b78d9264)
REM AIRSS Version 0.9.1 bugfix July 2018 build 013d7b7c2542+ Fri, 06 Jul 2018 19:26:36 +0100
REM compiler GCC version 9.2.1 20190827 (Red Hat 9.2.1-1)
REM options -cpp -mtune=generic -march=x86-64 -g -O0 -fpre-include=/usr/include/finclude/math-vector-fortran.h
REM seed 483189676 343712209 1703760912 1336937612 541017181 1086229544 2058416784 1044744435 -1776282834 -362346192 -180235443 -2127818738 1260840974 -318251429 531403797 -1803670911 -373220388 637403395 -1519919150 519197881 1672458557 -1728680945 1706053958 -1733864561 -174312458 1545680438 1869456271 -366354478 -1824357315 760263242 -648604681 -684525590 -903097962
REM
CELL 1.54180   15.00000   15.00000   15.00000   90.00000   90.00000   90.00000
LATT -1
SFAC C  
C      1  0.5292610000000  0.3627130000000  0.5604590000000 1.0
C      1  0.4271420000000  0.3441990000000  0.5423830000000 1.0
C      1  0.4200870000000  0.3307170000000  0.4374390000000 1.0
C      1  0.5159440000000  0.3172720000000  0.3956980000000 1.0
C      1  0.5838550000000  0.3398500000000  0.4723240000000 1.0
C      1  0.2835350000000  0.5498710000000  0.6146140000000 1.0
C      1  0.3260230000000  0.5522310000000  0.3304290000000 1.0
C      1  0.6100120000000  0.5479890000000  0.2867450000000 1.0
C      1  0.7419300000000  0.5524280000000  0.5415940000000 1.0
C      1  0.5398750000000  0.5541150000000  0.7449460000000 1.0
C      1  0.4137780000000  0.5964220000000  0.3282090000000 1.0
C      1  0.6403770000000  0.5957430000000  0.3672960000000 1.0
C      1  0.6756430000000  0.6023390000000  0.5953950000000 1.0
C      1  0.4662090000000  0.6031850000000  0.6995540000000 1.0
C      1  0.3049700000000  0.5982810000000  0.5306870000000 1.0
C      1  0.5920890000000  0.4529860000000  0.4856810000000 1.0
C      1  0.5408050000000  0.4730690000000  0.5807050000000 1.0
C      1  0.4342560000000  0.4561540000000  0.5639200000000 1.0
C      1  0.4133490000000  0.4438480000000  0.4554010000000 1.0
C      1  0.5143430000000  0.4322380000000  0.4064880000000 1.0
C      1  0.5056160000000  0.3306390000000  0.7228020000000 1.0
C      1  0.2979020000000  0.3224910000000  0.5668440000000 1.0
C      1  0.3671570000000  0.3243560000000  0.3152460000000 1.0
C      1  0.6299990000000  0.3197720000000  0.3237840000000 1.0
C      1  0.7181600000000  0.3298500000000  0.5761570000000 1.0
C      1  0.4226690000000  0.3292060000000  0.7134250000000 1.0
C      1  0.2783560000000  0.3229720000000  0.4868480000000 1.0
C      1  0.4407210000000  0.3224060000000  0.2786490000000 1.0
C      1  0.6836470000000  0.3210720000000  0.3860990000000 1.0
C      1  0.6717420000000  0.3316150000000  0.6455650000000 1.0
C      1  0.5807750000000  0.7294420000000  0.4791980000000 1.0
C      1  0.5470360000000  0.7319230000000  0.5703100000000 1.0
C      1  0.4497930000000  0.7307450000000  0.5665190000000 1.0
C      1  0.4236560000000  0.7281770000000  0.4729120000000 1.0
C      1  0.5045920000000  0.7273230000000  0.4191780000000 1.0
C      1  0.6622520000000  0.6625310000000  0.4574640000000 1.0
C      1  0.5950900000000  0.6684630000000  0.6422320000000 1.0
C      1  0.3966170000000  0.6664940000000  0.6351390000000 1.0
C      1  0.3441560000000  0.6615130000000  0.4441800000000 1.0
C      1  0.5084970000000  0.6594110000000  0.3362730000000 1.0
C      1  0.6925900000000  0.3658420000000  0.4828200000000 1.0
C      1  0.5773990000000  0.3729270000000  0.6601280000000 1.0
C      1  0.3668090000000  0.3664690000000  0.6352360000000 1.0
C      1  0.3200570000000  0.3663110000000  0.4005930000000 1.0
C      1  0.5370670000000  0.3628260000000  0.2951480000000 1.0
C      1  0.5482130000000  0.6020680000000  0.4292060000000 1.0
C      1  0.5880080000000  0.6053470000000  0.5264020000000 1.0
C      1  0.5078090000000  0.6073900000000  0.5952990000000 1.0
C      1  0.4168820000000  0.6049170000000  0.5389340000000 1.0
C      1  0.4432800000000  0.6019730000000  0.4359230000000 1.0
C      1  0.6979900000000  0.4718800000000  0.4790670000000 1.0
C      1  0.5846140000000  0.4790170000000  0.6772540000000 1.0
C      1  0.3590430000000  0.4727960000000  0.6392460000000 1.0
C      1  0.3207830000000  0.4710070000000  0.4049700000000 1.0
C      1  0.5364830000000  0.4668160000000  0.3045390000000 1.0
C      1  0.7241080000000  0.5699690000000  0.4327220000000 1.0
C      1  0.6369500000000  0.5762360000000  0.6945810000000 1.0
C      1  0.3619060000000  0.5726050000000  0.6901730000000 1.0
C      1  0.2768350000000  0.5707170000000  0.4289190000000 1.0
C      1  0.5012590000000  0.5668380000000  0.2700500000000 1.0
END
