TITL C-3036481-494-126 -0.000598093031015219 3375 -349.88678902602 0 0 60 (C1) n - 1
REM
REM in /home/bkarasulu/work/CARBON/AIRSS/Generating-Clusters/REBO/Higher-Symm/Only-C60
REM
REM
REM
REM
REM
REM ./C.cell (a2850807a9bf4ad07a5b6933b78d9264)
REM AIRSS Version 0.9.1 bugfix July 2018 build 013d7b7c2542+ Fri, 06 Jul 2018 19:26:36 +0100
REM compiler GCC version 9.2.1 20190827 (Red Hat 9.2.1-1)
REM options -cpp -mtune=generic -march=x86-64 -g -O0 -fpre-include=/usr/include/finclude/math-vector-fortran.h
REM seed -576093915 971772237 118466220 -561016119 990928729 -2508702 982593106 -1427746377 -2004953000 -1893603424 1228697536 -1507557259 1716771838 1106428087 551767282 1715925196 -733145616 -591137823 1546799726 -813454972 -736518437 2111524058 1145211685 -1265047590 1249780217 841379720 -34517857 -822147215 -1051083602 1011927603 -1825938927 478408735 881286452
REM
CELL 1.54180   15.00000   15.00000   15.00000   90.00000   90.00000   90.00000
LATT -1
SFAC C  
C      1  0.6142710000000  0.5145040000000  0.4773280000000 1.0
C      1  0.3668230000000  0.5313030000000  0.4716740000000 1.0
C      1  0.5605610000000  0.6227100000000  0.6918600000000 1.0
C      1  0.4500060000000  0.6261310000000  0.6959150000000 1.0
C      1  0.5575120000000  0.3311720000000  0.5493200000000 1.0
C      1  0.4533790000000  0.3469150000000  0.5498750000000 1.0
C      1  0.5389960000000  0.5647300000000  0.5740760000000 1.0
C      1  0.4586730000000  0.5666150000000  0.5770710000000 1.0
C      1  0.5848110000000  0.7149840000000  0.3882820000000 1.0
C      1  0.4122330000000  0.7101960000000  0.3918270000000 1.0
C      1  0.6152270000000  0.4109900000000  0.6836220000000 1.0
C      1  0.3845690000000  0.4129100000000  0.6874700000000 1.0
C      1  0.5861740000000  0.2891630000000  0.3871050000000 1.0
C      1  0.4251340000000  0.2904440000000  0.3930990000000 1.0
C      1  0.4541510000000  0.7343730000000  0.5611590000000 1.0
C      1  0.5498360000000  0.7358600000000  0.5587490000000 1.0
C      1  0.5460780000000  0.6496530000000  0.3323330000000 1.0
C      1  0.4519690000000  0.6485740000000  0.3323190000000 1.0
C      1  0.3708040000000  0.5637690000000  0.6333720000000 1.0
C      1  0.6315140000000  0.5615740000000  0.6260670000000 1.0
C      1  0.3886900000000  0.5675600000000  0.3036990000000 1.0
C      1  0.6098450000000  0.5684780000000  0.3095380000000 1.0
C      1  0.5420270000000  0.4285250000000  0.4928990000000 1.0
C      1  0.4296600000000  0.4446510000000  0.4946730000000 1.0
C      1  0.6659100000000  0.4682810000000  0.6262710000000 1.0
C      1  0.3345640000000  0.4709560000000  0.6300880000000 1.0
C      1  0.4130790000000  0.7430090000000  0.4760620000000 1.0
C      1  0.5864530000000  0.7484670000000  0.4722080000000 1.0
C      1  0.4527300000000  0.3980900000000  0.3987080000000 1.0
C      1  0.5552030000000  0.3927160000000  0.3915270000000 1.0
C      1  0.3189770000000  0.5127050000000  0.3747290000000 1.0
C      1  0.6772480000000  0.5136040000000  0.3827760000000 1.0
C      1  0.3127930000000  0.6018090000000  0.5197010000000 1.0
C      1  0.6832900000000  0.5898620000000  0.5066810000000 1.0
C      1  0.4435200000000  0.4541630000000  0.7510550000000 1.0
C      1  0.5509530000000  0.4505200000000  0.7414500000000 1.0
C      1  0.7026950000000  0.4309370000000  0.5458600000000 1.0
C      1  0.3008850000000  0.4350080000000  0.5471310000000 1.0
C      1  0.3745340000000  0.3642740000000  0.2965690000000 1.0
C      1  0.6352350000000  0.3645230000000  0.2900870000000 1.0
C      1  0.5540030000000  0.2907430000000  0.2874280000000 1.0
C      1  0.4531390000000  0.2908180000000  0.2916490000000 1.0
C      1  0.4486070000000  0.5309940000000  0.3949430000000 1.0
C      1  0.5459110000000  0.5255380000000  0.3938470000000 1.0
C      1  0.3144190000000  0.6531770000000  0.6009640000000 1.0
C      1  0.6888950000000  0.6470480000000  0.5844660000000 1.0
C      1  0.4035500000000  0.6924220000000  0.6290090000000 1.0
C      1  0.6042990000000  0.6912470000000  0.6216860000000 1.0
C      1  0.5336550000000  0.5499660000000  0.7649180000000 1.0
C      1  0.4272020000000  0.5544780000000  0.7779550000000 1.0
C      1  0.3135230000000  0.4149310000000  0.3736240000000 1.0
C      1  0.6904560000000  0.4162350000000  0.3740170000000 1.0
C      1  0.6911580000000  0.3781830000000  0.4657190000000 1.0
C      1  0.3154010000000  0.3816900000000  0.4672530000000 1.0
C      1  0.5827520000000  0.4590080000000  0.3082900000000 1.0
C      1  0.4215320000000  0.4599770000000  0.3101350000000 1.0
C      1  0.5952880000000  0.3276470000000  0.6438880000000 1.0
C      1  0.4153400000000  0.3353850000000  0.6442230000000 1.0
C      1  0.6260280000000  0.3093490000000  0.4737160000000 1.0
C      1  0.3838310000000  0.3164570000000  0.4780350000000 1.0
END
