TITL C-3036484-3770-1105 8.14313982453798e-06 3375 -336.603551760929 0 0 60 (C1) n - 1
REM
REM in /home/bkarasulu/work/CARBON/AIRSS/Generating-Clusters/REBO/Higher-Symm/Only-C60
REM
REM
REM
REM
REM
REM ./C.cell (a2850807a9bf4ad07a5b6933b78d9264)
REM AIRSS Version 0.9.1 bugfix July 2018 build 013d7b7c2542+ Fri, 06 Jul 2018 19:26:36 +0100
REM compiler GCC version 9.2.1 20190827 (Red Hat 9.2.1-1)
REM options -cpp -mtune=generic -march=x86-64 -g -O0 -fpre-include=/usr/include/finclude/math-vector-fortran.h
REM seed 1005064009 -2126277195 1807257392 -61901602 1019008153 1883196791 1233183263 -2121900897 -1036654060 -1535408484 -1861729325 -485825296 607962597 1831901155 123775345 -1755960028 -90101666 1786309394 1907022405 -1547974755 1550879401 995075022 -726985905 -1949806676 -708807951 364617419 -1095261899 -2146290953 371960473 -1514052072 -1340031084 -1901999866 -1554869102
REM
CELL 1.54180   15.00000   15.00000   15.00000   90.00000   90.00000   90.00000
LATT -1
SFAC C  
C      1  0.4070880000000  0.5541240000000  0.2911160000000 1.0
C      1  0.3224400000000  0.5317040000000  0.6177880000000 1.0
C      1  0.4770660000000  0.3483070000000  0.6925320000000 1.0
C      1  0.5382810000000  0.2723830000000  0.4942280000000 1.0
C      1  0.4471940000000  0.5805900000000  0.4136850000000 1.0
C      1  0.5145520000000  0.7322030000000  0.5858660000000 1.0
C      1  0.5875320000000  0.7017590000000  0.3808130000000 1.0
C      1  0.6000880000000  0.6116580000000  0.3339970000000 1.0
C      1  0.6636150000000  0.7056730000000  0.4548790000000 1.0
C      1  0.5418460000000  0.4938610000000  0.4449650000000 1.0
C      1  0.5684130000000  0.6238730000000  0.5308090000000 1.0
C      1  0.3954160000000  0.4323320000000  0.5693060000000 1.0
C      1  0.6077470000000  0.5805690000000  0.6722550000000 1.0
C      1  0.4126150000000  0.7091100000000  0.4161400000000 1.0
C      1  0.2824730000000  0.5884100000000  0.4162490000000 1.0
C      1  0.3618570000000  0.6289120000000  0.3639440000000 1.0
C      1  0.3950860000000  0.4872310000000  0.3824250000000 1.0
C      1  0.6391780000000  0.5550480000000  0.5662830000000 1.0
C      1  0.5397370000000  0.3322780000000  0.4127400000000 1.0
C      1  0.6666860000000  0.4624120000000  0.3639330000000 1.0
C      1  0.6028090000000  0.2835210000000  0.5743870000000 1.0
C      1  0.3934590000000  0.6086810000000  0.6381590000000 1.0
C      1  0.6828000000000  0.6134860000000  0.4037880000000 1.0
C      1  0.4528270000000  0.4721380000000  0.4997240000000 1.0
C      1  0.6220900000000  0.7231930000000  0.5492510000000 1.0
C      1  0.4576430000000  0.3976340000000  0.4139790000000 1.0
C      1  0.3991310000000  0.6591510000000  0.5149700000000 1.0
C      1  0.3840760000000  0.3654650000000  0.7065750000000 1.0
C      1  0.6863770000000  0.4361720000000  0.6031510000000 1.0
C      1  0.5767040000000  0.3235610000000  0.3055580000000 1.0
C      1  0.3382300000000  0.3668450000000  0.5452850000000 1.0
C      1  0.3255810000000  0.4403600000000  0.6825720000000 1.0
C      1  0.3113620000000  0.6364100000000  0.5368340000000 1.0
C      1  0.5040930000000  0.2881160000000  0.6212450000000 1.0
C      1  0.5821590000000  0.5092860000000  0.7570820000000 1.0
C      1  0.6140970000000  0.4732770000000  0.4976220000000 1.0
C      1  0.5821880000000  0.4316700000000  0.3001800000000 1.0
C      1  0.2784260000000  0.5340530000000  0.5167960000000 1.0
C      1  0.6002100000000  0.4524690000000  0.6399850000000 1.0
C      1  0.6475700000000  0.3550220000000  0.3859830000000 1.0
C      1  0.4724850000000  0.5830900000000  0.5154660000000 1.0
C      1  0.3033320000000  0.3963710000000  0.3527560000000 1.0
C      1  0.3716730000000  0.2969490000000  0.4906920000000 1.0
C      1  0.4464740000000  0.2561610000000  0.5324790000000 1.0
C      1  0.6794050000000  0.3402360000000  0.5607200000000 1.0
C      1  0.5394820000000  0.4170660000000  0.7196560000000 1.0
C      1  0.5179390000000  0.6937740000000  0.4568870000000 1.0
C      1  0.4905730000000  0.6342830000000  0.6384890000000 1.0
C      1  0.4007740000000  0.3879110000000  0.2951000000000 1.0
C      1  0.7124390000000  0.5242080000000  0.4240140000000 1.0
C      1  0.7363660000000  0.5079010000000  0.5307950000000 1.0
C      1  0.3787090000000  0.3252480000000  0.3893980000000 1.0
C      1  0.6644430000000  0.3958980000000  0.4789810000000 1.0
C      1  0.4456330000000  0.7618010000000  0.5124410000000 1.0
C      1  0.5276790000000  0.5418490000000  0.3509610000000 1.0
C      1  0.5926540000000  0.6836620000000  0.6518110000000 1.0
C      1  0.4793370000000  0.4668490000000  0.2818260000000 1.0
C      1  0.2919720000000  0.4781790000000  0.4189700000000 1.0
C      1  0.5116390000000  0.5246860000000  0.6462900000000 1.0
C      1  0.4262490000000  0.4809340000000  0.6551910000000 1.0
END
