TITL C-3036479-9801-175 1.1949753946758e-05 3375 -345.507071454134 0 0 60 (C5) n - 1
REM
REM in /home/bkarasulu/work/CARBON/AIRSS/Generating-Clusters/REBO/Higher-Symm/Only-C60
REM
REM
REM
REM
REM
REM ./C.cell (a2850807a9bf4ad07a5b6933b78d9264)
REM AIRSS Version 0.9.1 bugfix July 2018 build 013d7b7c2542+ Fri, 06 Jul 2018 19:26:36 +0100
REM compiler GCC version 9.2.1 20190827 (Red Hat 9.2.1-1)
REM options -cpp -mtune=generic -march=x86-64 -g -O0 -fpre-include=/usr/include/finclude/math-vector-fortran.h
REM seed -1433264244 -1149882070 2131382832 -1680706034 1550698291 -1674655371 -1446949157 1012686561 -988106488 -1917127923 1050913239 1570372180 -2023355476 -1211418378 -1300322568 1733077771 834836505 -195407411 -173162186 746144815 -43468159 489231423 1105842953 -1236853147 -846474975 2007920798 1940160775 -2066075202 -1018679519 -885439386 -1328037303 1554259810 -1008012655
REM
CELL 1.54180   15.00000   15.00000   15.00000   90.00000   90.00000   90.00000
LATT -1
SFAC C  
C      1  0.3748200000000  0.4741960000000  0.6881160000000 1.0
C      1  0.6402270000000  0.4741950000000  0.6771840000000 1.0
C      1  0.7118440000000  0.4741970000000  0.4213890000000 1.0
C      1  0.4907000000000  0.4741990000000  0.2742320000000 1.0
C      1  0.2824080000000  0.4741980000000  0.4390780000000 1.0
C      1  0.4084310000000  0.5744930000000  0.5128120000000 1.0
C      1  0.4838880000000  0.5744920000000  0.5910470000000 1.0
C      1  0.5816120000000  0.5744930000000  0.5434590000000 1.0
C      1  0.5665510000000  0.5744930000000  0.4358130000000 1.0
C      1  0.4595190000000  0.5744940000000  0.4168720000000 1.0
C      1  0.4599160000000  0.5443540000000  0.6850050000000 1.0
C      1  0.6635630000000  0.5443550000000  0.5952920000000 1.0
C      1  0.6411720000000  0.5443560000000  0.3738890000000 1.0
C      1  0.4236860000000  0.5443570000000  0.3267670000000 1.0
C      1  0.3116630000000  0.5443560000000  0.5190480000000 1.0
C      1  0.3377170000000  0.4729680000000  0.3436720000000 1.0
C      1  0.3011750000000  0.4729660000000  0.6060320000000 1.0
C      1  0.5394030000000  0.4729650000000  0.7218590000000 1.0
C      1  0.7231770000000  0.4729660000000  0.5310840000000 1.0
C      1  0.5985280000000  0.4729680000000  0.2973510000000 1.0
C      1  0.3080780000000  0.5730020000000  0.3892770000000 1.0
C      1  0.3353890000000  0.5730000000000  0.6483140000000 1.0
C      1  0.5901870000000  0.5729990000000  0.7023870000000 1.0
C      1  0.7203500000000  0.5730000000000  0.4767680000000 1.0
C      1  0.5459970000000  0.5730020000000  0.2832560000000 1.0
C      1  0.3166850000000  0.4117740000000  0.5193690000000 1.0
C      1  0.4617740000000  0.4117720000000  0.6803280000000 1.0
C      1  0.6596900000000  0.4117730000000  0.5920790000000 1.0
C      1  0.6369200000000  0.4117740000000  0.3765790000000 1.0
C      1  0.4249310000000  0.4117750000000  0.3316420000000 1.0
C      1  0.4293360000000  0.6840890000000  0.4406870000000 1.0
C      1  0.4217520000000  0.6840880000000  0.5488780000000 1.0
C      1  0.5223050000000  0.6840870000000  0.5895230000000 1.0
C      1  0.5920330000000  0.6840880000000  0.5064530000000 1.0
C      1  0.5345750000000  0.6840890000000  0.4144670000000 1.0
C      1  0.5593290000000  0.4024440000000  0.4468830000000 1.0
C      1  0.4678170000000  0.4024450000000  0.4271600000000 1.0
C      1  0.4207810000000  0.4024440000000  0.5080990000000 1.0
C      1  0.4832230000000  0.4024440000000  0.5778440000000 1.0
C      1  0.5688500000000  0.4024440000000  0.5400100000000 1.0
C      1  0.6262310000000  0.3045910000000  0.3865160000000 1.0
C      1  0.4310790000000  0.3045920000000  0.3448770000000 1.0
C      1  0.3311730000000  0.3045910000000  0.5176110000000 1.0
C      1  0.4645800000000  0.3045890000000  0.6660050000000 1.0
C      1  0.6469360000000  0.3045900000000  0.5849830000000 1.0
C      1  0.6795620000000  0.6416970000000  0.3315660000000 1.0
C      1  0.3952970000000  0.6416980000000  0.2771780000000 1.0
C      1  0.2557280000000  0.6416960000000  0.5307240000000 1.0
C      1  0.4537350000000  0.6416950000000  0.7418110000000 1.0
C      1  0.7156790000000  0.6416950000000  0.6187250000000 1.0
C      1  0.3315920000000  0.6512220000000  0.5954190000000 1.0
C      1  0.5387080000000  0.6512210000000  0.6896520000000 1.0
C      1  0.6923310000000  0.6512220000000  0.5217940000000 1.0
C      1  0.5801600000000  0.6512240000000  0.3238180000000 1.0
C      1  0.3572110000000  0.6512240000000  0.3693220000000 1.0
C      1  0.5721440000000  0.2651720000000  0.5417380000000 1.0
C      1  0.5619910000000  0.2651730000000  0.4442830000000 1.0
C      1  0.4661680000000  0.2651730000000  0.4238240000000 1.0
C      1  0.4170990000000  0.2651720000000  0.5086350000000 1.0
C      1  0.4825960000000  0.2651720000000  0.5815100000000 1.0
END
