TITL C-3036481-494-403 4.93831172018685e-06 3375 -367.416001281161 0 0 60 (C6) n - 1
REM
REM in /home/bkarasulu/work/CARBON/AIRSS/Generating-Clusters/REBO/Higher-Symm/Only-C60
REM
REM
REM
REM
REM
REM ./C.cell (a2850807a9bf4ad07a5b6933b78d9264)
REM AIRSS Version 0.9.1 bugfix July 2018 build 013d7b7c2542+ Fri, 06 Jul 2018 19:26:36 +0100
REM compiler GCC version 9.2.1 20190827 (Red Hat 9.2.1-1)
REM options -cpp -mtune=generic -march=x86-64 -g -O0 -fpre-include=/usr/include/finclude/math-vector-fortran.h
REM seed 1173704480 1525576822 -1018808931 2113531696 2047100153 -541620041 -649822579 -1166229239 502302289 -331556257 1876089064 -69143201 -2140368727 -1149562122 -618895110 -539780704 -1292983359 1442867348 1536674850 -1326341919 2136992343 1848502378 -1712426945 308708746 -126994982 1031289347 1617401486 1716374717 -493282819 1932725578 1375868957 -233513241 1376622380
REM
CELL 1.54180   15.00000   15.00000   15.00000   90.00000   90.00000   90.00000
LATT -1
SFAC C  
C      1  0.5733700000000  0.2601870000000  0.4429850000000 1.0
C      1  0.7443690000000  0.4436340000000  0.4429850000000 1.0
C      1  0.6709990000000  0.6834480000000  0.4429880000000 1.0
C      1  0.4266290000000  0.7398140000000  0.4429910000000 1.0
C      1  0.2556290000000  0.5563670000000  0.4429910000000 1.0
C      1  0.3290000000000  0.3165530000000  0.4429890000000 1.0
C      1  0.4266180000000  0.2601900000000  0.5570110000000 1.0
C      1  0.2556280000000  0.4436460000000  0.5570140000000 1.0
C      1  0.3290100000000  0.6834560000000  0.5570150000000 1.0
C      1  0.5733830000000  0.7398100000000  0.5570130000000 1.0
C      1  0.7443740000000  0.5563530000000  0.5570100000000 1.0
C      1  0.6709910000000  0.3165430000000  0.5570090000000 1.0
C      1  0.5998190000000  0.4457710000000  0.6381980000000 1.0
C      1  0.5968730000000  0.5593290000000  0.6381990000000 1.0
C      1  0.4970560000000  0.6135570000000  0.6382000000000 1.0
C      1  0.4001850000000  0.5542270000000  0.6382010000000 1.0
C      1  0.4031300000000  0.4406690000000  0.6382000000000 1.0
C      1  0.5029470000000  0.3864410000000  0.6381980000000 1.0
C      1  0.4001790000000  0.4457780000000  0.3618010000000 1.0
C      1  0.4031300000000  0.5593360000000  0.3618020000000 1.0
C      1  0.5029500000000  0.6135590000000  0.3618020000000 1.0
C      1  0.5998180000000  0.5542240000000  0.3618000000000 1.0
C      1  0.5968670000000  0.4406660000000  0.3617990000000 1.0
C      1  0.4970470000000  0.3864430000000  0.3618000000000 1.0
C      1  0.5825380000000  0.2665280000000  0.5484770000000 1.0
C      1  0.7434610000000  0.4547430000000  0.5484760000000 1.0
C      1  0.6609240000000  0.6882140000000  0.5484790000000 1.0
C      1  0.4174640000000  0.7334710000000  0.5484820000000 1.0
C      1  0.2565400000000  0.5452560000000  0.5484820000000 1.0
C      1  0.3390770000000  0.3117850000000  0.5484800000000 1.0
C      1  0.4174500000000  0.2665330000000  0.4515200000000 1.0
C      1  0.2565360000000  0.4547560000000  0.4515230000000 1.0
C      1  0.3390860000000  0.6882240000000  0.4515240000000 1.0
C      1  0.5825490000000  0.7334670000000  0.4515220000000 1.0
C      1  0.7434620000000  0.5452440000000  0.4515180000000 1.0
C      1  0.6609130000000  0.3117770000000  0.4515170000000 1.0
C      1  0.5976180000000  0.5236480000000  0.7458840000000 1.0
C      1  0.5283290000000  0.5963610000000  0.7458850000000 1.0
C      1  0.4307130000000  0.5727100000000  0.7458860000000 1.0
C      1  0.4023870000000  0.4763480000000  0.7458850000000 1.0
C      1  0.4716770000000  0.4036350000000  0.7458840000000 1.0
C      1  0.5692920000000  0.4272860000000  0.7458830000000 1.0
C      1  0.4023830000000  0.5236570000000  0.2541170000000 1.0
C      1  0.4716760000000  0.5963660000000  0.2541170000000 1.0
C      1  0.5692910000000  0.5727110000000  0.2541150000000 1.0
C      1  0.5976120000000  0.4763470000000  0.2541140000000 1.0
C      1  0.5283180000000  0.4036380000000  0.2541140000000 1.0
C      1  0.4307040000000  0.4272930000000  0.2541160000000 1.0
C      1  0.3189540000000  0.4018770000000  0.4052240000000 1.0
C      1  0.4944550000000  0.2941490000000  0.4052210000000 1.0
C      1  0.6754990000000  0.3922740000000  0.4052200000000 1.0
C      1  0.6810440000000  0.5981250000000  0.4052220000000 1.0
C      1  0.5055430000000  0.7058520000000  0.4052250000000 1.0
C      1  0.3244990000000  0.6077280000000  0.4052260000000 1.0
C      1  0.6810410000000  0.4018660000000  0.5947740000000 1.0
C      1  0.5055350000000  0.2941480000000  0.5947750000000 1.0
C      1  0.3244950000000  0.3922810000000  0.5947780000000 1.0
C      1  0.3189610000000  0.5981330000000  0.5947800000000 1.0
C      1  0.4944670000000  0.7058510000000  0.5947790000000 1.0
C      1  0.6755070000000  0.6077170000000  0.5947760000000 1.0
END
