TITL C-3036486-2224-863 0.0147149657842118 3375 -348.569454222209 0 0 60 (Ci) n - 1
REM
REM in /home/bkarasulu/work/CARBON/AIRSS/Generating-Clusters/REBO/Higher-Symm/Only-C60
REM
REM
REM
REM
REM
REM ./C.cell (a2850807a9bf4ad07a5b6933b78d9264)
REM AIRSS Version 0.9.1 bugfix July 2018 build 013d7b7c2542+ Fri, 06 Jul 2018 19:26:36 +0100
REM compiler GCC version 9.2.1 20190827 (Red Hat 9.2.1-1)
REM options -cpp -mtune=generic -march=x86-64 -g -O0 -fpre-include=/usr/include/finclude/math-vector-fortran.h
REM seed 1595507168 1473417512 -1768772024 970498431 -1208153287 1922729379 -721360653 1737423642 -716547834 2029061264 1659207521 -821694556 -1452587013 -2046513049 10081511 -1711078034 1102947133 -404574385 -632939360 1109981969 -406535292 -400998220 -978450678 1034113934 184084873 1702569269 -798534655 2086388753 958360030 -1656201415 1132933045 1568895168 -1171208565
REM
CELL 1.54180   15.00000   15.00000   15.00000   90.00000   90.00000   90.00000
LATT -1
SFAC C  
C      1  0.4347420000000  0.7260760000000  0.4640060000000 1.0
C      1  0.5652510000000  0.2739300000000  0.5359850000000 1.0
C      1  0.6349350000000  0.6270440000000  0.3316920000000 1.0
C      1  0.3650660000000  0.3729470000000  0.6683150000000 1.0
C      1  0.4714170000000  0.5593790000000  0.3311140000000 1.0
C      1  0.5285940000000  0.4406200000000  0.6688770000000 1.0
C      1  0.3340960000000  0.5259840000000  0.3301750000000 1.0
C      1  0.6658950000000  0.4740100000000  0.6698470000000 1.0
C      1  0.5725460000000  0.5463940000000  0.2815800000000 1.0
C      1  0.4274520000000  0.4535970000000  0.7184370000000 1.0
C      1  0.5251620000000  0.6591560000000  0.3332180000000 1.0
C      1  0.4748350000000  0.3408310000000  0.6667810000000 1.0
C      1  0.3912910000000  0.6438000000000  0.6153370000000 1.0
C      1  0.6086980000000  0.3561810000000  0.3846270000000 1.0
C      1  0.3924830000000  0.4593940000000  0.4765670000000 1.0
C      1  0.6075140000000  0.5406080000000  0.5234310000000 1.0
C      1  0.6885590000000  0.5714800000000  0.4827330000000 1.0
C      1  0.3114370000000  0.4285300000000  0.5172740000000 1.0
C      1  0.4597280000000  0.4191550000000  0.3013680000000 1.0
C      1  0.5402620000000  0.5808470000000  0.6986360000000 1.0
C      1  0.5610890000000  0.4944230000000  0.5901430000000 1.0
C      1  0.4388970000000  0.5055900000000  0.4098580000000 1.0
C      1  0.6378110000000  0.5658650000000  0.6721310000000 1.0
C      1  0.3621760000000  0.4341290000000  0.3278700000000 1.0
C      1  0.5283040000000  0.7467850000000  0.4817980000000 1.0
C      1  0.4716880000000  0.2532180000000  0.5182000000000 1.0
C      1  0.5034090000000  0.3748370000000  0.3858610000000 1.0
C      1  0.4965880000000  0.6251680000000  0.6141390000000 1.0
C      1  0.3859650000000  0.3025450000000  0.4754000000000 1.0
C      1  0.6140280000000  0.6974600000000  0.5246040000000 1.0
C      1  0.4261000000000  0.6748470000000  0.3800160000000 1.0
C      1  0.5738990000000  0.3251510000000  0.6199800000000 1.0
C      1  0.5972410000000  0.4685260000000  0.3949230000000 1.0
C      1  0.4027710000000  0.5314590000000  0.6050560000000 1.0
C      1  0.5827290000000  0.7244210000000  0.3996700000000 1.0
C      1  0.4172640000000  0.2755770000000  0.6003330000000 1.0
C      1  0.7226380000000  0.5034130000000  0.4233310000000 1.0
C      1  0.2773680000000  0.4966030000000  0.5766770000000 1.0
C      1  0.6436750000000  0.3946460000000  0.6198090000000 1.0
C      1  0.3563150000000  0.6053510000000  0.3802050000000 1.0
C      1  0.6694250000000  0.5209870000000  0.3331500000000 1.0
C      1  0.3305920000000  0.4790100000000  0.6668460000000 1.0
C      1  0.4865840000000  0.5339220000000  0.7539710000000 1.0
C      1  0.5134180000000  0.4660710000000  0.2460300000000 1.0
C      1  0.3282870000000  0.3361050000000  0.5673370000000 1.0
C      1  0.6717090000000  0.6639020000000  0.4326680000000 1.0
C      1  0.3578890000000  0.5881130000000  0.4760560000000 1.0
C      1  0.6421480000000  0.4118860000000  0.5239470000000 1.0
C      1  0.3735690000000  0.7204480000000  0.5354750000000 1.0
C      1  0.6264160000000  0.2795470000000  0.4645070000000 1.0
C      1  0.7125770000000  0.3245600000000  0.4150340000000 1.0
C      1  0.2874000000000  0.6754720000000  0.5849820000000 1.0
C      1  0.2858620000000  0.5839910000000  0.5405010000000 1.0
C      1  0.7141740000000  0.4160290000000  0.4595200000000 1.0
C      1  0.3980360000000  0.3526310000000  0.3974920000000 1.0
C      1  0.6019600000000  0.6473740000000  0.6025120000000 1.0
C      1  0.4673710000000  0.4549500000000  0.5515080000000 1.0
C      1  0.5326400000000  0.5450370000000  0.4484660000000 1.0
C      1  0.5438700000000  0.4171880000000  0.4831380000000 1.0
C      1  0.4561570000000  0.5827980000000  0.5168580000000 1.0
END
