TITL C-3036482-790-948 5.29445120156976e-06 3375 -361.796839127847 0 0 60 (C1) n - 1
REM
REM in /home/bkarasulu/work/CARBON/AIRSS/Generating-Clusters/REBO/Higher-Symm/Only-C60
REM
REM
REM
REM
REM
REM ./C.cell (a2850807a9bf4ad07a5b6933b78d9264)
REM AIRSS Version 0.9.1 bugfix July 2018 build 013d7b7c2542+ Fri, 06 Jul 2018 19:26:36 +0100
REM compiler GCC version 9.2.1 20190827 (Red Hat 9.2.1-1)
REM options -cpp -mtune=generic -march=x86-64 -g -O0 -fpre-include=/usr/include/finclude/math-vector-fortran.h
REM seed -1992234815 1668547169 -1863592119 -637328705 -1413230882 1232852811 180188306 -1169647394 2035102946 -1287531070 -218532374 342024668 1180121413 -273000300 1666750171 1879806214 1928412063 631088573 -1095401611 218811160 1567432115 1176750475 822780451 2099552943 1367339702 -954115757 -300092934 -1522248366 -46523832 -1036295639 -1589731629 408765502 -1699814300
REM
CELL 1.54180   15.00000   15.00000   15.00000   90.00000   90.00000   90.00000
LATT -1
SFAC C  
C      1  0.3818150000000  0.6878270000000  0.4518360000000 1.0
C      1  0.4585520000000  0.3938570000000  0.6905140000000 1.0
C      1  0.6839870000000  0.4636580000000  0.3926260000000 1.0
C      1  0.3822790000000  0.3048510000000  0.5512680000000 1.0
C      1  0.6178400000000  0.3023170000000  0.4491270000000 1.0
C      1  0.5955000000000  0.6669750000000  0.5385160000000 1.0
C      1  0.4609870000000  0.6160710000000  0.3029090000000 1.0
C      1  0.5412820000000  0.6044250000000  0.7127480000000 1.0
C      1  0.5462960000000  0.3903120000000  0.3082420000000 1.0
C      1  0.6913720000000  0.5413430000000  0.6138710000000 1.0
C      1  0.3081770000000  0.5451160000000  0.3813600000000 1.0
C      1  0.3216060000000  0.4685240000000  0.6080950000000 1.0
C      1  0.3980850000000  0.4618940000000  0.6903910000000 1.0
C      1  0.4491680000000  0.6900280000000  0.3878740000000 1.0
C      1  0.6938410000000  0.3840390000000  0.4606140000000 1.0
C      1  0.3919650000000  0.5341660000000  0.3078490000000 1.0
C      1  0.6094290000000  0.4557600000000  0.3084040000000 1.0
C      1  0.6133230000000  0.5283770000000  0.6945570000000 1.0
C      1  0.4657920000000  0.3258430000000  0.6021370000000 1.0
C      1  0.5328000000000  0.6739800000000  0.6241930000000 1.0
C      1  0.5353360000000  0.3265280000000  0.3983750000000 1.0
C      1  0.6869100000000  0.6057090000000  0.5501850000000 1.0
C      1  0.3104030000000  0.3898090000000  0.5393700000000 1.0
C      1  0.3077160000000  0.6120440000000  0.4436910000000 1.0
C      1  0.6910180000000  0.6361050000000  0.4515560000000 1.0
C      1  0.4277620000000  0.7077840000000  0.6304480000000 1.0
C      1  0.6272680000000  0.4192970000000  0.7116140000000 1.0
C      1  0.7065640000000  0.3770300000000  0.5708060000000 1.0
C      1  0.2974080000000  0.3829250000000  0.4287490000000 1.0
C      1  0.3026980000000  0.6355400000000  0.5448040000000 1.0
C      1  0.4293400000000  0.2942420000000  0.3818950000000 1.0
C      1  0.5715530000000  0.2912450000000  0.6181360000000 1.0
C      1  0.5495900000000  0.6926310000000  0.3663730000000 1.0
C      1  0.6357570000000  0.5551060000000  0.3090530000000 1.0
C      1  0.3693540000000  0.5616640000000  0.6899160000000 1.0
C      1  0.3782200000000  0.4239710000000  0.2874460000000 1.0
C      1  0.6967270000000  0.4414070000000  0.6383910000000 1.0
C      1  0.4322240000000  0.6325690000000  0.7000570000000 1.0
C      1  0.6163520000000  0.7059710000000  0.4338120000000 1.0
C      1  0.7062730000000  0.5732520000000  0.3822250000000 1.0
C      1  0.3073890000000  0.4454710000000  0.3595340000000 1.0
C      1  0.2954830000000  0.5762190000000  0.6178040000000 1.0
C      1  0.4473180000000  0.3612340000000  0.3050810000000 1.0
C      1  0.5721120000000  0.6230370000000  0.2946680000000 1.0
C      1  0.5557520000000  0.3593980000000  0.6940280000000 1.0
C      1  0.6369520000000  0.3044590000000  0.5506390000000 1.0
C      1  0.3734830000000  0.7104620000000  0.5548660000000 1.0
C      1  0.3643590000000  0.3082950000000  0.4493230000000 1.0
C      1  0.5014920000000  0.5504120000000  0.3811750000000 1.0
C      1  0.4089730000000  0.5288580000000  0.5670680000000 1.0
C      1  0.5003020000000  0.5447100000000  0.6269370000000 1.0
C      1  0.6153410000000  0.4490330000000  0.5055220000000 1.0
C      1  0.5361190000000  0.6054150000000  0.4661840000000 1.0
C      1  0.4313320000000  0.4762050000000  0.3975440000000 1.0
C      1  0.5723630000000  0.4735330000000  0.6032080000000 1.0
C      1  0.5940730000000  0.5210870000000  0.4310240000000 1.0
C      1  0.5270930000000  0.3932400000000  0.5452880000000 1.0
C      1  0.4753830000000  0.3951830000000  0.4553130000000 1.0
C      1  0.4734480000000  0.6149220000000  0.5464360000000 1.0
C      1  0.3886620000000  0.4546340000000  0.4943230000000 1.0
END
