TITL C-3036483-1610-92 0.0969251938616185 3375 -334.686738351389 0 0 60 (S10) n - 1
REM
REM in /home/bkarasulu/work/CARBON/AIRSS/Generating-Clusters/REBO/Higher-Symm/Only-C60
REM
REM
REM
REM
REM
REM ./C.cell (a2850807a9bf4ad07a5b6933b78d9264)
REM AIRSS Version 0.9.1 bugfix July 2018 build 013d7b7c2542+ Fri, 06 Jul 2018 19:26:36 +0100
REM compiler GCC version 9.2.1 20190827 (Red Hat 9.2.1-1)
REM options -cpp -mtune=generic -march=x86-64 -g -O0 -fpre-include=/usr/include/finclude/math-vector-fortran.h
REM seed -1631755901 1652467806 -187802009 852329827 1134541792 146815745 201880597 1893770769 115763607 2091930462 1255689896 -2080004119 538801025 497123783 707694503 837227257 -820450460 -540498757 2015553048 -559409954 -201569801 -579731953 -961948892 -1895834319 1906755607 -582860614 1782145313 -156405203 121338343 1209295465 700516139 1440821615 -1436916977
REM
CELL 1.54180   15.00000   15.00000   15.00000   90.00000   90.00000   90.00000
LATT -1
SFAC C  
C      1  0.6806430000000  0.5737860000000  0.3431280000000 1.0
C      1  0.3193760000000  0.4674780000000  0.3297590000000 1.0
C      1  0.6806160000000  0.3735410000000  0.3813200000000 1.0
C      1  0.3193810000000  0.3280570000000  0.4782510000000 1.0
C      1  0.6806470000000  0.3481380000000  0.5834900000000 1.0
C      1  0.3193480000000  0.4262640000000  0.6568600000000 1.0
C      1  0.6806200000000  0.5325620000000  0.6703050000000 1.0
C      1  0.3193140000000  0.6263830000000  0.6185900000000 1.0
C      1  0.6805910000000  0.6719150000000  0.5217770000000 1.0
C      1  0.3193610000000  0.6518910000000  0.4164470000000 1.0
C      1  0.4930830000000  0.5950810000000  0.3474530000000 1.0
C      1  0.5069400000000  0.4872710000000  0.3206840000000 1.0
C      1  0.4930780000000  0.3843540000000  0.3624120000000 1.0
C      1  0.5069180000000  0.3254940000000  0.4566670000000 1.0
C      1  0.4931120000000  0.3333520000000  0.5674810000000 1.0
C      1  0.5069550000000  0.4049150000000  0.6525600000000 1.0
C      1  0.4931080000000  0.5126490000000  0.6793070000000 1.0
C      1  0.5069160000000  0.6156570000000  0.6375650000000 1.0
C      1  0.4930560000000  0.6745400000000  0.5433130000000 1.0
C      1  0.5069160000000  0.6666590000000  0.4325160000000 1.0
C      1  0.5843230000000  0.3302720000000  0.3493280000000 1.0
C      1  0.4157110000000  0.2741000000000  0.4778240000000 1.0
C      1  0.5843740000000  0.3042900000000  0.6149030000000 1.0
C      1  0.4156640000000  0.4091320000000  0.7080150000000 1.0
C      1  0.5842850000000  0.5487490000000  0.7216790000000 1.0
C      1  0.4156460000000  0.6697170000000  0.6506510000000 1.0
C      1  0.5843210000000  0.7259110000000  0.5221610000000 1.0
C      1  0.4156910000000  0.6957250000000  0.3851280000000 1.0
C      1  0.5843200000000  0.5908390000000  0.2919600000000 1.0
C      1  0.4157060000000  0.4512510000000  0.2782860000000 1.0
C      1  0.2676630000000  0.4676560000000  0.5733180000000 1.0
C      1  0.7322430000000  0.5169000000000  0.5782710000000 1.0
C      1  0.2676670000000  0.5597430000000  0.5534970000000 1.0
C      1  0.7322990000000  0.5797170000000  0.5081870000000 1.0
C      1  0.2676960000000  0.5692360000000  0.4596780000000 1.0
C      1  0.7322950000000  0.5323660000000  0.4267180000000 1.0
C      1  0.2677300000000  0.4831400000000  0.4217680000000 1.0
C      1  0.7322660000000  0.4402560000000  0.4465470000000 1.0
C      1  0.2676980000000  0.4202350000000  0.4918630000000 1.0
C      1  0.7323260000000  0.4307220000000  0.5402400000000 1.0
C      1  0.3112970000000  0.3648280000000  0.3789840000000 1.0
C      1  0.6887100000000  0.3195020000000  0.4815700000000 1.0
C      1  0.3112760000000  0.3431180000000  0.5911130000000 1.0
C      1  0.6886190000000  0.4267790000000  0.6658980000000 1.0
C      1  0.3113250000000  0.5382530000000  0.6773780000000 1.0
C      1  0.6887320000000  0.6352040000000  0.6210460000000 1.0
C      1  0.3113210000000  0.6803960000000  0.5184820000000 1.0
C      1  0.6887360000000  0.6568420000000  0.4088770000000 1.0
C      1  0.3113460000000  0.5733050000000  0.3340630000000 1.0
C      1  0.6886490000000  0.4617510000000  0.3226800000000 1.0
C      1  0.3948320000000  0.7187120000000  0.5598210000000 1.0
C      1  0.6052240000000  0.7120400000000  0.4199260000000 1.0
C      1  0.3948280000000  0.6244850000000  0.3105060000000 1.0
C      1  0.6051930000000  0.4893440000000  0.2735470000000 1.0
C      1  0.3948050000000  0.3582400000000  0.3229860000000 1.0
C      1  0.6051580000000  0.2813120000000  0.4401590000000 1.0
C      1  0.3948030000000  0.2879440000000  0.5800790000000 1.0
C      1  0.6052320000000  0.3755630000000  0.6894590000000 1.0
C      1  0.3948440000000  0.5106630000000  0.7264800000000 1.0
C      1  0.6051670000000  0.6417720000000  0.6770400000000 1.0
END
