TITL C-3036485-3770-391 -2.4113231775906e-06 3375 -346.411008803086 0 0 60 (Ci) n - 1
REM
REM in /home/bkarasulu/work/CARBON/AIRSS/Generating-Clusters/REBO/Higher-Symm/Only-C60
REM
REM
REM
REM
REM
REM ./C.cell (a2850807a9bf4ad07a5b6933b78d9264)
REM AIRSS Version 0.9.1 bugfix July 2018 build 013d7b7c2542+ Fri, 06 Jul 2018 19:26:36 +0100
REM compiler GCC version 9.2.1 20190827 (Red Hat 9.2.1-1)
REM options -cpp -mtune=generic -march=x86-64 -g -O0 -fpre-include=/usr/include/finclude/math-vector-fortran.h
REM seed 113560146 -35827743 1771942136 -846055643 80567529 1404574984 -1557983550 -1602162426 1010244061 -245336697 -756932936 1390455169 354063220 -2028297117 -1132787577 -539544977 -453164804 129209206 1655515237 -716915880 1561499271 1419883051 912682208 -1492329411 1708146269 -1734426170 57034577 -68449150 2097331304 212082925 749318379 1989707068 -351372330
REM
CELL 1.54180   15.00000   15.00000   15.00000   90.00000   90.00000   90.00000
LATT -1
SFAC C  
C      1  0.2859860000000  0.6093420000000  0.5051000000000 1.0
C      1  0.3902450000000  0.3923360000000  0.3205680000000 1.0
C      1  0.6047170000000  0.6095920000000  0.3101710000000 1.0
C      1  0.7140140000000  0.3906580000000  0.4949000000000 1.0
C      1  0.6097550000000  0.6076640000000  0.6794320000000 1.0
C      1  0.3952830000000  0.3904080000000  0.6898290000000 1.0
C      1  0.4020400000000  0.4559650000000  0.2444820000000 1.0
C      1  0.6756650000000  0.5438510000000  0.2838770000000 1.0
C      1  0.7732100000000  0.4543170000000  0.5430720000000 1.0
C      1  0.5979600000000  0.5440350000000  0.7555180000000 1.0
C      1  0.3243350000000  0.4561490000000  0.7161230000000 1.0
C      1  0.2267900000000  0.5456830000000  0.4569280000000 1.0
C      1  0.7048640000000  0.5975420000000  0.4807560000000 1.0
C      1  0.6130700000000  0.4012560000000  0.6609360000000 1.0
C      1  0.4149930000000  0.5976160000000  0.6807760000000 1.0
C      1  0.2951360000000  0.4024580000000  0.5192440000000 1.0
C      1  0.3869300000000  0.5987440000000  0.3390640000000 1.0
C      1  0.5850070000000  0.4023840000000  0.3192240000000 1.0
C      1  0.5611710000000  0.4811450000000  0.5674180000000 1.0
C      1  0.4699700000000  0.5193100000000  0.5883020000000 1.0
C      1  0.4077930000000  0.4735550000000  0.5181380000000 1.0
C      1  0.4388290000000  0.5188550000000  0.4325820000000 1.0
C      1  0.5300300000000  0.4806900000000  0.4116980000000 1.0
C      1  0.5922070000000  0.5264450000000  0.4818620000000 1.0
C      1  0.3797090000000  0.6977090000000  0.5317690000000 1.0
C      1  0.4220200000000  0.3144370000000  0.4217980000000 1.0
C      1  0.5291030000000  0.6695590000000  0.4008570000000 1.0
C      1  0.6202910000000  0.3022910000000  0.4682310000000 1.0
C      1  0.5779800000000  0.6855630000000  0.5782020000000 1.0
C      1  0.4708970000000  0.3304410000000  0.5991430000000 1.0
C      1  0.3119710000000  0.5097240000000  0.5529350000000 1.0
C      1  0.3609280000000  0.4913800000000  0.3661210000000 1.0
C      1  0.5498130000000  0.5101620000000  0.3114290000000 1.0
C      1  0.6880290000000  0.4902760000000  0.4470650000000 1.0
C      1  0.6390720000000  0.5086200000000  0.6338790000000 1.0
C      1  0.4501870000000  0.4898380000000  0.6885710000000 1.0
C      1  0.5771420000000  0.6292580000000  0.4912950000000 1.0
C      1  0.5496510000000  0.3814530000000  0.5462790000000 1.0
C      1  0.4618310000000  0.6242360000000  0.5598670000000 1.0
C      1  0.4228580000000  0.3707420000000  0.5087050000000 1.0
C      1  0.4503490000000  0.6185470000000  0.4537210000000 1.0
C      1  0.5381690000000  0.3757640000000  0.4401330000000 1.0
C      1  0.3278790000000  0.3721570000000  0.4142800000000 1.0
C      1  0.4923010000000  0.6296660000000  0.3081130000000 1.0
C      1  0.6650210000000  0.3708620000000  0.3937530000000 1.0
C      1  0.6721210000000  0.6278430000000  0.5857200000000 1.0
C      1  0.5076990000000  0.3703340000000  0.6918870000000 1.0
C      1  0.3349790000000  0.6291380000000  0.6062470000000 1.0
C      1  0.6757820000000  0.4681170000000  0.3389260000000 1.0
C      1  0.7275020000000  0.5311730000000  0.5704330000000 1.0
C      1  0.5508570000000  0.4670890000000  0.7301560000000 1.0
C      1  0.3242180000000  0.5318830000000  0.6610740000000 1.0
C      1  0.2724980000000  0.4688270000000  0.4295670000000 1.0
C      1  0.4491430000000  0.5329110000000  0.2698440000000 1.0
C      1  0.5092360000000  0.6511790000000  0.6573240000000 1.0
C      1  0.3576490000000  0.3467230000000  0.5958600000000 1.0
C      1  0.3515430000000  0.6585020000000  0.4287650000000 1.0
C      1  0.4907640000000  0.3488210000000  0.3426760000000 1.0
C      1  0.6423510000000  0.6532770000000  0.4041400000000 1.0
C      1  0.6484570000000  0.3414980000000  0.5712350000000 1.0
END
