TITL C-3036485-3770-978 0.0328244932350944 3375 -349.539976525578 0 0 60 (Cs) n - 1
REM
REM in /home/bkarasulu/work/CARBON/AIRSS/Generating-Clusters/REBO/Higher-Symm/Only-C60
REM
REM
REM
REM
REM
REM ./C.cell (a2850807a9bf4ad07a5b6933b78d9264)
REM AIRSS Version 0.9.1 bugfix July 2018 build 013d7b7c2542+ Fri, 06 Jul 2018 19:26:36 +0100
REM compiler GCC version 9.2.1 20190827 (Red Hat 9.2.1-1)
REM options -cpp -mtune=generic -march=x86-64 -g -O0 -fpre-include=/usr/include/finclude/math-vector-fortran.h
REM seed 1468539889 -203212533 1842068338 -1645597284 -462409935 -1628400609 848060180 27960350 -2116576341 1028816702 1809249592 991565695 537674187 1302570833 -1888916683 -309964660 -856481359 -21724066 12709637 183506826 1215736632 -1775753731 1245866718 -1179847019 -1884054001 -1497363118 103681107 669402094 -2017857378 1366901820 -701012712 1697667871 -785107944
REM
CELL 1.54180   15.00000   15.00000   15.00000   90.00000   90.00000   90.00000
LATT -1
SFAC C  
C      1  0.4860300000000  0.5824070000000  0.7457800000000 1.0
C      1  0.5041100000000  0.2383240000000  0.4494110000000 1.0
C      1  0.5044050000000  0.6694950000000  0.3037810000000 1.0
C      1  0.4860310000000  0.5824070000000  0.2542210000000 1.0
C      1  0.5041100000000  0.2383240000000  0.5505870000000 1.0
C      1  0.5044050000000  0.6694950000000  0.6962200000000 1.0
C      1  0.6099840000000  0.2483550000000  0.4474030000000 1.0
C      1  0.6119430000000  0.6748200000000  0.3073790000000 1.0
C      1  0.5937470000000  0.5836790000000  0.7418150000000 1.0
C      1  0.6099830000000  0.2483570000000  0.5525980000000 1.0
C      1  0.6119440000000  0.6748210000000  0.6926220000000 1.0
C      1  0.5937470000000  0.5836770000000  0.2581860000000 1.0
C      1  0.6417380000000  0.6848330000000  0.6017130000000 1.0
C      1  0.6354520000000  0.3231740000000  0.6072240000000 1.0
C      1  0.6242640000000  0.5005330000000  0.2954540000000 1.0
C      1  0.6417340000000  0.6848260000000  0.3982880000000 1.0
C      1  0.6354510000000  0.3231750000000  0.3927760000000 1.0
C      1  0.6242810000000  0.5005300000000  0.7045620000000 1.0
C      1  0.6582840000000  0.5049290000000  0.6038660000000 1.0
C      1  0.6670190000000  0.4092250000000  0.4464810000000 1.0
C      1  0.6780370000000  0.5970930000000  0.4459120000000 1.0
C      1  0.6582930000000  0.5049280000000  0.3961340000000 1.0
C      1  0.6670200000000  0.4092260000000  0.5535150000000 1.0
C      1  0.6780300000000  0.5970950000000  0.5540860000000 1.0
C      1  0.5561060000000  0.4302460000000  0.7136770000000 1.0
C      1  0.5632160000000  0.3495180000000  0.3300150000000 1.0
C      1  0.5700860000000  0.7212870000000  0.4542340000000 1.0
C      1  0.5561080000000  0.4302280000000  0.2863010000000 1.0
C      1  0.5632140000000  0.3495210000000  0.6699800000000 1.0
C      1  0.5700850000000  0.7212710000000  0.5457690000000 1.0
C      1  0.4082360000000  0.5010670000000  0.4039780000000 1.0
C      1  0.4164260000000  0.6058980000000  0.5535230000000 1.0
C      1  0.4136270000000  0.3968860000000  0.5529250000000 1.0
C      1  0.4082170000000  0.5010670000000  0.5960200000000 1.0
C      1  0.4164250000000  0.6058990000000  0.4464770000000 1.0
C      1  0.4136270000000  0.3968860000000  0.4470750000000 1.0
C      1  0.2963950000000  0.4994060000000  0.5981720000000 1.0
C      1  0.2732830000000  0.4154940000000  0.4532790000000 1.0
C      1  0.2680660000000  0.5830410000000  0.4527980000000 1.0
C      1  0.2963930000000  0.4994060000000  0.4018280000000 1.0
C      1  0.2732830000000  0.4154940000000  0.5467210000000 1.0
C      1  0.2680660000000  0.5830410000000  0.5472020000000 1.0
C      1  0.4879450000000  0.3306590000000  0.4052210000000 1.0
C      1  0.4941340000000  0.6627610000000  0.4066140000000 1.0
C      1  0.4721900000000  0.4980180000000  0.6858520000000 1.0
C      1  0.4879430000000  0.3306560000000  0.5947790000000 1.0
C      1  0.4941380000000  0.6627610000000  0.5933860000000 1.0
C      1  0.4721950000000  0.4980180000000  0.3141510000000 1.0
C      1  0.2669360000000  0.4987460000000  0.6877910000000 1.0
C      1  0.3218370000000  0.3409430000000  0.4148140000000 1.0
C      1  0.3226390000000  0.6538190000000  0.4184070000000 1.0
C      1  0.2669340000000  0.4987460000000  0.3122100000000 1.0
C      1  0.3218380000000  0.3409430000000  0.5851860000000 1.0
C      1  0.3226400000000  0.6538200000000  0.5815930000000 1.0
C      1  0.5630060000000  0.5884110000000  0.4465630000000 1.0
C      1  0.5412620000000  0.4982520000000  0.6004450000000 1.0
C      1  0.5496030000000  0.4086870000000  0.4485140000000 1.0
C      1  0.5629990000000  0.5884210000000  0.5534370000000 1.0
C      1  0.5412540000000  0.4982680000000  0.3995560000000 1.0
C      1  0.5496060000000  0.4086870000000  0.5514930000000 1.0
END
