TITL C-3036479-9801-807 0.0102260589586543 3375 -368.662822654146 0 0 60 (C1) n - 1
REM
REM in /home/bkarasulu/work/CARBON/AIRSS/Generating-Clusters/REBO/Higher-Symm/Only-C60
REM
REM
REM
REM
REM
REM ./C.cell (a2850807a9bf4ad07a5b6933b78d9264)
REM AIRSS Version 0.9.1 bugfix July 2018 build 013d7b7c2542+ Fri, 06 Jul 2018 19:26:36 +0100
REM compiler GCC version 9.2.1 20190827 (Red Hat 9.2.1-1)
REM options -cpp -mtune=generic -march=x86-64 -g -O0 -fpre-include=/usr/include/finclude/math-vector-fortran.h
REM seed -299112103 -908957232 1985148812 -66605657 1999462291 390825380 -1462043034 1633336006 1972708732 383335445 1082200326 -1584943508 1937528699 1111866460 1979069259 1143890516 986380405 -1872309561 -1367523184 2026834397 471691911 -159186587 -607513636 -1094004986 -901990538 841555128 1513246860 -1406242587 1610259987 -572377276 2083841737 -1731408091 -1073731576
REM
CELL 1.54180   15.00000   15.00000   15.00000   90.00000   90.00000   90.00000
LATT -1
SFAC C  
C      1  0.6340750000000  0.5963560000000  0.6683510000000 1.0
C      1  0.3904830000000  0.6292970000000  0.3206020000000 1.0
C      1  0.3847660000000  0.6250750000000  0.6856920000000 1.0
C      1  0.6408430000000  0.6031560000000  0.3203980000000 1.0
C      1  0.5616640000000  0.6392400000000  0.2803680000000 1.0
C      1  0.4705860000000  0.6454500000000  0.7204530000000 1.0
C      1  0.4714010000000  0.6511450000000  0.2847690000000 1.0
C      1  0.5607940000000  0.6302370000000  0.7208230000000 1.0
C      1  0.3561270000000  0.6613950000000  0.4148820000000 1.0
C      1  0.6287200000000  0.6253610000000  0.5760900000000 1.0
C      1  0.6595180000000  0.6358390000000  0.4149020000000 1.0
C      1  0.3481710000000  0.6494050000000  0.5897040000000 1.0
C      1  0.4287750000000  0.4597870000000  0.7294280000000 1.0
C      1  0.5888030000000  0.4586950000000  0.2655230000000 1.0
C      1  0.5894870000000  0.4526820000000  0.7295550000000 1.0
C      1  0.4291150000000  0.4675340000000  0.2694370000000 1.0
C      1  0.3726910000000  0.5237890000000  0.3334910000000 1.0
C      1  0.6520830000000  0.5010300000000  0.6727050000000 1.0
C      1  0.6516830000000  0.5059850000000  0.3221910000000 1.0
C      1  0.3677730000000  0.5169260000000  0.6698650000000 1.0
C      1  0.5393130000000  0.6048660000000  0.5505920000000 1.0
C      1  0.4233770000000  0.5606950000000  0.4284750000000 1.0
C      1  0.4186270000000  0.5579330000000  0.5769500000000 1.0
C      1  0.5847060000000  0.5611710000000  0.4332260000000 1.0
C      1  0.6424620000000  0.3705390000000  0.5776260000000 1.0
C      1  0.3678840000000  0.3827800000000  0.4191100000000 1.0
C      1  0.3662960000000  0.3792580000000  0.5772760000000 1.0
C      1  0.6406660000000  0.3751880000000  0.4169970000000 1.0
C      1  0.4543280000000  0.3739970000000  0.2871050000000 1.0
C      1  0.5544770000000  0.3620110000000  0.7088090000000 1.0
C      1  0.5539010000000  0.3679630000000  0.2850630000000 1.0
C      1  0.4547400000000  0.3673060000000  0.7082630000000 1.0
C      1  0.3285490000000  0.4687810000000  0.4136440000000 1.0
C      1  0.6821090000000  0.4573070000000  0.5892360000000 1.0
C      1  0.6796220000000  0.4630560000000  0.4080810000000 1.0
C      1  0.3247920000000  0.4645940000000  0.5848380000000 1.0
C      1  0.5994510000000  0.3122870000000  0.6398060000000 1.0
C      1  0.4067020000000  0.3247730000000  0.3545030000000 1.0
C      1  0.4062760000000  0.3196790000000  0.6401070000000 1.0
C      1  0.5987620000000  0.3175840000000  0.3535850000000 1.0
C      1  0.4484760000000  0.2499950000000  0.3963550000000 1.0
C      1  0.5523730000000  0.2425950000000  0.5952310000000 1.0
C      1  0.5523860000000  0.2464040000000  0.3966370000000 1.0
C      1  0.4484450000000  0.2465960000000  0.5956100000000 1.0
C      1  0.5108620000000  0.5110150000000  0.4382090000000 1.0
C      1  0.5110470000000  0.5046660000000  0.5704930000000 1.0
C      1  0.5103380000000  0.5093330000000  0.2359570000000 1.0
C      1  0.5106950000000  0.5022160000000  0.7608660000000 1.0
C      1  0.5925670000000  0.3701780000000  0.4977600000000 1.0
C      1  0.4180720000000  0.3763380000000  0.4985010000000 1.0
C      1  0.7007520000000  0.5036440000000  0.5008210000000 1.0
C      1  0.3131310000000  0.5131940000000  0.4991420000000 1.0
C      1  0.6895800000000  0.6003100000000  0.5052120000000 1.0
C      1  0.3216780000000  0.6083690000000  0.5006080000000 1.0
C      1  0.5077630000000  0.4237290000000  0.5005260000000 1.0
C      1  0.4427010000000  0.8176170000000  0.4675020000000 1.0
C      1  0.4512240000000  0.6394050000000  0.5038210000000 1.0
C      1  0.4672940000000  0.9014120000000  0.4703410000000 1.0
C      1  0.4204360000000  0.7335560000000  0.4647760000000 1.0
C      1  0.4994660000000  0.2277970000000  0.4956260000000 1.0
END
