TITL C-3036480-97-255 1.27846416842654e-06 3375 -346.055139427903 0 0 60 (C2) n - 1
REM
REM in /home/bkarasulu/work/CARBON/AIRSS/Generating-Clusters/REBO/Higher-Symm/Only-C60
REM
REM
REM
REM
REM
REM ./C.cell (a2850807a9bf4ad07a5b6933b78d9264)
REM AIRSS Version 0.9.1 bugfix July 2018 build 013d7b7c2542+ Fri, 06 Jul 2018 19:26:36 +0100
REM compiler GCC version 9.2.1 20190827 (Red Hat 9.2.1-1)
REM options -cpp -mtune=generic -march=x86-64 -g -O0 -fpre-include=/usr/include/finclude/math-vector-fortran.h
REM seed -574086658 -126241751 1761082780 1516074564 -1878185692 39048619 -921701422 -526524797 1694716255 1171679105 1603880306 666478839 -1033201002 1237196401 -2090369902 1824943924 -1112581671 1825170295 -1610805264 837119664 -1778551688 -2082360290 1442655846 -204550184 -1645161580 748145285 1589472401 705520436 -1720158018 941017861 -1452925737 830230039 493622083
REM
CELL 1.54180   15.00000   15.00000   15.00000   90.00000   90.00000   90.00000
LATT -1
SFAC C  
C      1  0.3726480000000  0.6603470000000  0.6411670000000 1.0
C      1  0.3701230000000  0.3331950000000  0.3621520000000 1.0
C      1  0.6273690000000  0.6603440000000  0.3588430000000 1.0
C      1  0.6298590000000  0.3331710000000  0.6378380000000 1.0
C      1  0.4472410000000  0.7050530000000  0.3697490000000 1.0
C      1  0.4497870000000  0.3031860000000  0.6266250000000 1.0
C      1  0.5527810000000  0.7050390000000  0.6302640000000 1.0
C      1  0.5501910000000  0.3031880000000  0.3733630000000 1.0
C      1  0.4834040000000  0.2706420000000  0.4498310000000 1.0
C      1  0.4852990000000  0.7185810000000  0.5514940000000 1.0
C      1  0.5165700000000  0.2706370000000  0.5501550000000 1.0
C      1  0.5147230000000  0.7185830000000  0.4485190000000 1.0
C      1  0.4886640000000  0.6452370000000  0.2887580000000 1.0
C      1  0.4933430000000  0.3679260000000  0.7027380000000 1.0
C      1  0.5113520000000  0.6452220000000  0.7112500000000 1.0
C      1  0.5066430000000  0.3679370000000  0.2972540000000 1.0
C      1  0.6300820000000  0.3768490000000  0.3370410000000 1.0
C      1  0.6338240000000  0.6329980000000  0.6665960000000 1.0
C      1  0.3699050000000  0.3768540000000  0.6629530000000 1.0
C      1  0.3661910000000  0.6330220000000  0.3334110000000 1.0
C      1  0.5101720000000  0.5467270000000  0.5854690000000 1.0
C      1  0.5141140000000  0.4357650000000  0.4207640000000 1.0
C      1  0.4898340000000  0.5467340000000  0.4145330000000 1.0
C      1  0.4858790000000  0.4357610000000  0.5792320000000 1.0
C      1  0.4356710000000  0.6171040000000  0.5573080000000 1.0
C      1  0.4363040000000  0.3729640000000  0.4429020000000 1.0
C      1  0.5643420000000  0.6171020000000  0.4426990000000 1.0
C      1  0.5636830000000  0.3729530000000  0.5570910000000 1.0
C      1  0.5956310000000  0.6010600000000  0.5390580000000 1.0
C      1  0.5996610000000  0.3953740000000  0.4653160000000 1.0
C      1  0.4043810000000  0.6010720000000  0.4609480000000 1.0
C      1  0.4003280000000  0.3953830000000  0.5346780000000 1.0
C      1  0.3612740000000  0.5339280000000  0.3545850000000 1.0
C      1  0.3615360000000  0.4741320000000  0.6343880000000 1.0
C      1  0.6387310000000  0.5339050000000  0.6454160000000 1.0
C      1  0.6384620000000  0.4741240000000  0.3656110000000 1.0
C      1  0.3487260000000  0.3058800000000  0.5785220000000 1.0
C      1  0.3506240000000  0.6940250000000  0.4242810000000 1.0
C      1  0.6512520000000  0.3058670000000  0.4214670000000 1.0
C      1  0.6493970000000  0.6940050000000  0.5757300000000 1.0
C      1  0.6215250000000  0.2541870000000  0.5719850000000 1.0
C      1  0.6180130000000  0.7375960000000  0.4249160000000 1.0
C      1  0.3784470000000  0.2542060000000  0.4280000000000 1.0
C      1  0.3820110000000  0.7376020000000  0.5750990000000 1.0
C      1  0.5358520000000  0.4689810000000  0.3168210000000 1.0
C      1  0.5366880000000  0.5464990000000  0.6938150000000 1.0
C      1  0.4641450000000  0.4689740000000  0.6831770000000 1.0
C      1  0.4633190000000  0.5465140000000  0.3061880000000 1.0
C      1  0.3339040000000  0.4760660000000  0.5341660000000 1.0
C      1  0.3367590000000  0.5206940000000  0.4537210000000 1.0
C      1  0.6660930000000  0.4760500000000  0.4658330000000 1.0
C      1  0.6632440000000  0.5206740000000  0.5462790000000 1.0
C      1  0.4209620000000  0.6594860000000  0.7225230000000 1.0
C      1  0.4176000000000  0.3499070000000  0.2817490000000 1.0
C      1  0.5790560000000  0.6594920000000  0.2774870000000 1.0
C      1  0.5823830000000  0.3498830000000  0.7182420000000 1.0
C      1  0.3259630000000  0.2437950000000  0.5022190000000 1.0
C      1  0.3284980000000  0.7518810000000  0.5029420000000 1.0
C      1  0.6740080000000  0.2437750000000  0.4977660000000 1.0
C      1  0.6715280000000  0.7518650000000  0.4970740000000 1.0
END
