TITL C-3036486-2224-968 -7.27409840404274e-06 3375 -343.636605464722 0 0 60 (C6) n - 1
REM
REM in /home/bkarasulu/work/CARBON/AIRSS/Generating-Clusters/REBO/Higher-Symm/Only-C60
REM
REM
REM
REM
REM
REM ./C.cell (a2850807a9bf4ad07a5b6933b78d9264)
REM AIRSS Version 0.9.1 bugfix July 2018 build 013d7b7c2542+ Fri, 06 Jul 2018 19:26:36 +0100
REM compiler GCC version 9.2.1 20190827 (Red Hat 9.2.1-1)
REM options -cpp -mtune=generic -march=x86-64 -g -O0 -fpre-include=/usr/include/finclude/math-vector-fortran.h
REM seed 1902354645 466796989 -670161287 1035553640 -1082905371 -1571005969 1547416726 91223720 780261830 -1191961696 -1181340370 1993878534 2060704884 982414062 1287150917 -716522911 2129934042 264811824 -1170483795 -408324132 1412355993 -937454164 96629675 -1781295847 1484297209 1915442266 -506403387 301947968 530565499 -1420645602 -1052605300 -1653762017 -220680681
REM
CELL 1.54180   15.00000   15.00000   15.00000   90.00000   90.00000   90.00000
LATT -1
SFAC C  
C      1  0.3770790000000  0.3450260000000  0.6003480000000 1.0
C      1  0.5727490000000  0.3160600000000  0.6003490000000 1.0
C      1  0.6956720000000  0.4710350000000  0.6003500000000 1.0
C      1  0.6229210000000  0.6549740000000  0.6003480000000 1.0
C      1  0.4272510000000  0.6839400000000  0.6003490000000 1.0
C      1  0.3043280000000  0.5289650000000  0.6003500000000 1.0
C      1  0.6229210000000  0.3450260000000  0.3996520000000 1.0
C      1  0.4272510000000  0.3160600000000  0.3996510000000 1.0
C      1  0.3043280000000  0.4710350000000  0.3996500000000 1.0
C      1  0.3770790000000  0.6549740000000  0.3996520000000 1.0
C      1  0.5727490000000  0.6839400000000  0.3996510000000 1.0
C      1  0.6956720000000  0.5289650000000  0.3996500000000 1.0
C      1  0.7757590000000  0.5444790000000  0.4785250000000 1.0
C      1  0.5993570000000  0.7610550000000  0.4785250000000 1.0
C      1  0.3236020000000  0.7165740000000  0.4785270000000 1.0
C      1  0.2242410000000  0.4555210000000  0.4785250000000 1.0
C      1  0.4006430000000  0.2389450000000  0.4785250000000 1.0
C      1  0.6763980000000  0.2834260000000  0.4785270000000 1.0
C      1  0.2242410000000  0.5444790000000  0.5214750000000 1.0
C      1  0.4006430000000  0.7610550000000  0.5214750000000 1.0
C      1  0.6763980000000  0.7165740000000  0.5214730000000 1.0
C      1  0.7757590000000  0.4555210000000  0.5214750000000 1.0
C      1  0.5993570000000  0.2389450000000  0.5214750000000 1.0
C      1  0.3236020000000  0.2834260000000  0.5214730000000 1.0
C      1  0.5385720000000  0.5968270000000  0.4458110000000 1.0
C      1  0.4354310000000  0.5818170000000  0.4458110000000 1.0
C      1  0.3968600000000  0.4849910000000  0.4458110000000 1.0
C      1  0.4614280000000  0.4031730000000  0.4458110000000 1.0
C      1  0.5645690000000  0.4181830000000  0.4458110000000 1.0
C      1  0.6031400000000  0.5150090000000  0.4458110000000 1.0
C      1  0.4614280000000  0.5968270000000  0.5541890000000 1.0
C      1  0.5645690000000  0.5818170000000  0.5541890000000 1.0
C      1  0.6031400000000  0.4849910000000  0.5541890000000 1.0
C      1  0.5385720000000  0.4031730000000  0.5541890000000 1.0
C      1  0.4354310000000  0.4181830000000  0.5541890000000 1.0
C      1  0.3968600000000  0.5150090000000  0.5541890000000 1.0
C      1  0.5291630000000  0.7179930000000  0.6110350000000 1.0
C      1  0.3257980000000  0.6342500000000  0.6110350000000 1.0
C      1  0.2966330000000  0.4162590000000  0.6110330000000 1.0
C      1  0.4708370000000  0.2820070000000  0.6110350000000 1.0
C      1  0.6742020000000  0.3657500000000  0.6110350000000 1.0
C      1  0.7033670000000  0.5837410000000  0.6110330000000 1.0
C      1  0.4708370000000  0.7179930000000  0.3889650000000 1.0
C      1  0.6742020000000  0.6342500000000  0.3889650000000 1.0
C      1  0.7033670000000  0.4162590000000  0.3889670000000 1.0
C      1  0.5291630000000  0.2820070000000  0.3889650000000 1.0
C      1  0.3257980000000  0.3657500000000  0.3889650000000 1.0
C      1  0.2966330000000  0.5837410000000  0.3889670000000 1.0
C      1  0.7716200000000  0.3931540000000  0.4496400000000 1.0
C      1  0.7283390000000  0.6818070000000  0.4496380000000 1.0
C      1  0.4567210000000  0.7886540000000  0.4496390000000 1.0
C      1  0.2283800000000  0.6068460000000  0.4496400000000 1.0
C      1  0.2716610000000  0.3181930000000  0.4496380000000 1.0
C      1  0.5432790000000  0.2113460000000  0.4496390000000 1.0
C      1  0.2283800000000  0.3931540000000  0.5503600000000 1.0
C      1  0.2716610000000  0.6818070000000  0.5503620000000 1.0
C      1  0.5432790000000  0.7886540000000  0.5503610000000 1.0
C      1  0.7716200000000  0.6068460000000  0.5503600000000 1.0
C      1  0.7283390000000  0.3181930000000  0.5503620000000 1.0
C      1  0.4567210000000  0.2113460000000  0.5503610000000 1.0
END
