TITL C-3036486-2224-248 -3.92312058936395e-06 3375 -347.022513679689 0 0 60 (C5) n - 1
REM
REM in /home/bkarasulu/work/CARBON/AIRSS/Generating-Clusters/REBO/Higher-Symm/Only-C60
REM
REM
REM
REM
REM
REM ./C.cell (a2850807a9bf4ad07a5b6933b78d9264)
REM AIRSS Version 0.9.1 bugfix July 2018 build 013d7b7c2542+ Fri, 06 Jul 2018 19:26:36 +0100
REM compiler GCC version 9.2.1 20190827 (Red Hat 9.2.1-1)
REM options -cpp -mtune=generic -march=x86-64 -g -O0 -fpre-include=/usr/include/finclude/math-vector-fortran.h
REM seed -370678253 858932905 -1388055492 1720088698 -938965376 -1724574191 -1518128882 1473233909 2056724438 185327594 1800894783 2057123173 1307658284 -1030166676 1982585007 1958773461 -1635523434 393818692 1854036218 -1305519422 1103526960 -1290272681 832940906 1786987856 -1924613616 524376187 257200660 1941624622 360125254 1134533455 802442498 -1875961993 -1228674423
REM
CELL 1.54180   15.00000   15.00000   15.00000   90.00000   90.00000   90.00000
LATT -1
SFAC C  
C      1  0.4444090000000  0.2569960000000  0.5194720000000 1.0
C      1  0.4444090000000  0.4063880000000  0.2749070000000 1.0
C      1  0.4444090000000  0.6851480000000  0.3414120000000 1.0
C      1  0.4444090000000  0.7080390000000  0.6270800000000 1.0
C      1  0.4444090000000  0.4434270000000  0.7371270000000 1.0
C      1  0.5555910000000  0.2569960000000  0.5194720000000 1.0
C      1  0.5555910000000  0.4063880000000  0.2749070000000 1.0
C      1  0.5555910000000  0.6851480000000  0.3414120000000 1.0
C      1  0.5555910000000  0.7080390000000  0.6270800000000 1.0
C      1  0.5555910000000  0.4434270000000  0.7371270000000 1.0
C      1  0.4446690000000  0.3748910000000  0.6526430000000 1.0
C      1  0.4446690000000  0.3161680000000  0.4281850000000 1.0
C      1  0.4446690000000  0.5114920000000  0.3029720000000 1.0
C      1  0.4446680000000  0.6909380000000  0.4500450000000 1.0
C      1  0.4446680000000  0.6065130000000  0.6661560000000 1.0
C      1  0.5553310000000  0.3748910000000  0.6526430000000 1.0
C      1  0.5553310000000  0.3161680000000  0.4281850000000 1.0
C      1  0.5553310000000  0.5114920000000  0.3029720000000 1.0
C      1  0.5553320000000  0.6909380000000  0.4500450000000 1.0
C      1  0.5553320000000  0.6065130000000  0.6661560000000 1.0
C      1  0.3994540000000  0.7310870000000  0.5287000000000 1.0
C      1  0.3994540000000  0.5441140000000  0.7286460000000 1.0
C      1  0.3994550000000  0.2961780000000  0.6126110000000 1.0
C      1  0.3994550000000  0.3299160000000  0.3409530000000 1.0
C      1  0.3994550000000  0.5987040000000  0.2890920000000 1.0
C      1  0.6005460000000  0.7310870000000  0.5287000000000 1.0
C      1  0.6005460000000  0.5441140000000  0.7286460000000 1.0
C      1  0.6005450000000  0.2961780000000  0.6126110000000 1.0
C      1  0.6005450000000  0.3299160000000  0.3409530000000 1.0
C      1  0.6005450000000  0.5987040000000  0.2890920000000 1.0
C      1  0.5558920000000  0.4460850000000  0.5724680000000 1.0
C      1  0.5558920000000  0.4144200000000  0.4711160000000 1.0
C      1  0.5558920000000  0.5010260000000  0.4096820000000 1.0
C      1  0.5558920000000  0.5862160000000  0.4730650000000 1.0
C      1  0.5558920000000  0.5522610000000  0.5736720000000 1.0
C      1  0.4441080000000  0.4460850000000  0.5724680000000 1.0
C      1  0.4441080000000  0.4144200000000  0.4711160000000 1.0
C      1  0.4441080000000  0.5010260000000  0.4096820000000 1.0
C      1  0.4441080000000  0.5862160000000  0.4730650000000 1.0
C      1  0.4441080000000  0.5522610000000  0.5736720000000 1.0
C      1  0.6834260000000  0.4650920000000  0.4222240000000 1.0
C      1  0.6834260000000  0.5631810000000  0.4427670000000 1.0
C      1  0.6834260000000  0.5739560000000  0.5424030000000 1.0
C      1  0.6834270000000  0.4825250000000  0.5834400000000 1.0
C      1  0.6834260000000  0.4152430000000  0.5091650000000 1.0
C      1  0.3165740000000  0.4650920000000  0.4222240000000 1.0
C      1  0.3165740000000  0.5631810000000  0.4427670000000 1.0
C      1  0.3165740000000  0.5739560000000  0.5424030000000 1.0
C      1  0.3165730000000  0.4825250000000  0.5834400000000 1.0
C      1  0.3165740000000  0.4152430000000  0.5091650000000 1.0
C      1  0.3518760000000  0.6527770000000  0.5828340000000 1.0
C      1  0.3518750000000  0.4684300000000  0.6708970000000 1.0
C      1  0.3518740000000  0.3277100000000  0.5227860000000 1.0
C      1  0.3518750000000  0.4250880000000  0.3431840000000 1.0
C      1  0.3518750000000  0.6259910000000  0.3802970000000 1.0
C      1  0.6481240000000  0.6527770000000  0.5828340000000 1.0
C      1  0.6481250000000  0.4684300000000  0.6708970000000 1.0
C      1  0.6481260000000  0.3277100000000  0.5227860000000 1.0
C      1  0.6481250000000  0.4250880000000  0.3431840000000 1.0
C      1  0.6481250000000  0.6259910000000  0.3802970000000 1.0
END
