TITL C-3036485-3770-843 1.09990014292554e-06 3375 -349.861695686322 0 0 60 (Td) n - 1
REM
REM in /home/bkarasulu/work/CARBON/AIRSS/Generating-Clusters/REBO/Higher-Symm/Only-C60
REM
REM
REM
REM
REM
REM ./C.cell (a2850807a9bf4ad07a5b6933b78d9264)
REM AIRSS Version 0.9.1 bugfix July 2018 build 013d7b7c2542+ Fri, 06 Jul 2018 19:26:36 +0100
REM compiler GCC version 9.2.1 20190827 (Red Hat 9.2.1-1)
REM options -cpp -mtune=generic -march=x86-64 -g -O0 -fpre-include=/usr/include/finclude/math-vector-fortran.h
REM seed -2045195305 -192449127 1286874623 1744194667 952780125 1961650036 -999381493 957079739 1904129448 1238362579 -1743238921 -1758417938 1924616864 -1618016499 76044766 558474331 1324678894 559801611 -1826694443 -1124098382 1279468869 1166204360 -1801698929 -1299103346 1845972171 -12647112 -731981599 -1931205052 194114186 -588748705 1389094673 -615396720 -1769646357
REM
CELL 1.54180   15.00000   15.00000   15.00000   90.00000   90.00000   90.00000
LATT -1
SFAC C  
C      1  0.7334960000000  0.3787370000000  0.5508610000000 1.0
C      1  0.3787370000000  0.5508610000000  0.7334960000000 1.0
C      1  0.5508610000000  0.7334960000000  0.3787370000000 1.0
C      1  0.2665040000000  0.3787370000000  0.4491390000000 1.0
C      1  0.2665040000000  0.6212630000000  0.5508610000000 1.0
C      1  0.7334960000000  0.6212630000000  0.4491390000000 1.0
C      1  0.6212630000000  0.5508610000000  0.2665040000000 1.0
C      1  0.6212630000000  0.4491390000000  0.7334960000000 1.0
C      1  0.3787370000000  0.4491390000000  0.2665040000000 1.0
C      1  0.4491390000000  0.7334960000000  0.6212630000000 1.0
C      1  0.4491390000000  0.2665040000000  0.3787370000000 1.0
C      1  0.5508610000000  0.2665040000000  0.6212630000000 1.0
C      1  0.5508610000000  0.3787370000000  0.7334960000000 1.0
C      1  0.7334960000000  0.5508610000000  0.3787370000000 1.0
C      1  0.3787370000000  0.7334960000000  0.5508610000000 1.0
C      1  0.4491390000000  0.3787370000000  0.2665040000000 1.0
C      1  0.5508610000000  0.6212630000000  0.2665040000000 1.0
C      1  0.4491390000000  0.6212630000000  0.7334960000000 1.0
C      1  0.2665040000000  0.5508610000000  0.6212630000000 1.0
C      1  0.7334960000000  0.4491390000000  0.6212630000000 1.0
C      1  0.2665040000000  0.4491390000000  0.3787370000000 1.0
C      1  0.6212630000000  0.7334960000000  0.4491390000000 1.0
C      1  0.3787370000000  0.2665040000000  0.4491390000000 1.0
C      1  0.6212630000000  0.2665040000000  0.5508610000000 1.0
C      1  0.3506130000000  0.5031470000000  0.4224870000000 1.0
C      1  0.5031470000000  0.4224870000000  0.3506130000000 1.0
C      1  0.4224870000000  0.3506130000000  0.5031470000000 1.0
C      1  0.6493870000000  0.5031470000000  0.5775130000000 1.0
C      1  0.6493870000000  0.4968530000000  0.4224870000000 1.0
C      1  0.3506130000000  0.4968530000000  0.5775130000000 1.0
C      1  0.4968530000000  0.4224870000000  0.6493870000000 1.0
C      1  0.4968530000000  0.5775130000000  0.3506130000000 1.0
C      1  0.5031470000000  0.5775130000000  0.6493870000000 1.0
C      1  0.5775130000000  0.3506130000000  0.4968530000000 1.0
C      1  0.5775130000000  0.6493870000000  0.5031470000000 1.0
C      1  0.4224870000000  0.6493870000000  0.4968530000000 1.0
C      1  0.4224870000000  0.5031470000000  0.3506130000000 1.0
C      1  0.3506130000000  0.4224870000000  0.5031470000000 1.0
C      1  0.5031470000000  0.3506130000000  0.4224870000000 1.0
C      1  0.5775130000000  0.5031470000000  0.6493870000000 1.0
C      1  0.4224870000000  0.4968530000000  0.6493870000000 1.0
C      1  0.5775130000000  0.4968530000000  0.3506130000000 1.0
C      1  0.6493870000000  0.4224870000000  0.4968530000000 1.0
C      1  0.3506130000000  0.5775130000000  0.4968530000000 1.0
C      1  0.6493870000000  0.5775130000000  0.5031470000000 1.0
C      1  0.4968530000000  0.3506130000000  0.5775130000000 1.0
C      1  0.5031470000000  0.6493870000000  0.5775130000000 1.0
C      1  0.4968530000000  0.6493870000000  0.4224870000000 1.0
C      1  0.7145320000000  0.5626840000000  0.2854680000000 1.0
C      1  0.2854680000000  0.7145320000000  0.5626840000000 1.0
C      1  0.4373160000000  0.7145320000000  0.7145320000000 1.0
C      1  0.5626840000000  0.7145320000000  0.2854680000000 1.0
C      1  0.2854680000000  0.5626840000000  0.7145320000000 1.0
C      1  0.7145320000000  0.4373160000000  0.7145320000000 1.0
C      1  0.5626840000000  0.2854680000000  0.7145320000000 1.0
C      1  0.4373160000000  0.2854680000000  0.2854680000000 1.0
C      1  0.7145320000000  0.7145320000000  0.4373160000000 1.0
C      1  0.7145320000000  0.2854680000000  0.5626840000000 1.0
C      1  0.2854680000000  0.4373160000000  0.2854680000000 1.0
C      1  0.2854680000000  0.2854680000000  0.4373160000000 1.0
END
