TITL C-3036484-3770-277 3.02422483515256e-06 3375 -356.722005395372 0 0 60 (C1) n - 1
REM
REM in /home/bkarasulu/work/CARBON/AIRSS/Generating-Clusters/REBO/Higher-Symm/Only-C60
REM
REM
REM
REM
REM
REM ./C.cell (a2850807a9bf4ad07a5b6933b78d9264)
REM AIRSS Version 0.9.1 bugfix July 2018 build 013d7b7c2542+ Fri, 06 Jul 2018 19:26:36 +0100
REM compiler GCC version 9.2.1 20190827 (Red Hat 9.2.1-1)
REM options -cpp -mtune=generic -march=x86-64 -g -O0 -fpre-include=/usr/include/finclude/math-vector-fortran.h
REM seed -1544609288 1101726046 -470845753 926366820 -9717317 716287077 620290373 -557975083 -2141938929 -1926124087 -1646472237 -1684787923 515223443 -559743648 -1676597612 356525187 1866476429 1011550590 -1438837282 -1838690233 441088007 1707931848 597351904 1623858197 -852317927 -1641582125 1324628670 -1455619220 -1183602621 12446052 -224661898 652299851 -1214718309
REM
CELL 1.54180   15.00000   15.00000   15.00000   90.00000   90.00000   90.00000
LATT -1
SFAC C  
C      1  0.3334380000000  0.4292990000000  0.4120020000000 1.0
C      1  0.3260630000000  0.3915890000000  0.5132720000000 1.0
C      1  0.3761070000000  0.4297440000000  0.5857600000000 1.0
C      1  0.3530830000000  0.5196220000000  0.6063450000000 1.0
C      1  0.4038880000000  0.5871080000000  0.5527770000000 1.0
C      1  0.3552260000000  0.5892080000000  0.4536470000000 1.0
C      1  0.3759490000000  0.5093000000000  0.3857410000000 1.0
C      1  0.4177820000000  0.4624360000000  0.7077400000000 1.0
C      1  0.4130840000000  0.6226830000000  0.6806590000000 1.0
C      1  0.4143140000000  0.7043560000000  0.4911250000000 1.0
C      1  0.4224760000000  0.6272040000000  0.3455230000000 1.0
C      1  0.4335400000000  0.4255930000000  0.3003260000000 1.0
C      1  0.4404150000000  0.3025120000000  0.4070970000000 1.0
C      1  0.4272040000000  0.3079780000000  0.5702940000000 1.0
C      1  0.7277690000000  0.5271700000000  0.4058190000000 1.0
C      1  0.7342280000000  0.4361290000000  0.4258720000000 1.0
C      1  0.7311430000000  0.3970480000000  0.5106330000000 1.0
C      1  0.7241560000000  0.4385560000000  0.5937820000000 1.0
C      1  0.7206140000000  0.5291350000000  0.6149750000000 1.0
C      1  0.7193410000000  0.6015230000000  0.5565890000000 1.0
C      1  0.7219200000000  0.6001970000000  0.4635510000000 1.0
C      1  0.6611490000000  0.6708680000000  0.4258630000000 1.0
C      1  0.6691230000000  0.5414010000000  0.3249120000000 1.0
C      1  0.6813570000000  0.3814070000000  0.3593870000000 1.0
C      1  0.6769780000000  0.3121500000000  0.5088500000000 1.0
C      1  0.6637800000000  0.3858120000000  0.6548500000000 1.0
C      1  0.6596090000000  0.5455040000000  0.6932480000000 1.0
C      1  0.6570060000000  0.6733030000000  0.5900120000000 1.0
C      1  0.1937320000000  0.5276030000000  0.4338680000000 1.0
C      1  0.2310710000000  0.4361580000000  0.4322200000000 1.0
C      1  0.2217610000000  0.3943120000000  0.5293300000000 1.0
C      1  0.1892230000000  0.4643750000000  0.5906030000000 1.0
C      1  0.2600340000000  0.5402510000000  0.6173890000000 1.0
C      1  0.2279590000000  0.6274900000000  0.5638970000000 1.0
C      1  0.2570100000000  0.6058740000000  0.4644080000000 1.0
C      1  0.4707130000000  0.2844930000000  0.4941250000000 1.0
C      1  0.4547870000000  0.3802930000000  0.6461780000000 1.0
C      1  0.4515140000000  0.5469450000000  0.7144220000000 1.0
C      1  0.4476380000000  0.6780250000000  0.5934210000000 1.0
C      1  0.4533280000000  0.6832260000000  0.4109980000000 1.0
C      1  0.4597490000000  0.5297800000000  0.3145030000000 1.0
C      1  0.4753290000000  0.3532770000000  0.3361770000000 1.0
C      1  0.5999070000000  0.7190530000000  0.5062090000000 1.0
C      1  0.6064090000000  0.6326280000000  0.3364870000000 1.0
C      1  0.6199190000000  0.4468170000000  0.2922820000000 1.0
C      1  0.6277070000000  0.2977020000000  0.4100460000000 1.0
C      1  0.6123360000000  0.3040180000000  0.5996020000000 1.0
C      1  0.6024320000000  0.4532570000000  0.7188250000000 1.0
C      1  0.6002110000000  0.6390470000000  0.6794680000000 1.0
C      1  0.5569190000000  0.5390150000000  0.3006370000000 1.0
C      1  0.5738180000000  0.3530810000000  0.3300250000000 1.0
C      1  0.5685490000000  0.2751320000000  0.5018460000000 1.0
C      1  0.5506220000000  0.3702650000000  0.6649690000000 1.0
C      1  0.5494100000000  0.5508880000000  0.7244320000000 1.0
C      1  0.5446690000000  0.6950110000000  0.6005500000000 1.0
C      1  0.5508570000000  0.6961040000000  0.4090450000000 1.0
C      1  0.6066600000000  0.4739070000000  0.4218630000000 1.0
C      1  0.4654300000000  0.5621910000000  0.4669880000000 1.0
C      1  0.1586840000000  0.5482610000000  0.5322500000000 1.0
C      1  0.5378690000000  0.5233010000000  0.4415680000000 1.0
END
