TITL C-3036484-3770-81 1.04008840612888e-05 3375 -345.966393310589 0 0 60 (C1) n - 1
REM
REM in /home/bkarasulu/work/CARBON/AIRSS/Generating-Clusters/REBO/Higher-Symm/Only-C60
REM
REM
REM
REM
REM
REM ./C.cell (a2850807a9bf4ad07a5b6933b78d9264)
REM AIRSS Version 0.9.1 bugfix July 2018 build 013d7b7c2542+ Fri, 06 Jul 2018 19:26:36 +0100
REM compiler GCC version 9.2.1 20190827 (Red Hat 9.2.1-1)
REM options -cpp -mtune=generic -march=x86-64 -g -O0 -fpre-include=/usr/include/finclude/math-vector-fortran.h
REM seed 551363589 1814704222 -162354458 -56934195 -2043079151 -230832983 -1384453349 1199289847 -1822610495 744667422 41667493 1473939228 1807803408 1308311669 -1213455171 -828635752 -1639654265 451899930 1365906969 -1333212911 -1008813033 -1025753912 -983236935 -60323506 -1767936464 -982803126 -792435780 -1757196827 -821147833 -166547851 1819879052 -1435558133 -123587858
REM
CELL 1.54180   15.00000   15.00000   15.00000   90.00000   90.00000   90.00000
LATT -1
SFAC C  
C      1  0.4386880000000  0.7112160000000  0.4812950000000 1.0
C      1  0.5340970000000  0.7061270000000  0.4904280000000 1.0
C      1  0.5458810000000  0.4769180000000  0.3734070000000 1.0
C      1  0.4474040000000  0.4955060000000  0.3635650000000 1.0
C      1  0.5348310000000  0.6936220000000  0.3559420000000 1.0
C      1  0.4477360000000  0.6998290000000  0.3489640000000 1.0
C      1  0.5627270000000  0.2667050000000  0.5630220000000 1.0
C      1  0.4637660000000  0.2903790000000  0.5530670000000 1.0
C      1  0.3531730000000  0.3109690000000  0.5754790000000 1.0
C      1  0.6683200000000  0.3027650000000  0.5849960000000 1.0
C      1  0.7088950000000  0.5301740000000  0.4640500000000 1.0
C      1  0.2855050000000  0.5374750000000  0.4669120000000 1.0
C      1  0.4518780000000  0.7210680000000  0.5935290000000 1.0
C      1  0.5592020000000  0.7182350000000  0.5964860000000 1.0
C      1  0.4613570000000  0.3434550000000  0.6740710000000 1.0
C      1  0.5656230000000  0.3188080000000  0.6866310000000 1.0
C      1  0.5509660000000  0.4033630000000  0.7505160000000 1.0
C      1  0.4427810000000  0.4099370000000  0.7489390000000 1.0
C      1  0.3180070000000  0.4010340000000  0.5716350000000 1.0
C      1  0.6894960000000  0.3965050000000  0.5806010000000 1.0
C      1  0.4507420000000  0.4009410000000  0.5775940000000 1.0
C      1  0.5581080000000  0.3770840000000  0.5894580000000 1.0
C      1  0.4546700000000  0.3813120000000  0.3591690000000 1.0
C      1  0.5674180000000  0.3661140000000  0.3658860000000 1.0
C      1  0.6772100000000  0.4619400000000  0.3787850000000 1.0
C      1  0.3163030000000  0.4828940000000  0.3730170000000 1.0
C      1  0.3578940000000  0.6882370000000  0.4164010000000 1.0
C      1  0.6157600000000  0.6715270000000  0.4316230000000 1.0
C      1  0.6418130000000  0.2651770000000  0.4862720000000 1.0
C      1  0.3847910000000  0.2778490000000  0.4778260000000 1.0
C      1  0.3729390000000  0.3517540000000  0.4162660000000 1.0
C      1  0.6453300000000  0.3399110000000  0.4233200000000 1.0
C      1  0.7030390000000  0.4178870000000  0.4806980000000 1.0
C      1  0.3058650000000  0.4251610000000  0.4707410000000 1.0
C      1  0.6214540000000  0.6463710000000  0.3211640000000 1.0
C      1  0.3584630000000  0.6656200000000  0.3058430000000 1.0
C      1  0.6778380000000  0.6249310000000  0.4964730000000 1.0
C      1  0.3158390000000  0.6357170000000  0.4958730000000 1.0
C      1  0.6524400000000  0.4668180000000  0.6325770000000 1.0
C      1  0.3474600000000  0.4737050000000  0.6266500000000 1.0
C      1  0.5519740000000  0.4807280000000  0.5464460000000 1.0
C      1  0.4443580000000  0.4966860000000  0.5381730000000 1.0
C      1  0.3479560000000  0.5962590000000  0.2500450000000 1.0
C      1  0.6373510000000  0.5797350000000  0.2637120000000 1.0
C      1  0.3963920000000  0.5199010000000  0.4506780000000 1.0
C      1  0.6001960000000  0.4988100000000  0.4589380000000 1.0
C      1  0.6667830000000  0.6838490000000  0.5862480000000 1.0
C      1  0.3416200000000  0.6961890000000  0.5811080000000 1.0
C      1  0.5456200000000  0.5636800000000  0.7108770000000 1.0
C      1  0.4510320000000  0.5680860000000  0.7100820000000 1.0
C      1  0.3652050000000  0.5666940000000  0.5715370000000 1.0
C      1  0.6310850000000  0.5570460000000  0.5747250000000 1.0
C      1  0.3690040000000  0.5017110000000  0.2815640000000 1.0
C      1  0.6211930000000  0.4816350000000  0.2896690000000 1.0
C      1  0.5948350000000  0.4801120000000  0.7127930000000 1.0
C      1  0.3992610000000  0.4864800000000  0.7107700000000 1.0
C      1  0.5926190000000  0.6270160000000  0.6499300000000 1.0
C      1  0.4089500000000  0.6336290000000  0.6475040000000 1.0
C      1  0.5419410000000  0.4055080000000  0.2617650000000 1.0
C      1  0.4369190000000  0.4212060000000  0.2542640000000 1.0
END
