TITL C-3036483-1610-217 -5.48820215406184e-06 3375 -348.620325144691 0 0 60 (C1) n - 1
REM
REM in /home/bkarasulu/work/CARBON/AIRSS/Generating-Clusters/REBO/Higher-Symm/Only-C60
REM
REM
REM
REM
REM
REM ./C.cell (a2850807a9bf4ad07a5b6933b78d9264)
REM AIRSS Version 0.9.1 bugfix July 2018 build 013d7b7c2542+ Fri, 06 Jul 2018 19:26:36 +0100
REM compiler GCC version 9.2.1 20190827 (Red Hat 9.2.1-1)
REM options -cpp -mtune=generic -march=x86-64 -g -O0 -fpre-include=/usr/include/finclude/math-vector-fortran.h
REM seed -673948904 148446906 -657732218 404053915 39036962 -458357498 1328948529 -622277737 361111999 -1869779598 -2047755460 1048960484 -1606669599 838710038 -810359306 -254761854 -89598498 186552650 -241880314 2086946484 1890380135 488369804 157150241 -1323726889 -115033191 -2036003704 1247959684 -1054288293 950061353 191297949 -935425970 1651357130 1844011153
REM
CELL 1.54180   15.00000   15.00000   15.00000   90.00000   90.00000   90.00000
LATT -1
SFAC C  
C      1  0.5353410000000  0.4204740000000  0.4632860000000 1.0
C      1  0.4354660000000  0.7133090000000  0.5644170000000 1.0
C      1  0.6845490000000  0.6019940000000  0.4694520000000 1.0
C      1  0.6815320000000  0.5932010000000  0.3741610000000 1.0
C      1  0.3815110000000  0.6356510000000  0.4707870000000 1.0
C      1  0.8001440000000  0.4724100000000  0.3766750000000 1.0
C      1  0.2770820000000  0.5015850000000  0.5524970000000 1.0
C      1  0.2967620000000  0.6068120000000  0.5274420000000 1.0
C      1  0.2789380000000  0.4876640000000  0.6460140000000 1.0
C      1  0.4941050000000  0.3901260000000  0.7424740000000 1.0
C      1  0.3490790000000  0.5473270000000  0.3561570000000 1.0
C      1  0.3780920000000  0.3154630000000  0.4709500000000 1.0
C      1  0.4996860000000  0.4896620000000  0.2680640000000 1.0
C      1  0.3248680000000  0.4814890000000  0.2919400000000 1.0
C      1  0.5104090000000  0.6500700000000  0.5376650000000 1.0
C      1  0.6129790000000  0.6022660000000  0.6193980000000 1.0
C      1  0.3894530000000  0.6157990000000  0.6762810000000 1.0
C      1  0.2891710000000  0.5486740000000  0.4302620000000 1.0
C      1  0.4836540000000  0.7702010000000  0.4872330000000 1.0
C      1  0.4103160000000  0.7216930000000  0.4308870000000 1.0
C      1  0.7782400000000  0.4462280000000  0.4673420000000 1.0
C      1  0.4611730000000  0.3296660000000  0.6787100000000 1.0
C      1  0.6512780000000  0.3311860000000  0.3783290000000 1.0
C      1  0.5427140000000  0.2621770000000  0.4809930000000 1.0
C      1  0.3172180000000  0.3607470000000  0.4111970000000 1.0
C      1  0.3617150000000  0.6618960000000  0.5995640000000 1.0
C      1  0.5968850000000  0.2181570000000  0.5533490000000 1.0
C      1  0.5396610000000  0.5093010000000  0.3932630000000 1.0
C      1  0.2573550000000  0.4428360000000  0.4569910000000 1.0
C      1  0.5517080000000  0.5914210000000  0.6901470000000 1.0
C      1  0.7084240000000  0.5157730000000  0.5232150000000 1.0
C      1  0.6201710000000  0.4504720000000  0.6559970000000 1.0
C      1  0.3972090000000  0.4553890000000  0.5947860000000 1.0
C      1  0.6580590000000  0.2771320000000  0.6041360000000 1.0
C      1  0.4451780000000  0.4326630000000  0.3203550000000 1.0
C      1  0.5581460000000  0.5606070000000  0.2717380000000 1.0
C      1  0.3637710000000  0.4564620000000  0.4905270000000 1.0
C      1  0.5708900000000  0.7342220000000  0.4548450000000 1.0
C      1  0.6149080000000  0.3614890000000  0.6343490000000 1.0
C      1  0.4530580000000  0.2878760000000  0.5202220000000 1.0
C      1  0.3857950000000  0.3609240000000  0.6368390000000 1.0
C      1  0.3482350000000  0.3875630000000  0.3229060000000 1.0
C      1  0.6717520000000  0.4319340000000  0.4630360000000 1.0
C      1  0.4745340000000  0.6414450000000  0.7097150000000 1.0
C      1  0.4353620000000  0.4356920000000  0.4221610000000 1.0
C      1  0.6315150000000  0.4699450000000  0.3807680000000 1.0
C      1  0.7205340000000  0.5079410000000  0.3344850000000 1.0
C      1  0.4391030000000  0.4799520000000  0.7540620000000 1.0
C      1  0.6182960000000  0.6627070000000  0.5244480000000 1.0
C      1  0.5816060000000  0.3370120000000  0.4379060000000 1.0
C      1  0.5261360000000  0.2948090000000  0.6084460000000 1.0
C      1  0.4684940000000  0.5697610000000  0.4882400000000 1.0
C      1  0.5468740000000  0.4887810000000  0.7207740000000 1.0
C      1  0.4849010000000  0.4833460000000  0.5355940000000 1.0
C      1  0.4475610000000  0.5697620000000  0.3763380000000 1.0
C      1  0.4619540000000  0.6717700000000  0.3609990000000 1.0
C      1  0.6608610000000  0.5205320000000  0.6090430000000 1.0
C      1  0.6063380000000  0.6247400000000  0.3253400000000 1.0
C      1  0.5551410000000  0.6928620000000  0.3669840000000 1.0
C      1  0.3741070000000  0.5169540000000  0.6858190000000 1.0
END
