TITL C-3036481-494-922 8.38179703090874e-06 3375 -353.880265228673 0 0 60 (C1) n - 1
REM
REM in /home/bkarasulu/work/CARBON/AIRSS/Generating-Clusters/REBO/Higher-Symm/Only-C60
REM
REM
REM
REM
REM
REM ./C.cell (a2850807a9bf4ad07a5b6933b78d9264)
REM AIRSS Version 0.9.1 bugfix July 2018 build 013d7b7c2542+ Fri, 06 Jul 2018 19:26:36 +0100
REM compiler GCC version 9.2.1 20190827 (Red Hat 9.2.1-1)
REM options -cpp -mtune=generic -march=x86-64 -g -O0 -fpre-include=/usr/include/finclude/math-vector-fortran.h
REM seed -886912039 1003187071 -1768312326 -1531377189 1852814261 1212135118 1258499804 -1937274398 -195713328 -640026467 -400769601 -1838888189 -760677271 957941556 -2070813350 -1081185671 1054525761 -798454923 105430715 1130885006 -863964742 -893508463 -861710214 -417817830 1675284273 -242184074 1042620591 -1899691070 372302984 757578359 -1309529635 -1271045458 -310385902
REM
CELL 1.54180   15.00000   15.00000   15.00000   90.00000   90.00000   90.00000
LATT -1
SFAC C  
C      1  0.3097420000000  0.5935220000000  0.3742030000000 1.0
C      1  0.5018150000000  0.3090620000000  0.3915190000000 1.0
C      1  0.6958920000000  0.6128450000000  0.3556920000000 1.0
C      1  0.3238150000000  0.3903070000000  0.3657520000000 1.0
C      1  0.5005230000000  0.6918800000000  0.3752170000000 1.0
C      1  0.6810080000000  0.4077990000000  0.3674610000000 1.0
C      1  0.6583550000000  0.6783900000000  0.5411480000000 1.0
C      1  0.2576090000000  0.5543900000000  0.5524720000000 1.0
C      1  0.5699000000000  0.2671720000000  0.5515330000000 1.0
C      1  0.6578460000000  0.3208290000000  0.5431430000000 1.0
C      1  0.2697230000000  0.4534010000000  0.5450330000000 1.0
C      1  0.5709130000000  0.7294500000000  0.5562520000000 1.0
C      1  0.5445940000000  0.3423940000000  0.4774130000000 1.0
C      1  0.6544790000000  0.6304310000000  0.4436780000000 1.0
C      1  0.3199980000000  0.5459460000000  0.4634940000000 1.0
C      1  0.5527520000000  0.6776550000000  0.4603050000000 1.0
C      1  0.6464210000000  0.3878010000000  0.4584930000000 1.0
C      1  0.3240800000000  0.4336610000000  0.4542670000000 1.0
C      1  0.5935740000000  0.4579940000000  0.5215680000000 1.0
C      1  0.5038220000000  0.6140890000000  0.5403860000000 1.0
C      1  0.4016230000000  0.4638400000000  0.5291340000000 1.0
C      1  0.5991230000000  0.5633330000000  0.5094090000000 1.0
C      1  0.4932510000000  0.4122050000000  0.5450990000000 1.0
C      1  0.4105630000000  0.5719850000000  0.5154560000000 1.0
C      1  0.5899120000000  0.5449600000000  0.2264430000000 1.0
C      1  0.4145130000000  0.5492280000000  0.2317040000000 1.0
C      1  0.4984020000000  0.3967740000000  0.2335440000000 1.0
C      1  0.5812320000000  0.4405140000000  0.2276650000000 1.0
C      1  0.4107940000000  0.4548730000000  0.2256760000000 1.0
C      1  0.5094970000000  0.5937920000000  0.2299450000000 1.0
C      1  0.6947050000000  0.6270440000000  0.6133170000000 1.0
C      1  0.2929440000000  0.6037850000000  0.6256850000000 1.0
C      1  0.5064450000000  0.2557520000000  0.6216320000000 1.0
C      1  0.6895220000000  0.3661280000000  0.6214300000000 1.0
C      1  0.2887720000000  0.3927440000000  0.6160810000000 1.0
C      1  0.5121670000000  0.7376950000000  0.6292810000000 1.0
C      1  0.6283320000000  0.6278340000000  0.6902920000000 1.0
C      1  0.3308710000000  0.5403530000000  0.6942860000000 1.0
C      1  0.5375420000000  0.3013470000000  0.7058400000000 1.0
C      1  0.6189420000000  0.3611130000000  0.6947960000000 1.0
C      1  0.3138590000000  0.4412680000000  0.7015350000000 1.0
C      1  0.5492660000000  0.6890800000000  0.7108590000000 1.0
C      1  0.3403230000000  0.6856180000000  0.6175260000000 1.0
C      1  0.4130100000000  0.2630550000000  0.6046880000000 1.0
C      1  0.7371860000000  0.5416640000000  0.6037880000000 1.0
C      1  0.3362540000000  0.3114270000000  0.6020510000000 1.0
C      1  0.4178640000000  0.7325550000000  0.6189190000000 1.0
C      1  0.7330880000000  0.4508980000000  0.6114050000000 1.0
C      1  0.4692010000000  0.3284650000000  0.3072400000000 1.0
C      1  0.6762710000000  0.5581210000000  0.2837940000000 1.0
C      1  0.3650790000000  0.6093630000000  0.3017040000000 1.0
C      1  0.4604310000000  0.6528150000000  0.3008070000000 1.0
C      1  0.6645840000000  0.4543760000000  0.2884080000000 1.0
C      1  0.3806680000000  0.3810650000000  0.2927680000000 1.0
C      1  0.4175810000000  0.5567980000000  0.6241240000000 1.0
C      1  0.4949260000000  0.3902440000000  0.6565510000000 1.0
C      1  0.5881470000000  0.5479020000000  0.6194510000000 1.0
C      1  0.4081170000000  0.4461780000000  0.6412650000000 1.0
C      1  0.5028250000000  0.6070050000000  0.6530630000000 1.0
C      1  0.5853090000000  0.4477880000000  0.6343090000000 1.0
END
