TITL C-3036484-3770-858 -1.03070176812281e-06 3375 -342.598975360875 0 0 60 (C1) n - 1
REM
REM in /home/bkarasulu/work/CARBON/AIRSS/Generating-Clusters/REBO/Higher-Symm/Only-C60
REM
REM
REM
REM
REM
REM ./C.cell (a2850807a9bf4ad07a5b6933b78d9264)
REM AIRSS Version 0.9.1 bugfix July 2018 build 013d7b7c2542+ Fri, 06 Jul 2018 19:26:36 +0100
REM compiler GCC version 9.2.1 20190827 (Red Hat 9.2.1-1)
REM options -cpp -mtune=generic -march=x86-64 -g -O0 -fpre-include=/usr/include/finclude/math-vector-fortran.h
REM seed 1868108773 -1808134925 -763241370 550237346 2077263700 -1063401246 -1381836428 -51361138 1307141676 -1728738797 210145966 -429676273 1270411266 -237016004 1624647399 187967022 679477702 661070910 -2095919290 -1532054692 1552737266 -368432824 954938658 -942335185 1716325526 1193580464 1716036914 871746386 840106975 -1611309607 1677967180 472565355 2117126511
REM
CELL 1.54180   15.00000   15.00000   15.00000   90.00000   90.00000   90.00000
LATT -1
SFAC C  
C      1  0.4350340000000  0.2977680000000  0.3940040000000 1.0
C      1  0.6368180000000  0.3607660000000  0.3863440000000 1.0
C      1  0.7102000000000  0.5593990000000  0.3849240000000 1.0
C      1  0.5646540000000  0.7075660000000  0.3814070000000 1.0
C      1  0.3597440000000  0.6548150000000  0.3687630000000 1.0
C      1  0.2968780000000  0.4522510000000  0.4115790000000 1.0
C      1  0.4551760000000  0.7004660000000  0.4066650000000 1.0
C      1  0.6609540000000  0.6560800000000  0.3540020000000 1.0
C      1  0.6959450000000  0.4516310000000  0.4158260000000 1.0
C      1  0.5447960000000  0.3051460000000  0.4195580000000 1.0
C      1  0.3411570000000  0.3565250000000  0.3720780000000 1.0
C      1  0.2981460000000  0.5629100000000  0.3898910000000 1.0
C      1  0.5557060000000  0.3158580000000  0.7493850000000 1.0
C      1  0.6782490000000  0.4558310000000  0.7453600000000 1.0
C      1  0.6272330000000  0.6288510000000  0.6833990000000 1.0
C      1  0.4453570000000  0.6597270000000  0.7336780000000 1.0
C      1  0.3175940000000  0.5270710000000  0.7191770000000 1.0
C      1  0.3753710000000  0.3528040000000  0.7018200000000 1.0
C      1  0.5412640000000  0.6708760000000  0.7100080000000 1.0
C      1  0.6798660000000  0.5507510000000  0.7152710000000 1.0
C      1  0.6309490000000  0.3728490000000  0.7164000000000 1.0
C      1  0.4596940000000  0.3056190000000  0.7250600000000 1.0
C      1  0.3242870000000  0.4299920000000  0.7397920000000 1.0
C      1  0.3664870000000  0.6105830000000  0.6969120000000 1.0
C      1  0.4667630000000  0.6823530000000  0.2953580000000 1.0
C      1  0.3246360000000  0.5630940000000  0.2796630000000 1.0
C      1  0.3564160000000  0.3821880000000  0.2627040000000 1.0
C      1  0.5320700000000  0.3322590000000  0.3102510000000 1.0
C      1  0.6703270000000  0.4606320000000  0.3057800000000 1.0
C      1  0.6454850000000  0.6384260000000  0.2426490000000 1.0
C      1  0.4363450000000  0.3271160000000  0.2845070000000 1.0
C      1  0.3182010000000  0.4662810000000  0.3011390000000 1.0
C      1  0.3835990000000  0.6405390000000  0.2588240000000 1.0
C      1  0.5627470000000  0.6863720000000  0.2700860000000 1.0
C      1  0.6867390000000  0.5533900000000  0.2741060000000 1.0
C      1  0.6107270000000  0.3852790000000  0.2790940000000 1.0
C      1  0.4428250000000  0.2948040000000  0.5040280000000 1.0
C      1  0.6391160000000  0.3609740000000  0.4947210000000 1.0
C      1  0.7057340000000  0.5576240000000  0.4951930000000 1.0
C      1  0.5575690000000  0.7010660000000  0.4912750000000 1.0
C      1  0.3580290000000  0.6433260000000  0.4770670000000 1.0
C      1  0.2990760000000  0.4424830000000  0.5216280000000 1.0
C      1  0.4491480000000  0.6943480000000  0.5167040000000 1.0
C      1  0.6523540000000  0.6500190000000  0.4629640000000 1.0
C      1  0.6978450000000  0.4506270000000  0.5262070000000 1.0
C      1  0.5510370000000  0.3013900000000  0.5297440000000 1.0
C      1  0.3500560000000  0.3519250000000  0.4806000000000 1.0
C      1  0.2986680000000  0.5517170000000  0.4995890000000 1.0
C      1  0.6472430000000  0.6475880000000  0.5734590000000 1.0
C      1  0.4416470000000  0.6932470000000  0.6253790000000 1.0
C      1  0.2939100000000  0.5421230000000  0.6093610000000 1.0
C      1  0.3548440000000  0.3436230000000  0.5907210000000 1.0
C      1  0.5592190000000  0.2931160000000  0.6382890000000 1.0
C      1  0.7042290000000  0.4479590000000  0.6351530000000 1.0
C      1  0.6450310000000  0.3575420000000  0.6049420000000 1.0
C      1  0.4492890000000  0.2863650000000  0.6138360000000 1.0
C      1  0.2961190000000  0.4312900000000  0.6299740000000 1.0
C      1  0.3530720000000  0.6354740000000  0.5871430000000 1.0
C      1  0.5514750000000  0.7004160000000  0.6011990000000 1.0
C      1  0.7068510000000  0.5568870000000  0.6053610000000 1.0
END
