TITL C-3036479-9801-79 0.0281389977797024 3375 -333.769896435573 0 0 60 (Ci) n - 1
REM
REM in /home/bkarasulu/work/CARBON/AIRSS/Generating-Clusters/REBO/Higher-Symm/Only-C60
REM
REM
REM
REM
REM
REM ./C.cell (a2850807a9bf4ad07a5b6933b78d9264)
REM AIRSS Version 0.9.1 bugfix July 2018 build 013d7b7c2542+ Fri, 06 Jul 2018 19:26:36 +0100
REM compiler GCC version 9.2.1 20190827 (Red Hat 9.2.1-1)
REM options -cpp -mtune=generic -march=x86-64 -g -O0 -fpre-include=/usr/include/finclude/math-vector-fortran.h
REM seed 1977081948 -396708926 1956328704 -722879267 175958359 -963675461 1136207492 15761875 1142043778 622435677 -1888007562 1956066880 -1641313043 1994256227 -901980715 -286002673 821679477 -859788213 -1386601873 -1592088608 -1995790490 1636685161 794830951 -1083590206 822559579 1014492657 -1870508524 -660964826 -1027745381 -1400854371 1679523508 -810818238 1587641579
REM
CELL 1.54180   15.00000   15.00000   15.00000   90.00000   90.00000   90.00000
LATT -1
SFAC C  
C      1  0.5771760000000  0.3395460000000  0.3744330000000 1.0
C      1  0.4228700000000  0.6605960000000  0.6254550000000 1.0
C      1  0.5248510000000  0.5055930000000  0.3619310000000 1.0
C      1  0.4750520000000  0.4944340000000  0.6381750000000 1.0
C      1  0.5681610000000  0.4051390000000  0.2860230000000 1.0
C      1  0.4318280000000  0.5949050000000  0.7139310000000 1.0
C      1  0.5300810000000  0.2850470000000  0.4606490000000 1.0
C      1  0.4702430000000  0.7147950000000  0.5390340000000 1.0
C      1  0.6809750000000  0.6390230000000  0.6678500000000 1.0
C      1  0.3189720000000  0.3610150000000  0.3318660000000 1.0
C      1  0.5250550000000  0.3301540000000  0.8068180000000 1.0
C      1  0.4746870000000  0.6699170000000  0.1933690000000 1.0
C      1  0.4245900000000  0.4957270000000  0.3422520000000 1.0
C      1  0.5753740000000  0.5042890000000  0.6578370000000 1.0
C      1  0.2951600000000  0.5268350000000  0.6574370000000 1.0
C      1  0.7047420000000  0.4734040000000  0.3426650000000 1.0
C      1  0.5231320000000  0.6136870000000  0.6042650000000 1.0
C      1  0.4768220000000  0.3862330000000  0.3958770000000 1.0
C      1  0.3918930000000  0.5372990000000  0.5887580000000 1.0
C      1  0.6081890000000  0.4627900000000  0.4112660000000 1.0
C      1  0.5170160000000  0.6564290000000  0.4753730000000 1.0
C      1  0.4838030000000  0.3428370000000  0.5246990000000 1.0
C      1  0.7043580000000  0.5846090000000  0.5934700000000 1.0
C      1  0.2955470000000  0.4152300000000  0.4063860000000 1.0
C      1  0.6536030000000  0.5003730000000  0.6028730000000 1.0
C      1  0.3463260000000  0.4995260000000  0.3971810000000 1.0
C      1  0.5246920000000  0.5748900000000  0.7313860000000 1.0
C      1  0.4752740000000  0.4250590000000  0.2686400000000 1.0
C      1  0.7852730000000  0.4220290000000  0.5400530000000 1.0
C      1  0.2146540000000  0.5780610000000  0.4598570000000 1.0
C      1  0.4225500000000  0.4306920000000  0.7011600000000 1.0
C      1  0.5773080000000  0.5693570000000  0.2989140000000 1.0
C      1  0.6274590000000  0.4812470000000  0.2809200000000 1.0
C      1  0.3724800000000  0.5188270000000  0.7191440000000 1.0
C      1  0.6203990000000  0.3278620000000  0.5704380000000 1.0
C      1  0.3794680000000  0.6721190000000  0.4292830000000 1.0
C      1  0.5889530000000  0.6392330000000  0.6806660000000 1.0
C      1  0.4110530000000  0.3606740000000  0.3193600000000 1.0
C      1  0.3671030000000  0.4563470000000  0.5249270000000 1.0
C      1  0.6321260000000  0.5441290000000  0.4750570000000 1.0
C      1  0.3742170000000  0.3499090000000  0.5506610000000 1.0
C      1  0.6266700000000  0.6506280000000  0.4487570000000 1.0
C      1  0.5025080000000  0.3266820000000  0.7245570000000 1.0
C      1  0.4972820000000  0.6733370000000  0.2756210000000 1.0
C      1  0.1968240000000  0.5145560000000  0.5234010000000 1.0
C      1  0.8030320000000  0.4857700000000  0.4767250000000 1.0
C      1  0.7283810000000  0.5165230000000  0.4283340000000 1.0
C      1  0.2714880000000  0.4839430000000  0.5718210000000 1.0
C      1  0.4674100000000  0.6772800000000  0.3814450000000 1.0
C      1  0.5327490000000  0.3222730000000  0.6189640000000 1.0
C      1  0.5270770000000  0.5480820000000  0.5117990000000 1.0
C      1  0.4724590000000  0.4512180000000  0.4887580000000 1.0
C      1  0.7156760000000  0.6386420000000  0.5137870000000 1.0
C      1  0.2847790000000  0.3608880000000  0.4859810000000 1.0
C      1  0.6853380000000  0.4144390000000  0.5595570000000 1.0
C      1  0.3146230000000  0.5855140000000  0.4404360000000 1.0
C      1  0.6272660000000  0.3758280000000  0.4695400000000 1.0
C      1  0.3727280000000  0.6243140000000  0.5303830000000 1.0
C      1  0.5762200000000  0.6597380000000  0.3561260000000 1.0
C      1  0.4239780000000  0.3404830000000  0.6436720000000 1.0
END
