TITL C-3036483-1610-372 0.00131540131324506 3375 -334.747568510441 0 0 60 (C1) n - 1
REM
REM in /home/bkarasulu/work/CARBON/AIRSS/Generating-Clusters/REBO/Higher-Symm/Only-C60
REM
REM
REM
REM
REM
REM ./C.cell (a2850807a9bf4ad07a5b6933b78d9264)
REM AIRSS Version 0.9.1 bugfix July 2018 build 013d7b7c2542+ Fri, 06 Jul 2018 19:26:36 +0100
REM compiler GCC version 9.2.1 20190827 (Red Hat 9.2.1-1)
REM options -cpp -mtune=generic -march=x86-64 -g -O0 -fpre-include=/usr/include/finclude/math-vector-fortran.h
REM seed -1469802255 569264293 145817244 -1674713827 -1870764191 -2077668634 326505178 -1372575861 1647181693 1967272353 -2146744710 446072077 -1439744335 2058912760 -1927715753 -1912810804 -329917507 699888439 -1991062142 -1261355287 -243467476 -107916252 -847639444 1824035872 2103066579 231376199 -981042921 1179945098 352303153 -1885759165 -1960473779 93437064 1963995489
REM
CELL 1.54180   15.00000   15.00000   15.00000   90.00000   90.00000   90.00000
LATT -1
SFAC C  
C      1  0.6998860000000  0.3740000000000  0.3846600000000 1.0
C      1  0.6258460000000  0.3739620000000  0.7015210000000 1.0
C      1  0.2940000000000  0.3797670000000  0.6130090000000 1.0
C      1  0.3818490000000  0.3780100000000  0.2963650000000 1.0
C      1  0.7120610000000  0.3824560000000  0.6008960000000 1.0
C      1  0.6090010000000  0.3859900000000  0.2882550000000 1.0
C      1  0.2968480000000  0.3803550000000  0.3987710000000 1.0
C      1  0.3827870000000  0.3818780000000  0.7117830000000 1.0
C      1  0.5409290000000  0.5201620000000  0.2131740000000 1.0
C      1  0.7944880000000  0.5396060000000  0.5494520000000 1.0
C      1  0.4653670000000  0.5090870000000  0.7896470000000 1.0
C      1  0.2071070000000  0.5426850000000  0.4506120000000 1.0
C      1  0.5492380000000  0.5037570000000  0.7851690000000 1.0
C      1  0.7969140000000  0.5252490000000  0.4665760000000 1.0
C      1  0.4572900000000  0.5112030000000  0.2149530000000 1.0
C      1  0.2047420000000  0.5346660000000  0.5343180000000 1.0
C      1  0.3803350000000  0.3634110000000  0.4585850000000 1.0
C      1  0.5467300000000  0.3503230000000  0.3632450000000 1.0
C      1  0.6249770000000  0.3600520000000  0.5514370000000 1.0
C      1  0.4539710000000  0.3442760000000  0.6415860000000 1.0
C      1  0.3783220000000  0.3515490000000  0.5633300000000 1.0
C      1  0.5577480000000  0.3303270000000  0.6341570000000 1.0
C      1  0.6200740000000  0.3473310000000  0.4451010000000 1.0
C      1  0.4427400000000  0.3375960000000  0.3697110000000 1.0
C      1  0.3754870000000  0.4784030000000  0.4423610000000 1.0
C      1  0.5608660000000  0.4634120000000  0.3849200000000 1.0
C      1  0.6264390000000  0.4766230000000  0.5626320000000 1.0
C      1  0.4404880000000  0.4558450000000  0.6179880000000 1.0
C      1  0.3688530000000  0.4651740000000  0.5436270000000 1.0
C      1  0.5434770000000  0.4401480000000  0.6200310000000 1.0
C      1  0.6320320000000  0.4584320000000  0.4621510000000 1.0
C      1  0.4578920000000  0.4474510000000  0.3819480000000 1.0
C      1  0.2905270000000  0.5265060000000  0.5877950000000 1.0
C      1  0.4095500000000  0.5079650000000  0.3046420000000 1.0
C      1  0.7103820000000  0.5169000000000  0.4143190000000 1.0
C      1  0.5946380000000  0.5031630000000  0.6936800000000 1.0
C      1  0.2966580000000  0.5421390000000  0.4010760000000 1.0
C      1  0.4103110000000  0.5165370000000  0.7049320000000 1.0
C      1  0.7054620000000  0.5416980000000  0.6006790000000 1.0
C      1  0.5937850000000  0.5260300000000  0.2998210000000 1.0
C      1  0.4385890000000  0.6973290000000  0.6074330000000 1.0
C      1  0.3788120000000  0.7239910000000  0.4378690000000 1.0
C      1  0.5478840000000  0.7146400000000  0.3761140000000 1.0
C      1  0.6056630000000  0.7197370000000  0.5458190000000 1.0
C      1  0.4527050000000  0.6885370000000  0.3796660000000 1.0
C      1  0.3704060000000  0.7094380000000  0.5362830000000 1.0
C      1  0.5368950000000  0.6826040000000  0.6076380000000 1.0
C      1  0.6103330000000  0.6924800000000  0.4499930000000 1.0
C      1  0.6324130000000  0.6089860000000  0.5514860000000 1.0
C      1  0.4477410000000  0.5876860000000  0.6343080000000 1.0
C      1  0.3688100000000  0.6109000000000  0.4473900000000 1.0
C      1  0.5555320000000  0.5996070000000  0.3707910000000 1.0
C      1  0.6395360000000  0.5896460000000  0.4429240000000 1.0
C      1  0.4450840000000  0.5798150000000  0.3726760000000 1.0
C      1  0.3664260000000  0.5974050000000  0.5586430000000 1.0
C      1  0.5581310000000  0.5767490000000  0.6295970000000 1.0
C      1  0.6830160000000  0.4651020000000  0.3220390000000 1.0
C      1  0.3157100000000  0.4672770000000  0.6777050000000 1.0
C      1  0.3125990000000  0.4629130000000  0.3259570000000 1.0
C      1  0.6936180000000  0.4617480000000  0.6767550000000 1.0
END
