TITL C-3036486-2224-215 -1.25731992862095e-05 3375 -351.647801535173 0 0 60 (Td) n - 1
REM
REM in /home/bkarasulu/work/CARBON/AIRSS/Generating-Clusters/REBO/Higher-Symm/Only-C60
REM
REM
REM
REM
REM
REM ./C.cell (a2850807a9bf4ad07a5b6933b78d9264)
REM AIRSS Version 0.9.1 bugfix July 2018 build 013d7b7c2542+ Fri, 06 Jul 2018 19:26:36 +0100
REM compiler GCC version 9.2.1 20190827 (Red Hat 9.2.1-1)
REM options -cpp -mtune=generic -march=x86-64 -g -O0 -fpre-include=/usr/include/finclude/math-vector-fortran.h
REM seed -1006618314 804407836 -1108142465 832771982 1188869924 -396480122 -558667698 1152111465 -1703841514 2142832363 -946034336 -895802435 1620726473 1392338262 974998237 -1358052475 1205218716 -423099045 -950736905 -445465015 1853349279 1764611499 -952791237 1697922996 241018858 1258877636 290108970 2054726413 -1030417900 -873186508 -243497788 2049812795 1574282498
REM
CELL 1.54180   15.00000   15.00000   15.00000   90.00000   90.00000   90.00000
LATT -1
SFAC C  
C      1  0.4614980000000  0.6082400000000  0.3104650000000 1.0
C      1  0.6082400000000  0.3104650000000  0.4614980000000 1.0
C      1  0.3104650000000  0.4614980000000  0.6082400000000 1.0
C      1  0.5385020000000  0.3917600000000  0.3104650000000 1.0
C      1  0.4614980000000  0.3917600000000  0.6895350000000 1.0
C      1  0.5385020000000  0.6082400000000  0.6895350000000 1.0
C      1  0.3917600000000  0.6895350000000  0.4614980000000 1.0
C      1  0.6082400000000  0.6895350000000  0.5385020000000 1.0
C      1  0.3917600000000  0.3104650000000  0.5385020000000 1.0
C      1  0.6895350000000  0.5385020000000  0.6082400000000 1.0
C      1  0.3104650000000  0.5385020000000  0.3917600000000 1.0
C      1  0.6895350000000  0.4614980000000  0.3917600000000 1.0
C      1  0.6082400000000  0.4614980000000  0.3104650000000 1.0
C      1  0.3104650000000  0.6082400000000  0.4614980000000 1.0
C      1  0.4614980000000  0.3104650000000  0.6082400000000 1.0
C      1  0.3917600000000  0.5385020000000  0.3104650000000 1.0
C      1  0.3917600000000  0.4614980000000  0.6895350000000 1.0
C      1  0.6082400000000  0.5385020000000  0.6895350000000 1.0
C      1  0.6895350000000  0.3917600000000  0.4614980000000 1.0
C      1  0.6895350000000  0.6082400000000  0.5385020000000 1.0
C      1  0.3104650000000  0.3917600000000  0.5385020000000 1.0
C      1  0.5385020000000  0.6895350000000  0.6082400000000 1.0
C      1  0.5385020000000  0.3104650000000  0.3917600000000 1.0
C      1  0.4614980000000  0.6895350000000  0.3917600000000 1.0
C      1  0.2913600000000  0.6363740000000  0.5698170000000 1.0
C      1  0.6363740000000  0.5698170000000  0.2913600000000 1.0
C      1  0.5698170000000  0.2913600000000  0.6363740000000 1.0
C      1  0.7086400000000  0.3636260000000  0.5698170000000 1.0
C      1  0.2913600000000  0.3636260000000  0.4301830000000 1.0
C      1  0.7086400000000  0.6363740000000  0.4301830000000 1.0
C      1  0.3636260000000  0.4301830000000  0.2913600000000 1.0
C      1  0.6363740000000  0.4301830000000  0.7086400000000 1.0
C      1  0.3636260000000  0.5698170000000  0.7086400000000 1.0
C      1  0.4301830000000  0.7086400000000  0.6363740000000 1.0
C      1  0.5698170000000  0.7086400000000  0.3636260000000 1.0
C      1  0.4301830000000  0.2913600000000  0.3636260000000 1.0
C      1  0.6363740000000  0.2913600000000  0.5698170000000 1.0
C      1  0.5698170000000  0.6363740000000  0.2913600000000 1.0
C      1  0.2913600000000  0.5698170000000  0.6363740000000 1.0
C      1  0.3636260000000  0.7086400000000  0.5698170000000 1.0
C      1  0.3636260000000  0.2913600000000  0.4301830000000 1.0
C      1  0.6363740000000  0.7086400000000  0.4301830000000 1.0
C      1  0.4301830000000  0.3636260000000  0.2913600000000 1.0
C      1  0.4301830000000  0.6363740000000  0.7086400000000 1.0
C      1  0.5698170000000  0.3636260000000  0.7086400000000 1.0
C      1  0.7086400000000  0.4301830000000  0.6363740000000 1.0
C      1  0.7086400000000  0.5698170000000  0.3636260000000 1.0
C      1  0.2913600000000  0.4301830000000  0.3636260000000 1.0
C      1  0.4062270000000  0.5937730000000  0.5182500000000 1.0
C      1  0.5937730000000  0.5182500000000  0.4062270000000 1.0
C      1  0.4062270000000  0.5182500000000  0.5937730000000 1.0
C      1  0.5937730000000  0.4817500000000  0.5937730000000 1.0
C      1  0.4817500000000  0.5937730000000  0.5937730000000 1.0
C      1  0.5937730000000  0.5937730000000  0.4817500000000 1.0
C      1  0.5937730000000  0.4062270000000  0.5182500000000 1.0
C      1  0.4062270000000  0.4817500000000  0.4062270000000 1.0
C      1  0.4817500000000  0.4062270000000  0.4062270000000 1.0
C      1  0.4062270000000  0.4062270000000  0.4817500000000 1.0
C      1  0.5182500000000  0.5937730000000  0.4062270000000 1.0
C      1  0.5182500000000  0.4062270000000  0.5937730000000 1.0
END
