TITL C-3036481-494-924 0.000605674581088126 3375 -349.589096876326 0 0 60 (C3) n - 1
REM
REM in /home/bkarasulu/work/CARBON/AIRSS/Generating-Clusters/REBO/Higher-Symm/Only-C60
REM
REM
REM
REM
REM
REM ./C.cell (a2850807a9bf4ad07a5b6933b78d9264)
REM AIRSS Version 0.9.1 bugfix July 2018 build 013d7b7c2542+ Fri, 06 Jul 2018 19:26:36 +0100
REM compiler GCC version 9.2.1 20190827 (Red Hat 9.2.1-1)
REM options -cpp -mtune=generic -march=x86-64 -g -O0 -fpre-include=/usr/include/finclude/math-vector-fortran.h
REM seed -672544083 -334123165 1267989352 498996205 -1620149957 2116488321 1691360930 -1393993344 -341228553 -322946405 1276669955 2032656727 -1452326663 600900733 2080409888 -1496917770 1174954328 -1907869308 -1318942267 325195558 1005533889 366988285 -1411390911 -359405102 -1901376 185679165 -419510141 -1659959108 -774384268 218895620 1102515785 -724775630 898315594
REM
CELL 1.54180   15.00000   15.00000   15.00000   90.00000   90.00000   90.00000
LATT -1
SFAC C  
C      1  0.5323100000000  0.6412960000000  0.3562540000000 1.0
C      1  0.5323120000000  0.5538450000000  0.6942380000000 1.0
C      1  0.5323190000000  0.3048580000000  0.4495070000000 1.0
C      1  0.6752250000000  0.4585410000000  0.4523420000000 1.0
C      1  0.6752270000000  0.5620100000000  0.4879300000000 1.0
C      1  0.6752360000000  0.4794580000000  0.5597410000000 1.0
C      1  0.6232490000000  0.3097700000000  0.4787510000000 1.0
C      1  0.6232400000000  0.6135170000000  0.3458870000000 1.0
C      1  0.6232420000000  0.5767160000000  0.6753690000000 1.0
C      1  0.6390030000000  0.3228070000000  0.5871930000000 1.0
C      1  0.6389960000000  0.5130890000000  0.3029570000000 1.0
C      1  0.6389930000000  0.6641120000000  0.6098590000000 1.0
C      1  0.3235990000000  0.5828390000000  0.4765740000000 1.0
C      1  0.3236030000000  0.4788610000000  0.5834540000000 1.0
C      1  0.3236060000000  0.4382840000000  0.4399620000000 1.0
C      1  0.4159230000000  0.4151320000000  0.6789680000000 1.0
C      1  0.4159220000000  0.3874380000000  0.3370120000000 1.0
C      1  0.4159160000000  0.6974300000000  0.4840080000000 1.0
C      1  0.3605330000000  0.6802670000000  0.3945580000000 1.0
C      1  0.3605420000000  0.5011780000000  0.7088340000000 1.0
C      1  0.3605490000000  0.3185440000000  0.3965990000000 1.0
C      1  0.5918760000000  0.4159970000000  0.5528280000000 1.0
C      1  0.5918650000000  0.4962480000000  0.4008400000000 1.0
C      1  0.5918640000000  0.5877580000000  0.5463350000000 1.0
C      1  0.5591030000000  0.3151640000000  0.6672880000000 1.0
C      1  0.5591010000000  0.4475450000000  0.2562850000000 1.0
C      1  0.5590950000000  0.7372970000000  0.5764290000000 1.0
C      1  0.4255820000000  0.4797100000000  0.5609000000000 1.0
C      1  0.4255730000000  0.4574060000000  0.4519890000000 1.0
C      1  0.4255710000000  0.5628780000000  0.4871260000000 1.0
C      1  0.2834580000000  0.3933460000000  0.5320490000000 1.0
C      1  0.2834530000000  0.5255570000000  0.3916100000000 1.0
C      1  0.2834500000000  0.5810820000000  0.5763310000000 1.0
C      1  0.3600750000000  0.3521780000000  0.6028950000000 1.0
C      1  0.3600690000000  0.4847940000000  0.3205290000000 1.0
C      1  0.3600660000000  0.6630220000000  0.5765630000000 1.0
C      1  0.6805880000000  0.5026080000000  0.6574990000000 1.0
C      1  0.6805900000000  0.3623080000000  0.4235100000000 1.0
C      1  0.6805850000000  0.6350940000000  0.4190020000000 1.0
C      1  0.5754990000000  0.7481600000000  0.4766140000000 1.0
C      1  0.5755030000000  0.3961760000000  0.7266020000000 1.0
C      1  0.5755060000000  0.3556700000000  0.2967830000000 1.0
C      1  0.5024760000000  0.4999870000000  0.3983870000000 1.0
C      1  0.5024770000000  0.5880130000000  0.5507980000000 1.0
C      1  0.5024880000000  0.4120020000000  0.5508180000000 1.0
C      1  0.6581190000000  0.4034380000000  0.3323060000000 1.0
C      1  0.6581150000000  0.6935190000000  0.5002210000000 1.0
C      1  0.6581230000000  0.4030530000000  0.6674830000000 1.0
C      1  0.4630270000000  0.4709430000000  0.2749500000000 1.0
C      1  0.4630190000000  0.7094320000000  0.5873570000000 1.0
C      1  0.4630300000000  0.3196290000000  0.6376880000000 1.0
C      1  0.4613760000000  0.5698890000000  0.3266010000000 1.0
C      1  0.4613750000000  0.6152310000000  0.6472280000000 1.0
C      1  0.4613850000000  0.3148830000000  0.5261730000000 1.0
C      1  0.3615420000000  0.5964200000000  0.3497620000000 1.0
C      1  0.3615440000000  0.5818960000000  0.6586190000000 1.0
C      1  0.3615530000000  0.3216750000000  0.4916100000000 1.0
C      1  0.5074470000000  0.3321990000000  0.3614720000000 1.0
C      1  0.5074400000000  0.7038680000000  0.4239460000000 1.0
C      1  0.5074450000000  0.4639330000000  0.7145760000000 1.0
END
