TITL C-3036480-97-290 2.81528617054756e-06 3375 -358.90432350413 0 0 60 (C1) n - 1
REM
REM in /home/bkarasulu/work/CARBON/AIRSS/Generating-Clusters/REBO/Higher-Symm/Only-C60
REM
REM
REM
REM
REM
REM ./C.cell (a2850807a9bf4ad07a5b6933b78d9264)
REM AIRSS Version 0.9.1 bugfix July 2018 build 013d7b7c2542+ Fri, 06 Jul 2018 19:26:36 +0100
REM compiler GCC version 9.2.1 20190827 (Red Hat 9.2.1-1)
REM options -cpp -mtune=generic -march=x86-64 -g -O0 -fpre-include=/usr/include/finclude/math-vector-fortran.h
REM seed 1298319149 -1580835508 -182708124 -1860057648 1785989221 2018102377 794544913 -1155260034 -436779100 -1682913364 129450534 -802619995 701277917 1718752849 -1810283211 2120137141 -1075625748 -960574406 -864831458 341897025 -2145793630 686019668 -562927374 1860466930 1101405655 637060092 31498102 -1055041499 499501956 208199928 1199844887 880205060 1216458870
REM
CELL 1.54180   15.00000   15.00000   15.00000   90.00000   90.00000   90.00000
LATT -1
SFAC C  
C      1  0.6934590000000  0.4542440000000  0.3696700000000 1.0
C      1  0.4508020000000  0.3944240000000  0.6879780000000 1.0
C      1  0.3800600000000  0.7035450000000  0.4603070000000 1.0
C      1  0.3014380000000  0.4464780000000  0.6239180000000 1.0
C      1  0.3203880000000  0.5299840000000  0.4014770000000 1.0
C      1  0.6834370000000  0.5338910000000  0.6023800000000 1.0
C      1  0.5447150000000  0.3911250000000  0.3074900000000 1.0
C      1  0.5242560000000  0.6125130000000  0.6665410000000 1.0
C      1  0.4868110000000  0.6061040000000  0.3385890000000 1.0
C      1  0.6094630000000  0.6966560000000  0.5394500000000 1.0
C      1  0.6278120000000  0.3093190000000  0.4442830000000 1.0
C      1  0.3706570000000  0.3085090000000  0.5496270000000 1.0
C      1  0.3805220000000  0.4564340000000  0.6947410000000 1.0
C      1  0.6965150000000  0.3867250000000  0.4350940000000 1.0
C      1  0.4711980000000  0.6975350000000  0.4033020000000 1.0
C      1  0.6151240000000  0.4507440000000  0.2986100000000 1.0
C      1  0.4047580000000  0.5402420000000  0.3274050000000 1.0
C      1  0.5978920000000  0.5389890000000  0.6764140000000 1.0
C      1  0.2971150000000  0.3801200000000  0.5593180000000 1.0
C      1  0.6935300000000  0.6199740000000  0.5392630000000 1.0
C      1  0.3122660000000  0.6136250000000  0.4727770000000 1.0
C      1  0.5350710000000  0.6956230000000  0.5932940000000 1.0
C      1  0.4552740000000  0.3248650000000  0.5993450000000 1.0
C      1  0.5414300000000  0.3233140000000  0.3977520000000 1.0
C      1  0.7018250000000  0.3642010000000  0.5393030000000 1.0
C      1  0.3685870000000  0.5602710000000  0.7188560000000 1.0
C      1  0.5787030000000  0.6978140000000  0.3666050000000 1.0
C      1  0.2929140000000  0.3595440000000  0.4550410000000 1.0
C      1  0.2907470000000  0.6178210000000  0.5821640000000 1.0
C      1  0.7182120000000  0.6237620000000  0.4304840000000 1.0
C      1  0.6481220000000  0.5520030000000  0.2922090000000 1.0
C      1  0.6253490000000  0.4343770000000  0.6758920000000 1.0
C      1  0.3733430000000  0.4354500000000  0.3238380000000 1.0
C      1  0.4315070000000  0.6984830000000  0.6275520000000 1.0
C      1  0.4344880000000  0.2919810000000  0.3855200000000 1.0
C      1  0.5627810000000  0.2934290000000  0.6104640000000 1.0
C      1  0.5527110000000  0.3723920000000  0.6760370000000 1.0
C      1  0.7211950000000  0.5551020000000  0.3675870000000 1.0
C      1  0.3538020000000  0.6970690000000  0.5696240000000 1.0
C      1  0.4438740000000  0.3706950000000  0.3208550000000 1.0
C      1  0.5875000000000  0.6253180000000  0.2935510000000 1.0
C      1  0.4258040000000  0.6345540000000  0.7117880000000 1.0
C      1  0.2984630000000  0.5476020000000  0.6437640000000 1.0
C      1  0.7045190000000  0.4233840000000  0.6124700000000 1.0
C      1  0.2905870000000  0.4219970000000  0.3833390000000 1.0
C      1  0.6415350000000  0.6918160000000  0.4401690000000 1.0
C      1  0.3679950000000  0.2851970000000  0.4497310000000 1.0
C      1  0.6291130000000  0.2875890000000  0.5452540000000 1.0
C      1  0.4409080000000  0.6197000000000  0.5066790000000 1.0
C      1  0.5644620000000  0.5425810000000  0.3950560000000 1.0
C      1  0.5129310000000  0.4892440000000  0.6190160000000 1.0
C      1  0.4439610000000  0.5637680000000  0.6008000000000 1.0
C      1  0.6161980000000  0.5577430000000  0.4901010000000 1.0
C      1  0.3744680000000  0.5328640000000  0.5226960000000 1.0
C      1  0.3969270000000  0.4610540000000  0.4522250000000 1.0
C      1  0.5983820000000  0.4766680000000  0.5527460000000 1.0
C      1  0.5312550000000  0.6207160000000  0.4631940000000 1.0
C      1  0.5150960000000  0.4019210000000  0.5496950000000 1.0
C      1  0.4843560000000  0.3957550000000  0.4527070000000 1.0
C      1  0.4833850000000  0.4811560000000  0.3839570000000 1.0
END
