TITL C-3036483-1610-123 4.48396711214655e-06 3375 -342.783388798091 0 0 60 (C1) n - 1
REM
REM in /home/bkarasulu/work/CARBON/AIRSS/Generating-Clusters/REBO/Higher-Symm/Only-C60
REM
REM
REM
REM
REM
REM ./C.cell (a2850807a9bf4ad07a5b6933b78d9264)
REM AIRSS Version 0.9.1 bugfix July 2018 build 013d7b7c2542+ Fri, 06 Jul 2018 19:26:36 +0100
REM compiler GCC version 9.2.1 20190827 (Red Hat 9.2.1-1)
REM options -cpp -mtune=generic -march=x86-64 -g -O0 -fpre-include=/usr/include/finclude/math-vector-fortran.h
REM seed -702677052 -4099237 851993873 651911479 -1519608491 570515894 -1483334204 -1227648562 -247369522 190133828 1843219832 -2146963295 -2097010963 26044389 1459051959 117708467 610599935 635473503 -1374589111 202549517 1586271046 1362815314 -511936265 -1382211014 -1004145854 1628040629 -1583328460 -563836633 -357384870 1942633981 -197678154 518328588 -471614414
REM
CELL 1.54180   15.00000   15.00000   15.00000   90.00000   90.00000   90.00000
LATT -1
SFAC C  
C      1  0.7506070000000  0.4635700000000  0.4157310000000 1.0
C      1  0.3413870000000  0.3058660000000  0.4225890000000 1.0
C      1  0.4088470000000  0.7244890000000  0.4260620000000 1.0
C      1  0.2441630000000  0.4653900000000  0.4146810000000 1.0
C      1  0.6506690000000  0.3062600000000  0.4294710000000 1.0
C      1  0.5985840000000  0.7344130000000  0.4277270000000 1.0
C      1  0.6520420000000  0.3657460000000  0.5266520000000 1.0
C      1  0.2875250000000  0.4397820000000  0.5179600000000 1.0
C      1  0.5506360000000  0.7047950000000  0.5274850000000 1.0
C      1  0.3406320000000  0.3624980000000  0.5207610000000 1.0
C      1  0.7084530000000  0.4411420000000  0.5200530000000 1.0
C      1  0.4567180000000  0.6984110000000  0.5268120000000 1.0
C      1  0.5564540000000  0.6088000000000  0.6674310000000 1.0
C      1  0.5635180000000  0.4263890000000  0.6703810000000 1.0
C      1  0.3934700000000  0.5065630000000  0.6412520000000 1.0
C      1  0.4486180000000  0.5986730000000  0.6750380000000 1.0
C      1  0.4529240000000  0.4178820000000  0.6492010000000 1.0
C      1  0.6185140000000  0.5176960000000  0.6517660000000 1.0
C      1  0.6298380000000  0.3628600000000  0.3420150000000 1.0
C      1  0.3193580000000  0.4521750000000  0.3358750000000 1.0
C      1  0.5561660000000  0.7065330000000  0.3397980000000 1.0
C      1  0.3631990000000  0.3625850000000  0.3392020000000 1.0
C      1  0.6712680000000  0.4547470000000  0.3413580000000 1.0
C      1  0.4561480000000  0.6950900000000  0.3403560000000 1.0
C      1  0.5345810000000  0.6001650000000  0.7767210000000 1.0
C      1  0.5629970000000  0.4273450000000  0.7845520000000 1.0
C      1  0.4085950000000  0.4947880000000  0.7481950000000 1.0
C      1  0.4363770000000  0.5832620000000  0.7877810000000 1.0
C      1  0.4670720000000  0.4127110000000  0.7612130000000 1.0
C      1  0.5949450000000  0.5203980000000  0.7590190000000 1.0
C      1  0.6265030000000  0.6293330000000  0.4491980000000 1.0
C      1  0.5415790000000  0.2805900000000  0.4184990000000 1.0
C      1  0.3258630000000  0.5377430000000  0.4370020000000 1.0
C      1  0.3783830000000  0.6221290000000  0.4513840000000 1.0
C      1  0.4433540000000  0.2647430000000  0.4134100000000 1.0
C      1  0.6769130000000  0.5430320000000  0.4407060000000 1.0
C      1  0.5533320000000  0.3590080000000  0.5846600000000 1.0
C      1  0.3251590000000  0.5335380000000  0.5699910000000 1.0
C      1  0.6178620000000  0.6307570000000  0.5821930000000 1.0
C      1  0.4404920000000  0.3497500000000  0.5740390000000 1.0
C      1  0.6815950000000  0.5373500000000  0.5736480000000 1.0
C      1  0.3894270000000  0.6262140000000  0.5841920000000 1.0
C      1  0.5478290000000  0.6029230000000  0.3136650000000 1.0
C      1  0.5442940000000  0.4249380000000  0.3157190000000 1.0
C      1  0.3950010000000  0.5174050000000  0.3104710000000 1.0
C      1  0.4411100000000  0.5976170000000  0.3100120000000 1.0
C      1  0.4472740000000  0.4239510000000  0.3121740000000 1.0
C      1  0.5943820000000  0.5210270000000  0.3179880000000 1.0
C      1  0.4073020000000  0.4583890000000  0.4403020000000 1.0
C      1  0.5459690000000  0.5568260000000  0.4533140000000 1.0
C      1  0.5504380000000  0.3918190000000  0.4446390000000 1.0
C      1  0.5940760000000  0.4686980000000  0.4490310000000 1.0
C      1  0.4563470000000  0.5502830000000  0.4522040000000 1.0
C      1  0.4525030000000  0.3777250000000  0.4369040000000 1.0
C      1  0.5880890000000  0.2745410000000  0.5200120000000 1.0
C      1  0.2331650000000  0.5381870000000  0.5028320000000 1.0
C      1  0.6644660000000  0.7119530000000  0.5181550000000 1.0
C      1  0.3983550000000  0.2666370000000  0.5144310000000 1.0
C      1  0.7711520000000  0.5348480000000  0.5034710000000 1.0
C      1  0.3434830000000  0.7070210000000  0.5186110000000 1.0
END
