TITL C-3036480-97-474 3.0527991534275e-05 3375 -347.959218271944 0 0 60 (C1) n - 1
REM
REM in /home/bkarasulu/work/CARBON/AIRSS/Generating-Clusters/REBO/Higher-Symm/Only-C60
REM
REM
REM
REM
REM
REM ./C.cell (a2850807a9bf4ad07a5b6933b78d9264)
REM AIRSS Version 0.9.1 bugfix July 2018 build 013d7b7c2542+ Fri, 06 Jul 2018 19:26:36 +0100
REM compiler GCC version 9.2.1 20190827 (Red Hat 9.2.1-1)
REM options -cpp -mtune=generic -march=x86-64 -g -O0 -fpre-include=/usr/include/finclude/math-vector-fortran.h
REM seed 1260316371 -489328542 1355213533 1246459999 1099284296 468108819 -713803433 953285403 -546433113 1183024757 -2057329247 -1611634141 -944263578 -1827249511 630895678 -444476533 1915731997 1822911312 -2127413841 1083549418 -1471264475 983515367 264844108 1325775064 255126529 260738577 1033578547 -322164394 -983911671 -863801654 478406974 -1761346082 235117830
REM
CELL 1.54180   15.00000   15.00000   15.00000   90.00000   90.00000   90.00000
LATT -1
SFAC C  
C      1  0.6799080000000  0.3260930000000  0.4802630000000 1.0
C      1  0.3582070000000  0.5285940000000  0.5770010000000 1.0
C      1  0.5712650000000  0.3699830000000  0.4170280000000 1.0
C      1  0.4250110000000  0.4868230000000  0.3495070000000 1.0
C      1  0.5117470000000  0.7094260000000  0.6410150000000 1.0
C      1  0.6729010000000  0.4707600000000  0.7196470000000 1.0
C      1  0.3304640000000  0.3423060000000  0.4280320000000 1.0
C      1  0.4455060000000  0.5708990000000  0.5786440000000 1.0
C      1  0.6292650000000  0.4030020000000  0.3565200000000 1.0
C      1  0.7010610000000  0.5593180000000  0.7311080000000 1.0
C      1  0.5024850000000  0.6814340000000  0.3025350000000 1.0
C      1  0.5336590000000  0.5299230000000  0.2068720000000 1.0
C      1  0.5218100000000  0.5097500000000  0.4002020000000 1.0
C      1  0.4475310000000  0.2899970000000  0.5832640000000 1.0
C      1  0.5913340000000  0.4997640000000  0.5549220000000 1.0
C      1  0.2872350000000  0.3903220000000  0.4999770000000 1.0
C      1  0.5704650000000  0.6874940000000  0.5487470000000 1.0
C      1  0.5336550000000  0.4436450000000  0.4881060000000 1.0
C      1  0.7247410000000  0.5726200000000  0.4705440000000 1.0
C      1  0.3895490000000  0.4337810000000  0.7324090000000 1.0
C      1  0.4543350000000  0.3924250000000  0.5292600000000 1.0
C      1  0.6729540000000  0.6552770000000  0.4724720000000 1.0
C      1  0.3221840000000  0.4886930000000  0.3570680000000 1.0
C      1  0.7142580000000  0.4107060000000  0.4588520000000 1.0
C      1  0.4137690000000  0.3133310000000  0.4609120000000 1.0
C      1  0.7010540000000  0.4858830000000  0.5394990000000 1.0
C      1  0.5761390000000  0.4228290000000  0.7087480000000 1.0
C      1  0.3889650000000  0.2943980000000  0.6518210000000 1.0
C      1  0.4290320000000  0.6817710000000  0.4540150000000 1.0
C      1  0.5167390000000  0.2792510000000  0.4977480000000 1.0
C      1  0.5195000000000  0.2908890000000  0.3863210000000 1.0
C      1  0.3063760000000  0.6812460000000  0.5649540000000 1.0
C      1  0.2713750000000  0.5631150000000  0.3742480000000 1.0
C      1  0.6383670000000  0.6026220000000  0.5675300000000 1.0
C      1  0.6041570000000  0.3639720000000  0.6164270000000 1.0
C      1  0.2728400000000  0.6457070000000  0.4103010000000 1.0
C      1  0.4626660000000  0.6663330000000  0.5477730000000 1.0
C      1  0.3271100000000  0.6104800000000  0.6253920000000 1.0
C      1  0.7064450000000  0.4980090000000  0.4075130000000 1.0
C      1  0.3350120000000  0.3890350000000  0.3434830000000 1.0
C      1  0.6171770000000  0.5323360000000  0.2454180000000 1.0
C      1  0.5600000000000  0.6230580000000  0.6729220000000 1.0
C      1  0.5949940000000  0.7184040000000  0.4482220000000 1.0
C      1  0.3563790000000  0.4302130000000  0.5708390000000 1.0
C      1  0.4680720000000  0.3033400000000  0.3090150000000 1.0
C      1  0.3289780000000  0.6874270000000  0.4722420000000 1.0
C      1  0.6799860000000  0.4318550000000  0.6273720000000 1.0
C      1  0.4637200000000  0.6047740000000  0.3782390000000 1.0
C      1  0.6048530000000  0.3124490000000  0.5376440000000 1.0
C      1  0.5159020000000  0.7247820000000  0.3961100000000 1.0
C      1  0.3615780000000  0.6075940000000  0.7148540000000 1.0
C      1  0.5259650000000  0.5469480000000  0.6227830000000 1.0
C      1  0.4487290000000  0.4701370000000  0.2447570000000 1.0
C      1  0.3542200000000  0.3822920000000  0.6631900000000 1.0
C      1  0.6207510000000  0.5082080000000  0.3444910000000 1.0
C      1  0.4942300000000  0.4581050000000  0.7381150000000 1.0
C      1  0.6613130000000  0.6224390000000  0.6745920000000 1.0
C      1  0.4588740000000  0.5836630000000  0.2658890000000 1.0
C      1  0.4094030000000  0.3731400000000  0.2830770000000 1.0
C      1  0.4137970000000  0.5369280000000  0.7495460000000 1.0
END
