TITL C-3036483-1610-923 -0.0246055850631927 3375 -368.671569859184 0 0 60 (C1) n - 1
REM
REM in /home/bkarasulu/work/CARBON/AIRSS/Generating-Clusters/REBO/Higher-Symm/Only-C60
REM
REM
REM
REM
REM
REM ./C.cell (a2850807a9bf4ad07a5b6933b78d9264)
REM AIRSS Version 0.9.1 bugfix July 2018 build 013d7b7c2542+ Fri, 06 Jul 2018 19:26:36 +0100
REM compiler GCC version 9.2.1 20190827 (Red Hat 9.2.1-1)
REM options -cpp -mtune=generic -march=x86-64 -g -O0 -fpre-include=/usr/include/finclude/math-vector-fortran.h
REM seed 282964235 1957846987 -1100344855 -269675629 1111264084 1465624061 1417353534 166314413 155550276 -2055082425 1768386430 -448883085 -399673046 -1955360200 -1367884488 1626069420 -1999256156 985883016 -578716866 1943452271 1788441853 446955685 -761888265 -1819830938 -1878357658 -1204573530 -1317863510 -2132292201 1694672174 -1533781505 -2069163823 281789197 -263833093
REM
CELL 1.54180   15.00000   15.00000   15.00000   90.00000   90.00000   90.00000
LATT -1
SFAC C  
C      1  0.4192390000000  0.7348800000000  0.5572640000000 1.0
C      1  0.4261150000000  0.5264560000000  0.7168120000000 1.0
C      1  0.4248570000000  0.2854910000000  0.5957960000000 1.0
C      1  0.4190770000000  0.3346170000000  0.3096380000000 1.0
C      1  0.4205840000000  0.6307740000000  0.2852070000000 1.0
C      1  0.4194690000000  0.7341470000000  0.4436250000000 1.0
C      1  0.4263070000000  0.5263630000000  0.2833460000000 1.0
C      1  0.4248510000000  0.2853760000000  0.4042650000000 1.0
C      1  0.4189980000000  0.3346440000000  0.6903730000000 1.0
C      1  0.4203940000000  0.6308120000000  0.7149570000000 1.0
C      1  0.5133220000000  0.4662720000000  0.2487320000000 1.0
C      1  0.5108580000000  0.7392710000000  0.3833990000000 1.0
C      1  0.5036470000000  0.6760130000000  0.6936590000000 1.0
C      1  0.5022240000000  0.3711170000000  0.7242060000000 1.0
C      1  0.5184820000000  0.2457380000000  0.4513460000000 1.0
C      1  0.5132280000000  0.4663590000000  0.7510640000000 1.0
C      1  0.5105040000000  0.7397410000000  0.6173600000000 1.0
C      1  0.5038010000000  0.6760470000000  0.3065330000000 1.0
C      1  0.5023040000000  0.3709930000000  0.2756770000000 1.0
C      1  0.5185090000000  0.2457550000000  0.5486080000000 1.0
C      1  0.6287280000000  0.4059060000000  0.6151380000000 1.0
C      1  0.6652720000000  0.3309010000000  0.4546260000000 1.0
C      1  0.6608640000000  0.4883730000000  0.3397690000000 1.0
C      1  0.6530900000000  0.6585260000000  0.4490010000000 1.0
C      1  0.6315790000000  0.5870460000000  0.6191610000000 1.0
C      1  0.6287940000000  0.4057410000000  0.3845790000000 1.0
C      1  0.6652120000000  0.3309550000000  0.5451960000000 1.0
C      1  0.6608610000000  0.4885300000000  0.6599060000000 1.0
C      1  0.6519290000000  0.6593680000000  0.5498230000000 1.0
C      1  0.6315270000000  0.5866970000000  0.3804240000000 1.0
C      1  0.5931740000000  0.5222840000000  0.7293480000000 1.0
C      1  0.5947530000000  0.2786760000000  0.5972190000000 1.0
C      1  0.5768070000000  0.3334390000000  0.3183360000000 1.0
C      1  0.5788360000000  0.6221070000000  0.2892040000000 1.0
C      1  0.5857530000000  0.7396070000000  0.5560590000000 1.0
C      1  0.5932600000000  0.5222520000000  0.2701870000000 1.0
C      1  0.5947840000000  0.2785290000000  0.4026700000000 1.0
C      1  0.5766900000000  0.3336550000000  0.6814340000000 1.0
C      1  0.5788320000000  0.6221480000000  0.7106660000000 1.0
C      1  0.5862000000000  0.7387550000000  0.4451250000000 1.0
C      1  0.5221450000000  0.4237010000000  0.5997600000000 1.0
C      1  0.4698680000000  0.3690860000000  0.4543690000000 1.0
C      1  0.4848150000000  0.5040180000000  0.3723380000000 1.0
C      1  0.4700340000000  0.6341040000000  0.4526200000000 1.0
C      1  0.5256150000000  0.5811940000000  0.5956210000000 1.0
C      1  0.5222740000000  0.4233020000000  0.4002250000000 1.0
C      1  0.4697640000000  0.3693780000000  0.5457250000000 1.0
C      1  0.4846420000000  0.5045400000000  0.6275570000000 1.0
C      1  0.4696910000000  0.6352600000000  0.5470630000000 1.0
C      1  0.5258540000000  0.5805190000000  0.4041320000000 1.0
C      1  0.3409430000000  0.3819740000000  0.7139000000000 1.0
C      1  0.3434530000000  0.2510070000000  0.4578390000000 1.0
C      1  0.3394260000000  0.4723950000000  0.2728310000000 1.0
C      1  0.3360120000000  0.7291210000000  0.3841560000000 1.0
C      1  0.3409960000000  0.6756390000000  0.6904280000000 1.0
C      1  0.3410820000000  0.3820010000000  0.2860230000000 1.0
C      1  0.3434740000000  0.2510310000000  0.5422670000000 1.0
C      1  0.3392200000000  0.4723680000000  0.7271120000000 1.0
C      1  0.3357210000000  0.7294530000000  0.6163770000000 1.0
C      1  0.3412540000000  0.6755480000000  0.3099170000000 1.0
END
