TITL C-3036486-2224-391 -5.81775192050231e-06 3375 -339.15407651363 0 0 60 (C1) n - 1
REM
REM in /home/bkarasulu/work/CARBON/AIRSS/Generating-Clusters/REBO/Higher-Symm/Only-C60
REM
REM
REM
REM
REM
REM ./C.cell (a2850807a9bf4ad07a5b6933b78d9264)
REM AIRSS Version 0.9.1 bugfix July 2018 build 013d7b7c2542+ Fri, 06 Jul 2018 19:26:36 +0100
REM compiler GCC version 9.2.1 20190827 (Red Hat 9.2.1-1)
REM options -cpp -mtune=generic -march=x86-64 -g -O0 -fpre-include=/usr/include/finclude/math-vector-fortran.h
REM seed 1837628595 -482892269 -308706708 410433162 -1578835805 2062241196 2029860422 1276621835 1481254391 -1826058574 1012498158 -246385852 -2131886412 -940116721 -1985446555 956019553 1560247437 -527975247 695292939 929244578 -1219095539 700068952 1459377981 722564324 1995249425 -949721233 -242227558 -906963538 213738011 409038206 1320373882 351659166 1434600117
REM
CELL 1.54180   15.00000   15.00000   15.00000   90.00000   90.00000   90.00000
LATT -1
SFAC C  
C      1  0.6537550000000  0.5077190000000  0.2932110000000 1.0
C      1  0.2405820000000  0.5039570000000  0.4701290000000 1.0
C      1  0.6025720000000  0.5249850000000  0.7356740000000 1.0
C      1  0.3457880000000  0.5279500000000  0.2942890000000 1.0
C      1  0.7563310000000  0.5027290000000  0.4703440000000 1.0
C      1  0.3950220000000  0.5211080000000  0.7356490000000 1.0
C      1  0.2726000000000  0.5845340000000  0.5697860000000 1.0
C      1  0.6535580000000  0.6150920000000  0.6534600000000 1.0
C      1  0.5519440000000  0.5911380000000  0.2831880000000 1.0
C      1  0.7192070000000  0.5873110000000  0.5642680000000 1.0
C      1  0.3365540000000  0.6123110000000  0.6602760000000 1.0
C      1  0.4418410000000  0.6181150000000  0.2974740000000 1.0
C      1  0.6006570000000  0.5218760000000  0.4984030000000 1.0
C      1  0.4446750000000  0.5459780000000  0.4174330000000 1.0
C      1  0.4481810000000  0.5564480000000  0.5928400000000 1.0
C      1  0.3946830000000  0.5320030000000  0.4995480000000 1.0
C      1  0.5520140000000  0.5209000000000  0.4147610000000 1.0
C      1  0.5457950000000  0.5502730000000  0.5912140000000 1.0
C      1  0.4508760000000  0.4483580000000  0.7471590000000 1.0
C      1  0.7534460000000  0.4270790000000  0.4152710000000 1.0
C      1  0.3055600000000  0.4494420000000  0.3227320000000 1.0
C      1  0.5546060000000  0.4453610000000  0.7508330000000 1.0
C      1  0.2507130000000  0.4328370000000  0.4094470000000 1.0
C      1  0.6990960000000  0.4337680000000  0.3271140000000 1.0
C      1  0.3441170000000  0.6125380000000  0.3615700000000 1.0
C      1  0.4412460000000  0.6149510000000  0.7120860000000 1.0
C      1  0.7011290000000  0.5931330000000  0.4481030000000 1.0
C      1  0.6447320000000  0.5955030000000  0.3552640000000 1.0
C      1  0.5500170000000  0.6154900000000  0.7070630000000 1.0
C      1  0.2889650000000  0.5991170000000  0.4543800000000 1.0
C      1  0.5562010000000  0.3379590000000  0.3998520000000 1.0
C      1  0.3968730000000  0.3502270000000  0.4816120000000 1.0
C      1  0.5573060000000  0.3674350000000  0.5823490000000 1.0
C      1  0.4546590000000  0.3638490000000  0.3911070000000 1.0
C      1  0.6122080000000  0.3379610000000  0.4922330000000 1.0
C      1  0.4457640000000  0.3730680000000  0.5752950000000 1.0
C      1  0.6564080000000  0.4323940000000  0.5225940000000 1.0
C      1  0.4530690000000  0.4673400000000  0.3444770000000 1.0
C      1  0.3933680000000  0.4659410000000  0.6146120000000 1.0
C      1  0.3457560000000  0.4378370000000  0.5168850000000 1.0
C      1  0.5600520000000  0.4335470000000  0.3508290000000 1.0
C      1  0.6052450000000  0.4642310000000  0.6175830000000 1.0
C      1  0.5414010000000  0.6305760000000  0.3849230000000 1.0
C      1  0.3616260000000  0.6362330000000  0.5318280000000 1.0
C      1  0.5655740000000  0.6624040000000  0.6049620000000 1.0
C      1  0.4398640000000  0.6589440000000  0.4006660000000 1.0
C      1  0.6268660000000  0.6302640000000  0.5238360000000 1.0
C      1  0.4226890000000  0.6658690000000  0.6133420000000 1.0
C      1  0.3058350000000  0.5051620000000  0.6715760000000 1.0
C      1  0.7430130000000  0.4802060000000  0.5777030000000 1.0
C      1  0.4463200000000  0.5184680000000  0.2465570000000 1.0
C      1  0.6919280000000  0.5119270000000  0.6708040000000 1.0
C      1  0.2568930000000  0.4754150000000  0.5761140000000 1.0
C      1  0.5531510000000  0.4858110000000  0.2507910000000 1.0
C      1  0.4699480000000  0.3700450000000  0.6822120000000 1.0
C      1  0.7204030000000  0.3357790000000  0.4574570000000 1.0
C      1  0.3506360000000  0.3628260000000  0.3578770000000 1.0
C      1  0.5768870000000  0.3591640000000  0.6937670000000 1.0
C      1  0.2898800000000  0.3410660000000  0.4447490000000 1.0
C      1  0.6599130000000  0.3460530000000  0.3684420000000 1.0
END
