TITL C-3036483-1610-806 0.0219818825844096 3375 -360.359931651416 0 0 60 (C1) n - 1
REM
REM in /home/bkarasulu/work/CARBON/AIRSS/Generating-Clusters/REBO/Higher-Symm/Only-C60
REM
REM
REM
REM
REM
REM ./C.cell (a2850807a9bf4ad07a5b6933b78d9264)
REM AIRSS Version 0.9.1 bugfix July 2018 build 013d7b7c2542+ Fri, 06 Jul 2018 19:26:36 +0100
REM compiler GCC version 9.2.1 20190827 (Red Hat 9.2.1-1)
REM options -cpp -mtune=generic -march=x86-64 -g -O0 -fpre-include=/usr/include/finclude/math-vector-fortran.h
REM seed -1796233943 -2096379185 1968480282 32838034 -1084965502 472241161 671318528 1975216794 -1341259134 -322182103 -653826875 -156526526 -412581731 1688088387 904556093 2101508891 -1826171853 668376958 -1594310684 -1992655778 465979555 -1897368751 -1588021697 1808158866 2056644598 425831180 1239951023 1689524441 1490227055 1346934618 -1106161447 -383173812 1069309933
REM
CELL 1.54180   15.00000   15.00000   15.00000   90.00000   90.00000   90.00000
LATT -1
SFAC C  
C      1  0.6819930000000  0.4592320000000  0.6459800000000 1.0
C      1  0.3257750000000  0.4696020000000  0.3364350000000 1.0
C      1  0.3261390000000  0.4599180000000  0.6457420000000 1.0
C      1  0.6758230000000  0.4680180000000  0.3389200000000 1.0
C      1  0.6761350000000  0.6096950000000  0.5800960000000 1.0
C      1  0.3299190000000  0.6156270000000  0.4117400000000 1.0
C      1  0.3248140000000  0.6117850000000  0.5789210000000 1.0
C      1  0.6720270000000  0.6140150000000  0.4139430000000 1.0
C      1  0.6250080000000  0.3757600000000  0.6612010000000 1.0
C      1  0.3761580000000  0.3782200000000  0.3281330000000 1.0
C      1  0.3868210000000  0.3787770000000  0.6572290000000 1.0
C      1  0.6240700000000  0.3773450000000  0.3304720000000 1.0
C      1  0.6096400000000  0.3164070000000  0.5816310000000 1.0
C      1  0.3771860000000  0.3263890000000  0.4079780000000 1.0
C      1  0.4009540000000  0.3206990000000  0.5755000000000 1.0
C      1  0.6214120000000  0.3252500000000  0.4102810000000 1.0
C      1  0.4151820000000  0.5851340000000  0.7108260000000 1.0
C      1  0.5548220000000  0.5758980000000  0.3056900000000 1.0
C      1  0.5812210000000  0.5751130000000  0.7067020000000 1.0
C      1  0.4477250000000  0.5766890000000  0.3047070000000 1.0
C      1  0.6708280000000  0.5188160000000  0.4189370000000 1.0
C      1  0.3327140000000  0.5169180000000  0.5704440000000 1.0
C      1  0.3305400000000  0.5205200000000  0.4162310000000 1.0
C      1  0.6711320000000  0.5148720000000  0.5698000000000 1.0
C      1  0.3785090000000  0.2357480000000  0.4061020000000 1.0
C      1  0.6541870000000  0.2346700000000  0.5825150000000 1.0
C      1  0.6222590000000  0.2346210000000  0.4074650000000 1.0
C      1  0.3563850000000  0.2380610000000  0.5793640000000 1.0
C      1  0.5484400000000  0.7115650000000  0.4021410000000 1.0
C      1  0.4525920000000  0.7066850000000  0.6041740000000 1.0
C      1  0.4546190000000  0.7119930000000  0.4015090000000 1.0
C      1  0.5479670000000  0.7048040000000  0.6053470000000 1.0
C      1  0.5529200000000  0.4070960000000  0.7301850000000 1.0
C      1  0.4538320000000  0.4058030000000  0.2603370000000 1.0
C      1  0.4580930000000  0.4098350000000  0.7275150000000 1.0
C      1  0.5480030000000  0.4054330000000  0.2611690000000 1.0
C      1  0.6248870000000  0.4899500000000  0.7280090000000 1.0
C      1  0.3981250000000  0.4940780000000  0.2682250000000 1.0
C      1  0.3834720000000  0.4905540000000  0.7277170000000 1.0
C      1  0.6044610000000  0.4931930000000  0.2697520000000 1.0
C      1  0.4000060000000  0.6497270000000  0.3538980000000 1.0
C      1  0.6132720000000  0.6441430000000  0.6477490000000 1.0
C      1  0.6027900000000  0.6484840000000  0.3552970000000 1.0
C      1  0.3845990000000  0.6501190000000  0.6475240000000 1.0
C      1  0.4168930000000  0.7146500000000  0.5018980000000 1.0
C      1  0.5851020000000  0.7137670000000  0.5032700000000 1.0
C      1  0.3805230000000  0.3749700000000  0.4880170000000 1.0
C      1  0.6170720000000  0.3730910000000  0.4908040000000 1.0
C      1  0.3971340000000  0.4838120000000  0.4915920000000 1.0
C      1  0.6019900000000  0.4816990000000  0.4935680000000 1.0
C      1  0.5000680000000  0.5065860000000  0.3777830000000 1.0
C      1  0.4960130000000  0.5395670000000  0.6758310000000 1.0
C      1  0.3299320000000  0.6608210000000  0.4966480000000 1.0
C      1  0.6718050000000  0.6598020000000  0.4986150000000 1.0
C      1  0.4948060000000  0.4750000000000  0.6066030000000 1.0
C      1  0.4981320000000  0.4124550000000  0.4380320000000 1.0
C      1  0.5005510000000  0.6372630000000  0.5015020000000 1.0
C      1  0.5065000000000  0.3137590000000  0.5688860000000 1.0
C      1  0.4984980000000  0.4105620000000  0.5370970000000 1.0
C      1  0.5001830000000  0.5343680000000  0.4876700000000 1.0
END
