TITL C-3036481-494-771 6.60928287507001e-06 3375 -352.124523560701 0 0 60 (C1) n - 1
REM
REM in /home/bkarasulu/work/CARBON/AIRSS/Generating-Clusters/REBO/Higher-Symm/Only-C60
REM
REM
REM
REM
REM
REM ./C.cell (a2850807a9bf4ad07a5b6933b78d9264)
REM AIRSS Version 0.9.1 bugfix July 2018 build 013d7b7c2542+ Fri, 06 Jul 2018 19:26:36 +0100
REM compiler GCC version 9.2.1 20190827 (Red Hat 9.2.1-1)
REM options -cpp -mtune=generic -march=x86-64 -g -O0 -fpre-include=/usr/include/finclude/math-vector-fortran.h
REM seed 690080919 964484310 -1887948812 514597258 -101279969 1379263090 1218573905 378409148 -1179622074 -486238520 -1093944111 -481025064 -1590484101 -1577288957 1062887043 -932559429 -153554724 7787616 2126830827 1725427570 -851947732 -2009218534 -1339192162 -1956089727 -383538410 -992054367 -154091306 -1444409104 -733028550 -7047131 -794868939 678959395 -216863025
REM
CELL 1.54180   15.00000   15.00000   15.00000   90.00000   90.00000   90.00000
LATT -1
SFAC C  
C      1  0.7766470000000  0.4922720000000  0.4305060000000 1.0
C      1  0.4927970000000  0.4388440000000  0.7617500000000 1.0
C      1  0.4120590000000  0.7802550000000  0.4988590000000 1.0
C      1  0.7824930000000  0.4957880000000  0.5629780000000 1.0
C      1  0.2068670000000  0.4988410000000  0.5654650000000 1.0
C      1  0.2260960000000  0.5033850000000  0.4343160000000 1.0
C      1  0.4957480000000  0.5631130000000  0.2248920000000 1.0
C      1  0.4917430000000  0.4302580000000  0.2215210000000 1.0
C      1  0.4953350000000  0.5714150000000  0.7680140000000 1.0
C      1  0.4207090000000  0.2365400000000  0.4852330000000 1.0
C      1  0.5782810000000  0.7688200000000  0.5011770000000 1.0
C      1  0.5829000000000  0.2052020000000  0.5010090000000 1.0
C      1  0.7871730000000  0.4125610000000  0.4984420000000 1.0
C      1  0.4968510000000  0.7670390000000  0.4346930000000 1.0
C      1  0.4121770000000  0.5068400000000  0.7700120000000 1.0
C      1  0.7730480000000  0.5779490000000  0.4914110000000 1.0
C      1  0.2032120000000  0.5830980000000  0.5013320000000 1.0
C      1  0.2330100000000  0.4197630000000  0.4975950000000 1.0
C      1  0.4971020000000  0.2232530000000  0.5594110000000 1.0
C      1  0.5072580000000  0.2257770000000  0.4272490000000 1.0
C      1  0.4942250000000  0.7873110000000  0.5657450000000 1.0
C      1  0.4101210000000  0.4961630000000  0.2343630000000 1.0
C      1  0.5757160000000  0.5023700000000  0.7647710000000 1.0
C      1  0.5776880000000  0.4975610000000  0.2174760000000 1.0
C      1  0.3886310000000  0.3331930000000  0.4909840000000 1.0
C      1  0.3167650000000  0.5224290000000  0.4017340000000 1.0
C      1  0.5122940000000  0.3671960000000  0.3098670000000 1.0
C      1  0.3655150000000  0.6930240000000  0.5025410000000 1.0
C      1  0.6460710000000  0.2771040000000  0.4994250000000 1.0
C      1  0.6093120000000  0.6771780000000  0.5183460000000 1.0
C      1  0.2822810000000  0.5027240000000  0.6261680000000 1.0
C      1  0.6930090000000  0.5023530000000  0.6222290000000 1.0
C      1  0.6959950000000  0.4813880000000  0.3700800000000 1.0
C      1  0.4988880000000  0.6372660000000  0.6903740000000 1.0
C      1  0.4887260000000  0.3852300000000  0.6754570000000 1.0
C      1  0.4925020000000  0.6228040000000  0.3188060000000 1.0
C      1  0.3713300000000  0.5078660000000  0.3295490000000 1.0
C      1  0.3277190000000  0.3986270000000  0.5123900000000 1.0
C      1  0.5290990000000  0.3108000000000  0.3821620000000 1.0
C      1  0.3577700000000  0.5047940000000  0.6879090000000 1.0
C      1  0.6339410000000  0.4860930000000  0.3037940000000 1.0
C      1  0.6196010000000  0.5081020000000  0.6770990000000 1.0
C      1  0.2839390000000  0.6363880000000  0.5028020000000 1.0
C      1  0.6791380000000  0.6193070000000  0.5041240000000 1.0
C      1  0.7092280000000  0.3506090000000  0.4964750000000 1.0
C      1  0.4956920000000  0.7130100000000  0.6287580000000 1.0
C      1  0.4892480000000  0.6762750000000  0.3945220000000 1.0
C      1  0.4931400000000  0.3120280000000  0.6193180000000 1.0
C      1  0.4702830000000  0.5258130000000  0.3494050000000 1.0
C      1  0.4529810000000  0.4771410000000  0.6320770000000 1.0
C      1  0.5401360000000  0.4628930000000  0.3403500000000 1.0
C      1  0.3713940000000  0.4854880000000  0.5575610000000 1.0
C      1  0.5807150000000  0.3621310000000  0.4651250000000 1.0
C      1  0.3695410000000  0.5612340000000  0.4874140000000 1.0
C      1  0.6563750000000  0.4447160000000  0.4625270000000 1.0
C      1  0.6577870000000  0.5216790000000  0.5268980000000 1.0
C      1  0.5279880000000  0.5456600000000  0.6326850000000 1.0
C      1  0.5232130000000  0.6282410000000  0.5599720000000 1.0
C      1  0.4867590000000  0.3489750000000  0.5189420000000 1.0
C      1  0.4537370000000  0.6258250000000  0.4839080000000 1.0
END
