TITL C-3036481-494-25 3.59821546051269e-05 3375 -336.375462590331 0 0 60 (C1) n - 1
REM
REM in /home/bkarasulu/work/CARBON/AIRSS/Generating-Clusters/REBO/Higher-Symm/Only-C60
REM
REM
REM
REM
REM
REM ./C.cell (a2850807a9bf4ad07a5b6933b78d9264)
REM AIRSS Version 0.9.1 bugfix July 2018 build 013d7b7c2542+ Fri, 06 Jul 2018 19:26:36 +0100
REM compiler GCC version 9.2.1 20190827 (Red Hat 9.2.1-1)
REM options -cpp -mtune=generic -march=x86-64 -g -O0 -fpre-include=/usr/include/finclude/math-vector-fortran.h
REM seed -2048405973 638949140 319169840 526167440 1006617836 -443726917 470513639 -1531919930 141999397 -1229881378 244276604 -934021509 1934045947 1595879183 623025443 -1016819612 -1490349439 2113485918 -1962843362 -919881973 -226387675 -1089168057 84930489 -724772944 615335038 694281545 -280172902 -1592380826 -2106188686 1273897503 1651510348 1710637823 -599385161
REM
CELL 1.54180   15.00000   15.00000   15.00000   90.00000   90.00000   90.00000
LATT -1
SFAC C  
C      1  0.3302020000000  0.4261480000000  0.5777040000000 1.0
C      1  0.7277670000000  0.4981120000000  0.5809070000000 1.0
C      1  0.7723150000000  0.4202050000000  0.5356040000000 1.0
C      1  0.6421450000000  0.4858060000000  0.6399710000000 1.0
C      1  0.2678410000000  0.4337710000000  0.4345170000000 1.0
C      1  0.5958660000000  0.4036410000000  0.3205760000000 1.0
C      1  0.3430370000000  0.6270350000000  0.6420070000000 1.0
C      1  0.6121760000000  0.4103270000000  0.7020790000000 1.0
C      1  0.5086750000000  0.4165460000000  0.7488900000000 1.0
C      1  0.4397330000000  0.5616090000000  0.5785220000000 1.0
C      1  0.4914830000000  0.6476800000000  0.5362790000000 1.0
C      1  0.3582210000000  0.4258430000000  0.3778420000000 1.0
C      1  0.4329840000000  0.5724300000000  0.3014430000000 1.0
C      1  0.5743950000000  0.4928400000000  0.2671120000000 1.0
C      1  0.6486630000000  0.5737510000000  0.2738370000000 1.0
C      1  0.3392190000000  0.5272200000000  0.3398240000000 1.0
C      1  0.3736670000000  0.5618280000000  0.4631790000000 1.0
C      1  0.7138070000000  0.3536360000000  0.4979000000000 1.0
C      1  0.6204420000000  0.5086430000000  0.4469170000000 1.0
C      1  0.4556450000000  0.2072080000000  0.4038770000000 1.0
C      1  0.3346050000000  0.5345770000000  0.5872450000000 1.0
C      1  0.6158260000000  0.3810770000000  0.4861010000000 1.0
C      1  0.4955960000000  0.2892120000000  0.4189020000000 1.0
C      1  0.6589270000000  0.6458640000000  0.5167460000000 1.0
C      1  0.3514890000000  0.6918620000000  0.4571240000000 1.0
C      1  0.4504760000000  0.3130100000000  0.6135850000000 1.0
C      1  0.3383260000000  0.7065480000000  0.5608890000000 1.0
C      1  0.4610430000000  0.3259420000000  0.7154750000000 1.0
C      1  0.4413870000000  0.7495010000000  0.5375780000000 1.0
C      1  0.7249280000000  0.4770710000000  0.4493940000000 1.0
C      1  0.4878710000000  0.4693840000000  0.5715150000000 1.0
C      1  0.6230920000000  0.5849930000000  0.3807110000000 1.0
C      1  0.2831960000000  0.5176400000000  0.4901780000000 1.0
C      1  0.3902350000000  0.5894630000000  0.7381670000000 1.0
C      1  0.4390690000000  0.3841570000000  0.4460070000000 1.0
C      1  0.5161210000000  0.3505470000000  0.3342470000000 1.0
C      1  0.5401080000000  0.2758280000000  0.5830700000000 1.0
C      1  0.4205290000000  0.7110330000000  0.6406350000000 1.0
C      1  0.4532840000000  0.5444000000000  0.4301520000000 1.0
C      1  0.4738850000000  0.6204560000000  0.6655450000000 1.0
C      1  0.3906210000000  0.6476290000000  0.3591500000000 1.0
C      1  0.7162700000000  0.5713760000000  0.5150920000000 1.0
C      1  0.5384700000000  0.6026100000000  0.2801250000000 1.0
C      1  0.5437530000000  0.6659440000000  0.3743720000000 1.0
C      1  0.5663970000000  0.3208570000000  0.6772250000000 1.0
C      1  0.6400060000000  0.6820520000000  0.4284950000000 1.0
C      1  0.2645740000000  0.3904400000000  0.5241060000000 1.0
C      1  0.5881050000000  0.4698480000000  0.5485790000000 1.0
C      1  0.5014760000000  0.4940430000000  0.3461090000000 1.0
C      1  0.2922910000000  0.6123950000000  0.3994110000000 1.0
C      1  0.5328680000000  0.4380520000000  0.4326500000000 1.0
C      1  0.5803030000000  0.5790590000000  0.6598220000000 1.0
C      1  0.5849480000000  0.6416820000000  0.5751990000000 1.0
C      1  0.6734930000000  0.4134520000000  0.3706570000000 1.0
C      1  0.5131710000000  0.4938050000000  0.6704770000000 1.0
C      1  0.4231850000000  0.3921680000000  0.5543890000000 1.0
C      1  0.4427660000000  0.5084450000000  0.7529380000000 1.0
C      1  0.4336780000000  0.3853330000000  0.3095010000000 1.0
C      1  0.5623640000000  0.2955500000000  0.4951580000000 1.0
C      1  0.4629850000000  0.6784140000000  0.4342960000000 1.0
END
