TITL C-3036483-1610-527 -6.44482491584046e-06 3375 -341.280004525488 0 0 60 (C1) n - 1
REM
REM in /home/bkarasulu/work/CARBON/AIRSS/Generating-Clusters/REBO/Higher-Symm/Only-C60
REM
REM
REM
REM
REM
REM ./C.cell (a2850807a9bf4ad07a5b6933b78d9264)
REM AIRSS Version 0.9.1 bugfix July 2018 build 013d7b7c2542+ Fri, 06 Jul 2018 19:26:36 +0100
REM compiler GCC version 9.2.1 20190827 (Red Hat 9.2.1-1)
REM options -cpp -mtune=generic -march=x86-64 -g -O0 -fpre-include=/usr/include/finclude/math-vector-fortran.h
REM seed -902985809 483404336 1530494248 -695089758 -457731253 -756813812 961425851 -1652726993 282771823 113202918 -437659066 -395451360 153316061 813378826 -1595991000 -451387822 -1638457307 -1144944961 1833888521 528395266 -269253912 590189487 -1703197888 605795346 727050996 794339676 -438921731 -112918402 -1944396146 241413736 -1752642950 2053501342 -769561382
REM
CELL 1.54180   15.00000   15.00000   15.00000   90.00000   90.00000   90.00000
LATT -1
SFAC C  
C      1  0.7194950000000  0.7016210000000  0.5340090000000 1.0
C      1  0.6960500000000  0.2734070000000  0.5527000000000 1.0
C      1  0.2864300000000  0.3015170000000  0.5355770000000 1.0
C      1  0.2779760000000  0.6830350000000  0.5499460000000 1.0
C      1  0.7114780000000  0.7015330000000  0.4402880000000 1.0
C      1  0.6905100000000  0.2567100000000  0.4601090000000 1.0
C      1  0.2916400000000  0.3020960000000  0.4417420000000 1.0
C      1  0.2766690000000  0.6863100000000  0.4570820000000 1.0
C      1  0.5748070000000  0.5429650000000  0.6920780000000 1.0
C      1  0.5369090000000  0.4435670000000  0.6877850000000 1.0
C      1  0.4303610000000  0.4600270000000  0.6911530000000 1.0
C      1  0.4694780000000  0.5578920000000  0.6919660000000 1.0
C      1  0.5605220000000  0.5319660000000  0.2980780000000 1.0
C      1  0.5448130000000  0.4260430000000  0.2980240000000 1.0
C      1  0.4451720000000  0.4668620000000  0.2986270000000 1.0
C      1  0.4616560000000  0.5720400000000  0.3033450000000 1.0
C      1  0.6576740000000  0.5811330000000  0.6633040000000 1.0
C      1  0.5716570000000  0.3577980000000  0.6541410000000 1.0
C      1  0.3466920000000  0.4236270000000  0.6628070000000 1.0
C      1  0.4316440000000  0.6434990000000  0.6631900000000 1.0
C      1  0.6429960000000  0.5752320000000  0.3235510000000 1.0
C      1  0.5777090000000  0.3410140000000  0.3297800000000 1.0
C      1  0.3602540000000  0.4284260000000  0.3242540000000 1.0
C      1  0.4270120000000  0.6552000000000  0.3375570000000 1.0
C      1  0.4720090000000  0.3364040000000  0.4522650000000 1.0
C      1  0.3179830000000  0.5295600000000  0.4446550000000 1.0
C      1  0.5363820000000  0.6761910000000  0.4500150000000 1.0
C      1  0.6884310000000  0.4821110000000  0.4462700000000 1.0
C      1  0.4606190000000  0.3319410000000  0.5491170000000 1.0
C      1  0.3132000000000  0.5270490000000  0.5427530000000 1.0
C      1  0.5348010000000  0.6726520000000  0.5477590000000 1.0
C      1  0.6844110000000  0.4769760000000  0.5435180000000 1.0
C      1  0.3457110000000  0.3739410000000  0.4080360000000 1.0
C      1  0.3525440000000  0.6537920000000  0.3980480000000 1.0
C      1  0.6543060000000  0.6310970000000  0.4072870000000 1.0
C      1  0.6352920000000  0.3195300000000  0.4124020000000 1.0
C      1  0.3366970000000  0.3726530000000  0.5759150000000 1.0
C      1  0.3551180000000  0.6468030000000  0.6050670000000 1.0
C      1  0.6682080000000  0.6322440000000  0.5760270000000 1.0
C      1  0.6410770000000  0.3485710000000  0.5864780000000 1.0
C      1  0.5773750000000  0.4629930000000  0.5623540000000 1.0
C      1  0.4712410000000  0.4412820000000  0.5645020000000 1.0
C      1  0.4209240000000  0.5391370000000  0.5626080000000 1.0
C      1  0.5261690000000  0.5618910000000  0.5603620000000 1.0
C      1  0.5803500000000  0.4736800000000  0.4299470000000 1.0
C      1  0.4758020000000  0.4465350000000  0.4315370000000 1.0
C      1  0.4244260000000  0.5461070000000  0.4298150000000 1.0
C      1  0.5284900000000  0.5685920000000  0.4274050000000 1.0
C      1  0.5096540000000  0.2878790000000  0.3813050000000 1.0
C      1  0.2878490000000  0.4862650000000  0.3657230000000 1.0
C      1  0.4952240000000  0.7146090000000  0.3724200000000 1.0
C      1  0.7186210000000  0.5221680000000  0.3653970000000 1.0
C      1  0.5003550000000  0.2968820000000  0.6285430000000 1.0
C      1  0.2776350000000  0.4839070000000  0.6193010000000 1.0
C      1  0.4984770000000  0.7052010000000  0.6298230000000 1.0
C      1  0.7231260000000  0.5186440000000  0.6187660000000 1.0
C      1  0.3880880000000  0.6276730000000  0.4999350000000 1.0
C      1  0.6180400000000  0.5827850000000  0.4972150000000 1.0
C      1  0.6087410000000  0.3840200000000  0.4867850000000 1.0
C      1  0.3830140000000  0.4247160000000  0.4945370000000 1.0
END
