TITL C-3036483-1610-205 1.63751493733344e-05 3375 -332.283513745434 0 0 60 (C2) n - 1
REM
REM in /home/bkarasulu/work/CARBON/AIRSS/Generating-Clusters/REBO/Higher-Symm/Only-C60
REM
REM
REM
REM
REM
REM ./C.cell (a2850807a9bf4ad07a5b6933b78d9264)
REM AIRSS Version 0.9.1 bugfix July 2018 build 013d7b7c2542+ Fri, 06 Jul 2018 19:26:36 +0100
REM compiler GCC version 9.2.1 20190827 (Red Hat 9.2.1-1)
REM options -cpp -mtune=generic -march=x86-64 -g -O0 -fpre-include=/usr/include/finclude/math-vector-fortran.h
REM seed 1601767978 1553321699 1007232750 -1094107791 -1292364865 -1535082422 1388737510 -1815726096 -390981227 -1984801142 1268210385 1829996237 -1031240734 1302276074 1500389863 -23630045 -1395770474 224619529 337951786 809070851 -565105214 -437033266 -1978598928 -352535251 1147696049 1609920987 -1410420371 864674512 664513923 -508216304 1517616583 1255519347 523909471
REM
CELL 1.54180   15.00000   15.00000   15.00000   90.00000   90.00000   90.00000
LATT -1
SFAC C  
C      1  0.4704920000000  0.4015090000000  0.6101620000000 1.0
C      1  0.4731350000000  0.3982760000000  0.4028830000000 1.0
C      1  0.4704920000000  0.5984910000000  0.3898380000000 1.0
C      1  0.4731350000000  0.6017240000000  0.5971170000000 1.0
C      1  0.5664270000000  0.5557450000000  0.7126180000000 1.0
C      1  0.5649880000000  0.2931670000000  0.5652220000000 1.0
C      1  0.5664270000000  0.4442550000000  0.2873820000000 1.0
C      1  0.5649880000000  0.7068330000000  0.4347780000000 1.0
C      1  0.6136640000000  0.4877650000000  0.6403160000000 1.0
C      1  0.6111700000000  0.3597670000000  0.4948580000000 1.0
C      1  0.6136640000000  0.5122350000000  0.3596840000000 1.0
C      1  0.6111700000000  0.6402330000000  0.5051420000000 1.0
C      1  0.3524760000000  0.4040590000000  0.3503540000000 1.0
C      1  0.3497800000000  0.6497590000000  0.3780820000000 1.0
C      1  0.3524760000000  0.5959410000000  0.6496460000000 1.0
C      1  0.3497800000000  0.3502410000000  0.6219180000000 1.0
C      1  0.5672380000000  0.3058290000000  0.4062540000000 1.0
C      1  0.5660340000000  0.5897700000000  0.2991050000000 1.0
C      1  0.5672380000000  0.6941710000000  0.5937460000000 1.0
C      1  0.5660340000000  0.4102300000000  0.7008950000000 1.0
C      1  0.5245330000000  0.4435750000000  0.5516390000000 1.0
C      1  0.5238590000000  0.4551360000000  0.4511150000000 1.0
C      1  0.5245330000000  0.5564250000000  0.4483610000000 1.0
C      1  0.5238590000000  0.5448640000000  0.5488850000000 1.0
C      1  0.5582990000000  0.6808810000000  0.3344980000000 1.0
C      1  0.5589170000000  0.6551860000000  0.6827190000000 1.0
C      1  0.5582990000000  0.3191190000000  0.6655020000000 1.0
C      1  0.5589170000000  0.3448140000000  0.3172810000000 1.0
C      1  0.4711370000000  0.4651590000000  0.2294440000000 1.0
C      1  0.4689920000000  0.7571780000000  0.4637420000000 1.0
C      1  0.4711360000000  0.5348410000000  0.7705560000000 1.0
C      1  0.4689920000000  0.2428220000000  0.5362580000000 1.0
C      1  0.3582640000000  0.3461800000000  0.4409140000000 1.0
C      1  0.3593040000000  0.5442800000000  0.3451680000000 1.0
C      1  0.3582630000000  0.6538200000000  0.5590860000000 1.0
C      1  0.3593040000000  0.4557200000000  0.6548320000000 1.0
C      1  0.4609640000000  0.2958370000000  0.4445000000000 1.0
C      1  0.4610340000000  0.5505120000000  0.2922910000000 1.0
C      1  0.4609640000000  0.7041630000000  0.5555000000000 1.0
C      1  0.4610330000000  0.4494880000000  0.7077090000000 1.0
C      1  0.4509840000000  0.3806750000000  0.2973900000000 1.0
C      1  0.4504750000000  0.7028030000000  0.3686820000000 1.0
C      1  0.4509840000000  0.6193250000000  0.7026100000000 1.0
C      1  0.4504750000000  0.2971970000000  0.6313180000000 1.0
C      1  0.3419540000000  0.5219400000000  0.5639280000000 1.0
C      1  0.3395700000000  0.4148530000000  0.5296360000000 1.0
C      1  0.3419540000000  0.4780600000000  0.4360710000000 1.0
C      1  0.3395700000000  0.5851470000000  0.4703640000000 1.0
C      1  0.6613790000000  0.5667530000000  0.5755070000000 1.0
C      1  0.6609530000000  0.4335220000000  0.5588790000000 1.0
C      1  0.6613790000000  0.4332470000000  0.4244930000000 1.0
C      1  0.6609530000000  0.5664780000000  0.4411210000000 1.0
C      1  0.3618760000000  0.5298940000000  0.7405060000000 1.0
C      1  0.3635790000000  0.2845690000000  0.5329360000000 1.0
C      1  0.3618760000000  0.4701060000000  0.2594940000000 1.0
C      1  0.3635790000000  0.7154310000000  0.4670640000000 1.0
C      1  0.7472860000000  0.5833580000000  0.5932400000000 1.0
C      1  0.7412390000000  0.4659220000000  0.5304300000000 1.0
C      1  0.7472860000000  0.4166420000000  0.4067610000000 1.0
C      1  0.7412390000000  0.5340780000000  0.4695690000000 1.0
END
