TITL C-3036481-494-244 -4.89394973444989e-06 3375 -353.263873856099 0 0 60 (C4h) n - 1
REM
REM in /home/bkarasulu/work/CARBON/AIRSS/Generating-Clusters/REBO/Higher-Symm/Only-C60
REM
REM
REM
REM
REM
REM ./C.cell (a2850807a9bf4ad07a5b6933b78d9264)
REM AIRSS Version 0.9.1 bugfix July 2018 build 013d7b7c2542+ Fri, 06 Jul 2018 19:26:36 +0100
REM compiler GCC version 9.2.1 20190827 (Red Hat 9.2.1-1)
REM options -cpp -mtune=generic -march=x86-64 -g -O0 -fpre-include=/usr/include/finclude/math-vector-fortran.h
REM seed -785353214 -1273652428 -1465173 -1329419607 -261713762 460565222 -1008317479 1836515612 2076298779 1861843532 2065097835 -1925779330 1470372368 161119910 1391766959 -2129497616 1463314106 172877102 -450771562 264579415 -1906350357 433732418 -1454170527 -1618977184 700824281 1153055730 -653008622 1604319647 -1864813219 108743430 81738033 -709622061 -1166774605
REM
CELL 1.54180   15.00000   15.00000   15.00000   90.00000   90.00000   90.00000
LATT -1
SFAC C  
C      1  0.6808740000000  0.5620020000000  0.6080160000000 1.0
C      1  0.6808740000000  0.3919840000000  0.5620020000000 1.0
C      1  0.6808740000000  0.4379980000000  0.3919840000000 1.0
C      1  0.6808740000000  0.6080160000000  0.4379980000000 1.0
C      1  0.3165000000000  0.5620020000000  0.6080160000000 1.0
C      1  0.3165000000000  0.3919840000000  0.5620020000000 1.0
C      1  0.3165000000000  0.4379980000000  0.3919840000000 1.0
C      1  0.3165000000000  0.6080160000000  0.4379980000000 1.0
C      1  0.4527590000000  0.4537150000000  0.1989340000000 1.0
C      1  0.4527590000000  0.8010660000000  0.4537150000000 1.0
C      1  0.4527590000000  0.5462850000000  0.8010660000000 1.0
C      1  0.4527590000000  0.1989340000000  0.5462850000000 1.0
C      1  0.5446150000000  0.4537150000000  0.1989340000000 1.0
C      1  0.5446150000000  0.8010660000000  0.4537150000000 1.0
C      1  0.5446150000000  0.5462850000000  0.8010660000000 1.0
C      1  0.5446150000000  0.1989340000000  0.5462850000000 1.0
C      1  0.4101920000000  0.4934260000000  0.2728510000000 1.0
C      1  0.4101920000000  0.7271490000000  0.4934260000000 1.0
C      1  0.4101920000000  0.5065740000000  0.7271490000000 1.0
C      1  0.4101920000000  0.2728510000000  0.5065740000000 1.0
C      1  0.5871830000000  0.4934260000000  0.2728510000000 1.0
C      1  0.5871830000000  0.7271490000000  0.4934260000000 1.0
C      1  0.5871830000000  0.5065740000000  0.7271490000000 1.0
C      1  0.5871830000000  0.2728510000000  0.5065740000000 1.0
C      1  0.4094670000000  0.3603560000000  0.5574760000000 1.0
C      1  0.4094670000000  0.4425240000000  0.3603560000000 1.0
C      1  0.4094670000000  0.6396440000000  0.4425240000000 1.0
C      1  0.4094670000000  0.5574760000000  0.6396440000000 1.0
C      1  0.5879070000000  0.3603560000000  0.5574760000000 1.0
C      1  0.5879070000000  0.4425240000000  0.3603560000000 1.0
C      1  0.5879070000000  0.6396440000000  0.4425240000000 1.0
C      1  0.5879070000000  0.5574760000000  0.6396440000000 1.0
C      1  0.2521100000000  0.5209910000000  0.4225520000000 1.0
C      1  0.2521100000000  0.5774480000000  0.5209910000000 1.0
C      1  0.2521100000000  0.4790090000000  0.5774480000000 1.0
C      1  0.2521100000000  0.4225520000000  0.4790090000000 1.0
C      1  0.7452640000000  0.5209910000000  0.4225520000000 1.0
C      1  0.7452640000000  0.5774480000000  0.5209910000000 1.0
C      1  0.7452640000000  0.4790090000000  0.5774480000000 1.0
C      1  0.7452640000000  0.4225520000000  0.4790090000000 1.0
C      1  0.5447970000000  0.6370470000000  0.3481750000000 1.0
C      1  0.5447970000000  0.6518250000000  0.6370470000000 1.0
C      1  0.5447970000000  0.3629530000000  0.6518250000000 1.0
C      1  0.5447970000000  0.3481750000000  0.3629530000000 1.0
C      1  0.4525780000000  0.6370470000000  0.3481750000000 1.0
C      1  0.4525780000000  0.6518250000000  0.6370470000000 1.0
C      1  0.4525780000000  0.3629530000000  0.6518250000000 1.0
C      1  0.4525780000000  0.3481750000000  0.3629530000000 1.0
C      1  0.4075460000000  0.4130160000000  0.7173980000000 1.0
C      1  0.4075460000000  0.2826020000000  0.4130160000000 1.0
C      1  0.4075460000000  0.5869840000000  0.2826020000000 1.0
C      1  0.4075460000000  0.7173980000000  0.5869840000000 1.0
C      1  0.5898290000000  0.4130160000000  0.7173980000000 1.0
C      1  0.5898290000000  0.2826020000000  0.4130160000000 1.0
C      1  0.5898290000000  0.5869840000000  0.2826020000000 1.0
C      1  0.5898290000000  0.7173980000000  0.5869840000000 1.0
C      1  0.4986870000000  0.4255800000000  0.5305310000000 1.0
C      1  0.4986870000000  0.5744200000000  0.4694690000000 1.0
C      1  0.4986870000000  0.4694690000000  0.4255800000000 1.0
C      1  0.4986870000000  0.5305310000000  0.5744200000000 1.0
END
