TITL C-3036481-494-970 2.56164520657261e-05 3375 -336.948254398932 0 0 60 (C1) n - 1
REM
REM in /home/bkarasulu/work/CARBON/AIRSS/Generating-Clusters/REBO/Higher-Symm/Only-C60
REM
REM
REM
REM
REM
REM ./C.cell (a2850807a9bf4ad07a5b6933b78d9264)
REM AIRSS Version 0.9.1 bugfix July 2018 build 013d7b7c2542+ Fri, 06 Jul 2018 19:26:36 +0100
REM compiler GCC version 9.2.1 20190827 (Red Hat 9.2.1-1)
REM options -cpp -mtune=generic -march=x86-64 -g -O0 -fpre-include=/usr/include/finclude/math-vector-fortran.h
REM seed -1657347080 -18637792 -311546853 -176164213 947130637 1787544933 346901260 -1793153181 -1508808791 -472734670 1073136963 -1574956975 -49341438 -568159817 -829815379 50512120 1476601232 -1622268068 -867707311 1191463190 1336731592 133164367 1632843213 175324461 1401964517 797377157 2044589475 -657217441 596876530 1576820188 1452934777 543683592 2063547320
REM
CELL 1.54180   15.00000   15.00000   15.00000   90.00000   90.00000   90.00000
LATT -1
SFAC C  
C      1  0.5966050000000  0.5624630000000  0.7152920000000 1.0
C      1  0.3560820000000  0.3358510000000  0.6320250000000 1.0
C      1  0.5123390000000  0.7729340000000  0.4490880000000 1.0
C      1  0.5972720000000  0.3922930000000  0.6294700000000 1.0
C      1  0.5136260000000  0.7940880000000  0.5306780000000 1.0
C      1  0.6826380000000  0.3476720000000  0.4605740000000 1.0
C      1  0.3609760000000  0.4958350000000  0.6549450000000 1.0
C      1  0.5795220000000  0.4029420000000  0.3214520000000 1.0
C      1  0.6547340000000  0.5584460000000  0.2703660000000 1.0
C      1  0.4699590000000  0.5699450000000  0.6748440000000 1.0
C      1  0.2821370000000  0.4539640000000  0.5126280000000 1.0
C      1  0.3539660000000  0.4616720000000  0.3658970000000 1.0
C      1  0.5357400000000  0.7352490000000  0.6056260000000 1.0
C      1  0.4559690000000  0.2751680000000  0.3981830000000 1.0
C      1  0.2262190000000  0.6098070000000  0.4514780000000 1.0
C      1  0.3121370000000  0.3269240000000  0.5383860000000 1.0
C      1  0.4152030000000  0.5753440000000  0.5307450000000 1.0
C      1  0.4123870000000  0.3284360000000  0.5118200000000 1.0
C      1  0.7194230000000  0.5331740000000  0.5602050000000 1.0
C      1  0.6971880000000  0.4341400000000  0.6071690000000 1.0
C      1  0.3322880000000  0.5835580000000  0.6629500000000 1.0
C      1  0.5528870000000  0.2876290000000  0.4297930000000 1.0
C      1  0.6013120000000  0.4627180000000  0.5501880000000 1.0
C      1  0.6322150000000  0.6704720000000  0.4796830000000 1.0
C      1  0.4541790000000  0.2363820000000  0.4990830000000 1.0
C      1  0.3153220000000  0.3852590000000  0.4403900000000 1.0
C      1  0.5397050000000  0.5719430000000  0.5944460000000 1.0
C      1  0.1772490000000  0.4511970000000  0.5560160000000 1.0
C      1  0.6491100000000  0.5769420000000  0.6220670000000 1.0
C      1  0.7272280000000  0.6083860000000  0.4786520000000 1.0
C      1  0.4512400000000  0.6883670000000  0.6496080000000 1.0
C      1  0.3695390000000  0.4791150000000  0.5529910000000 1.0
C      1  0.5508060000000  0.2667100000000  0.5427230000000 1.0
C      1  0.6580930000000  0.2807140000000  0.5207050000000 1.0
C      1  0.4811270000000  0.4295090000000  0.3481900000000 1.0
C      1  0.4289890000000  0.5110500000000  0.2955200000000 1.0
C      1  0.4504740000000  0.4611890000000  0.7015290000000 1.0
C      1  0.3826750000000  0.6367260000000  0.5999290000000 1.0
C      1  0.3737570000000  0.5738100000000  0.3695650000000 1.0
C      1  0.5933640000000  0.4726630000000  0.2555660000000 1.0
C      1  0.4450130000000  0.3638960000000  0.6571490000000 1.0
C      1  0.5492750000000  0.4876690000000  0.7424380000000 1.0
C      1  0.4084680000000  0.3613780000000  0.3806510000000 1.0
C      1  0.5441180000000  0.6551110000000  0.6983580000000 1.0
C      1  0.5287530000000  0.5132860000000  0.4021310000000 1.0
C      1  0.7122080000000  0.5110610000000  0.4313750000000 1.0
C      1  0.5509230000000  0.6877100000000  0.4023000000000 1.0
C      1  0.6262070000000  0.5221430000000  0.3743300000000 1.0
C      1  0.7200270000000  0.4327690000000  0.4984950000000 1.0
C      1  0.5271310000000  0.3319590000000  0.6216370000000 1.0
C      1  0.6673120000000  0.6263930000000  0.3837070000000 1.0
C      1  0.2062670000000  0.5346510000000  0.4995650000000 1.0
C      1  0.4441650000000  0.4143030000000  0.5181120000000 1.0
C      1  0.2973230000000  0.6302310000000  0.4001190000000 1.0
C      1  0.6167610000000  0.3484000000000  0.3895030000000 1.0
C      1  0.5229760000000  0.5588100000000  0.2737320000000 1.0
C      1  0.5064110000000  0.5072530000000  0.5075430000000 1.0
C      1  0.5898610000000  0.6452260000000  0.3045590000000 1.0
C      1  0.4825710000000  0.6054330000000  0.3716180000000 1.0
C      1  0.5985490000000  0.6616300000000  0.5722150000000 1.0
END
