TITL C-3036482-790-426 0.000185799638853288 3375 -343.822961317466 0 0 60 (C1) n - 1
REM
REM in /home/bkarasulu/work/CARBON/AIRSS/Generating-Clusters/REBO/Higher-Symm/Only-C60
REM
REM
REM
REM
REM
REM ./C.cell (a2850807a9bf4ad07a5b6933b78d9264)
REM AIRSS Version 0.9.1 bugfix July 2018 build 013d7b7c2542+ Fri, 06 Jul 2018 19:26:36 +0100
REM compiler GCC version 9.2.1 20190827 (Red Hat 9.2.1-1)
REM options -cpp -mtune=generic -march=x86-64 -g -O0 -fpre-include=/usr/include/finclude/math-vector-fortran.h
REM seed -1846021154 1165599735 -1810226898 -100541834 -357862844 -175009760 851525405 1815183836 504898212 -340299222 292742838 -1231731432 1630231073 -376348557 -1642918885 -463049169 -1498703490 -1209550152 728471270 809800354 -122700612 -1823267393 1916232754 -493591004 1704765708 -141649576 1274499412 -716071517 -1756873290 1105547303 -1361518624 -1727591006 1627134435
REM
CELL 1.54180   15.00000   15.00000   15.00000   90.00000   90.00000   90.00000
LATT -1
SFAC C  
C      1  0.4938920000000  0.7428760000000  0.4897030000000 1.0
C      1  0.3580360000000  0.6252730000000  0.5614190000000 1.0
C      1  0.4014530000000  0.5648320000000  0.7141630000000 1.0
C      1  0.5677690000000  0.5756970000000  0.6680800000000 1.0
C      1  0.5404780000000  0.7313460000000  0.4044940000000 1.0
C      1  0.3601500000000  0.4564110000000  0.2868340000000 1.0
C      1  0.3086470000000  0.5427110000000  0.5233920000000 1.0
C      1  0.4626980000000  0.3655440000000  0.3683120000000 1.0
C      1  0.5937640000000  0.3987490000000  0.4657220000000 1.0
C      1  0.5644640000000  0.4885350000000  0.4085300000000 1.0
C      1  0.4972360000000  0.6653750000000  0.3481340000000 1.0
C      1  0.3880090000000  0.4701080000000  0.7595820000000 1.0
C      1  0.4969500000000  0.4521770000000  0.7859530000000 1.0
C      1  0.6694880000000  0.6480480000000  0.4586010000000 1.0
C      1  0.4027110000000  0.2648780000000  0.5669810000000 1.0
C      1  0.4125220000000  0.3809270000000  0.7137540000000 1.0
C      1  0.4759230000000  0.6116600000000  0.4992620000000 1.0
C      1  0.3719680000000  0.3351250000000  0.6457570000000 1.0
C      1  0.4045520000000  0.6423810000000  0.3916480000000 1.0
C      1  0.5979370000000  0.3213970000000  0.5162840000000 1.0
C      1  0.6160470000000  0.5609120000000  0.3049470000000 1.0
C      1  0.5277720000000  0.5925230000000  0.2962620000000 1.0
C      1  0.4979050000000  0.5417770000000  0.7403680000000 1.0
C      1  0.3219050000000  0.3392160000000  0.5440630000000 1.0
C      1  0.5798060000000  0.5796420000000  0.4729890000000 1.0
C      1  0.3988030000000  0.6909140000000  0.4867740000000 1.0
C      1  0.3455120000000  0.5589530000000  0.2746940000000 1.0
C      1  0.4527970000000  0.5207210000000  0.2701660000000 1.0
C      1  0.4391980000000  0.4532080000000  0.4372610000000 1.0
C      1  0.5630030000000  0.4686290000000  0.5749420000000 1.0
C      1  0.6932140000000  0.5245700000000  0.3448560000000 1.0
C      1  0.3535950000000  0.4448580000000  0.5600170000000 1.0
C      1  0.4561490000000  0.4476720000000  0.5412780000000 1.0
C      1  0.8160290000000  0.4275030000000  0.2567900000000 1.0
C      1  0.5403630000000  0.7168150000000  0.5680070000000 1.0
C      1  0.4967310000000  0.6608650000000  0.6400060000000 1.0
C      1  0.3210530000000  0.6040930000000  0.3543860000000 1.0
C      1  0.7037660000000  0.5428330000000  0.4428150000000 1.0
C      1  0.6608500000000  0.3292200000000  0.5850160000000 1.0
C      1  0.5100490000000  0.4477500000000  0.3254960000000 1.0
C      1  0.5474270000000  0.2989890000000  0.6447570000000 1.0
C      1  0.4049790000000  0.6284800000000  0.6433540000000 1.0
C      1  0.4055270000000  0.2961120000000  0.3998660000000 1.0
C      1  0.5216750000000  0.3676090000000  0.7257690000000 1.0
C      1  0.7563350000000  0.4747820000000  0.2995980000000 1.0
C      1  0.7066010000000  0.5881370000000  0.5479370000000 1.0
C      1  0.6180240000000  0.3857210000000  0.6688000000000 1.0
C      1  0.4685690000000  0.5499000000000  0.4078200000000 1.0
C      1  0.6354820000000  0.7291860000000  0.4106410000000 1.0
C      1  0.6387000000000  0.4890740000000  0.6544620000000 1.0
C      1  0.3098610000000  0.3369630000000  0.4360040000000 1.0
C      1  0.4850710000000  0.5456370000000  0.5763530000000 1.0
C      1  0.6056640000000  0.6266990000000  0.5733210000000 1.0
C      1  0.4430010000000  0.2401050000000  0.4679010000000 1.0
C      1  0.7212640000000  0.5241070000000  0.6183610000000 1.0
C      1  0.2870330000000  0.4441260000000  0.4702820000000 1.0
C      1  0.3457960000000  0.4268240000000  0.3795370000000 1.0
C      1  0.6530800000000  0.4742150000000  0.5061930000000 1.0
C      1  0.5127910000000  0.2697720000000  0.5495610000000 1.0
C      1  0.2699290000000  0.5668350000000  0.4217440000000 1.0
END
