TITL C-3036486-2224-30 -0.0337533901724004 3375 -358.493925496366 0 0 60 (C1) n - 1
REM
REM in /home/bkarasulu/work/CARBON/AIRSS/Generating-Clusters/REBO/Higher-Symm/Only-C60
REM
REM
REM
REM
REM
REM ./C.cell (a2850807a9bf4ad07a5b6933b78d9264)
REM AIRSS Version 0.9.1 bugfix July 2018 build 013d7b7c2542+ Fri, 06 Jul 2018 19:26:36 +0100
REM compiler GCC version 9.2.1 20190827 (Red Hat 9.2.1-1)
REM options -cpp -mtune=generic -march=x86-64 -g -O0 -fpre-include=/usr/include/finclude/math-vector-fortran.h
REM seed 1064795017 -685966546 -474473141 -1629395894 1745023697 1919642548 332683623 -1334210439 -142911359 -1630745410 1717936512 1502525636 -539835578 1512618148 -1084182961 -838569510 1364190050 736215894 -752889377 -2055358208 459401214 -292852750 870229620 1060231208 608793681 242200830 -1857804026 -142171153 -1223744106 242565086 -1480463187 -1830812832 1835612167
REM
CELL 1.54180   15.00000   15.00000   15.00000   90.00000   90.00000   90.00000
LATT -1
SFAC C  
C      1  0.7299060000000  0.5509430000000  0.5642770000000 1.0
C      1  0.7290540000000  0.4535640000000  0.5671680000000 1.0
C      1  0.7280350000000  0.4206160000000  0.4752460000000 1.0
C      1  0.7284100000000  0.4980850000000  0.4155770000000 1.0
C      1  0.7296460000000  0.5785490000000  0.4708500000000 1.0
C      1  0.2700960000000  0.4490590000000  0.5642720000000 1.0
C      1  0.2709460000000  0.5464400000000  0.5671640000000 1.0
C      1  0.2719670000000  0.5793860000000  0.4752440000000 1.0
C      1  0.2715870000000  0.5019150000000  0.4155780000000 1.0
C      1  0.2703520000000  0.4214480000000  0.4708470000000 1.0
C      1  0.5624170000000  0.4086400000000  0.5119280000000 1.0
C      1  0.5651360000000  0.4567630000000  0.4276780000000 1.0
C      1  0.5661040000000  0.5512090000000  0.4484090000000 1.0
C      1  0.5634330000000  0.5617100000000  0.5439460000000 1.0
C      1  0.5613350000000  0.4738540000000  0.5836610000000 1.0
C      1  0.4375670000000  0.5913670000000  0.5119860000000 1.0
C      1  0.4348690000000  0.5431960000000  0.4276830000000 1.0
C      1  0.4338950000000  0.4487770000000  0.4483810000000 1.0
C      1  0.4365800000000  0.4383250000000  0.5439690000000 1.0
C      1  0.4386710000000  0.5261450000000  0.5836810000000 1.0
C      1  0.4618290000000  0.5410490000000  0.6918360000000 1.0
C      1  0.4638720000000  0.3436030000000  0.5882610000000 1.0
C      1  0.4626990000000  0.3686500000000  0.3827920000000 1.0
C      1  0.4589050000000  0.5758120000000  0.3216880000000 1.0
C      1  0.4589980000000  0.7025640000000  0.5190640000000 1.0
C      1  0.5381640000000  0.4589580000000  0.6918150000000 1.0
C      1  0.5360520000000  0.6564310000000  0.5882800000000 1.0
C      1  0.5372650000000  0.6313630000000  0.3827910000000 1.0
C      1  0.5411410000000  0.4241770000000  0.3216590000000 1.0
C      1  0.5410190000000  0.2974010000000  0.5190290000000 1.0
C      1  0.3946240000000  0.5027030000000  0.2896210000000 1.0
C      1  0.3925020000000  0.7042280000000  0.4402610000000 1.0
C      1  0.3928130000000  0.6160800000000  0.6735420000000 1.0
C      1  0.3955590000000  0.3742090000000  0.6607400000000 1.0
C      1  0.3963640000000  0.3067300000000  0.4326270000000 1.0
C      1  0.6053770000000  0.4973020000000  0.2896130000000 1.0
C      1  0.6074840000000  0.2957860000000  0.4402930000000 1.0
C      1  0.6071880000000  0.3839350000000  0.6735410000000 1.0
C      1  0.6044200000000  0.6257950000000  0.6607180000000 1.0
C      1  0.6036480000000  0.6932840000000  0.4326190000000 1.0
C      1  0.5571900000000  0.3117230000000  0.6446220000000 1.0
C      1  0.5551180000000  0.3051030000000  0.3646120000000 1.0
C      1  0.5541280000000  0.5700410000000  0.2665060000000 1.0
C      1  0.5556460000000  0.7452070000000  0.4913630000000 1.0
C      1  0.5560660000000  0.5848950000000  0.7274060000000 1.0
C      1  0.4428950000000  0.6882400000000  0.6446060000000 1.0
C      1  0.4448760000000  0.6949020000000  0.3645860000000 1.0
C      1  0.4458690000000  0.4299570000000  0.2665170000000 1.0
C      1  0.4443460000000  0.2547760000000  0.4913420000000 1.0
C      1  0.4439350000000  0.4151080000000  0.7273940000000 1.0
C      1  0.6898920000000  0.3380580000000  0.4521120000000 1.0
C      1  0.6895180000000  0.4980860000000  0.3301020000000 1.0
C      1  0.6899000000000  0.6593150000000  0.4440060000000 1.0
C      1  0.6898120000000  0.6031610000000  0.6310660000000 1.0
C      1  0.6904200000000  0.4075240000000  0.6390740000000 1.0
C      1  0.3101100000000  0.6619400000000  0.4521170000000 1.0
C      1  0.3104750000000  0.5019030000000  0.3301000000000 1.0
C      1  0.3101160000000  0.3406910000000  0.4439940000000 1.0
C      1  0.3101830000000  0.3968420000000  0.6310630000000 1.0
C      1  0.3095790000000  0.5924770000000  0.6390760000000 1.0
END
