TITL C-3036479-9801-1145 1.25477546328846e-05 3375 -339.861597518648 0 0 60 (C1) n - 1
REM
REM in /home/bkarasulu/work/CARBON/AIRSS/Generating-Clusters/REBO/Higher-Symm/Only-C60
REM
REM
REM
REM
REM
REM ./C.cell (a2850807a9bf4ad07a5b6933b78d9264)
REM AIRSS Version 0.9.1 bugfix July 2018 build 013d7b7c2542+ Fri, 06 Jul 2018 19:26:36 +0100
REM compiler GCC version 9.2.1 20190827 (Red Hat 9.2.1-1)
REM options -cpp -mtune=generic -march=x86-64 -g -O0 -fpre-include=/usr/include/finclude/math-vector-fortran.h
REM seed 1785240820 -1107489198 1719353946 -1844260787 -657735874 -24989114 -917719663 -729514393 1379031774 637119251 -538657487 965274929 -1500899120 -2013001943 -1564697982 -2107961672 1952677097 1028993419 1299926205 -1704721963 -1816165316 1819768325 -496005285 827443511 1615685767 1914360488 -1049401382 768593804 178810294 247145176 -1311374308 1400275429 296053296
REM
CELL 1.54180   15.00000   15.00000   15.00000   90.00000   90.00000   90.00000
LATT -1
SFAC C  
C      1  0.5543630000000  0.6933550000000  0.5539060000000 1.0
C      1  0.6536710000000  0.4478470000000  0.3712140000000 1.0
C      1  0.2584690000000  0.5038440000000  0.4465480000000 1.0
C      1  0.6084800000000  0.4663800000000  0.6265780000000 1.0
C      1  0.5994150000000  0.2802270000000  0.4595970000000 1.0
C      1  0.3153200000000  0.3478600000000  0.4058930000000 1.0
C      1  0.7199650000000  0.5981210000000  0.3432390000000 1.0
C      1  0.4092640000000  0.6311040000000  0.6359950000000 1.0
C      1  0.3562930000000  0.3710170000000  0.6200660000000 1.0
C      1  0.2782430000000  0.3723740000000  0.5624390000000 1.0
C      1  0.3667160000000  0.5390780000000  0.3778610000000 1.0
C      1  0.4317370000000  0.3228110000000  0.5865180000000 1.0
C      1  0.5867510000000  0.3610040000000  0.3839770000000 1.0
C      1  0.5289590000000  0.2621180000000  0.5198320000000 1.0
C      1  0.2899410000000  0.6064580000000  0.4631090000000 1.0
C      1  0.5076570000000  0.6546470000000  0.3082230000000 1.0
C      1  0.6787730000000  0.7674330000000  0.4792630000000 1.0
C      1  0.6038160000000  0.6175340000000  0.5904350000000 1.0
C      1  0.6381390000000  0.5197190000000  0.7177140000000 1.0
C      1  0.4050840000000  0.3145590000000  0.3985390000000 1.0
C      1  0.2479110000000  0.5825180000000  0.5512770000000 1.0
C      1  0.3769800000000  0.6011260000000  0.7425870000000 1.0
C      1  0.6422380000000  0.3780080000000  0.4841990000000 1.0
C      1  0.2355840000000  0.4689450000000  0.5519650000000 1.0
C      1  0.5087290000000  0.4931390000000  0.5967030000000 1.0
C      1  0.4618500000000  0.5333870000000  0.5124220000000 1.0
C      1  0.5432650000000  0.4208750000000  0.5201680000000 1.0
C      1  0.6145700000000  0.6156730000000  0.4209170000000 1.0
C      1  0.5564210000000  0.6977000000000  0.3797200000000 1.0
C      1  0.6158680000000  0.3657000000000  0.6274730000000 1.0
C      1  0.5418090000000  0.5436690000000  0.2777380000000 1.0
C      1  0.3498280000000  0.4451940000000  0.6834410000000 1.0
C      1  0.5136550000000  0.6055870000000  0.4656350000000 1.0
C      1  0.6343450000000  0.5283900000000  0.5348190000000 1.0
C      1  0.7397240000000  0.5168440000000  0.5002480000000 1.0
C      1  0.4346030000000  0.2794580000000  0.4839270000000 1.0
C      1  0.7003480000000  0.3429260000000  0.5988960000000 1.0
C      1  0.3704960000000  0.6561760000000  0.4689480000000 1.0
C      1  0.6313310000000  0.5449420000000  0.3330060000000 1.0
C      1  0.2800570000000  0.5017020000000  0.6497220000000 1.0
C      1  0.4974200000000  0.5090230000000  0.3780400000000 1.0
C      1  0.3908450000000  0.4919640000000  0.4561170000000 1.0
C      1  0.5826820000000  0.4896950000000  0.4436500000000 1.0
C      1  0.7226810000000  0.6116400000000  0.4537830000000 1.0
C      1  0.4701970000000  0.4201300000000  0.4436180000000 1.0
C      1  0.4078170000000  0.5012180000000  0.7360650000000 1.0
C      1  0.4356060000000  0.5938280000000  0.3374030000000 1.0
C      1  0.5370520000000  0.3160030000000  0.6089180000000 1.0
C      1  0.2835290000000  0.4356460000000  0.3848690000000 1.0
C      1  0.5772160000000  0.5856410000000  0.6772230000000 1.0
C      1  0.5887270000000  0.7357270000000  0.4727340000000 1.0
C      1  0.7432000000000  0.4483010000000  0.4125550000000 1.0
C      1  0.7365620000000  0.4067300000000  0.5281790000000 1.0
C      1  0.4788800000000  0.5536560000000  0.6743690000000 1.0
C      1  0.7471370000000  0.7062740000000  0.4843670000000 1.0
C      1  0.2727920000000  0.3167710000000  0.4862690000000 1.0
C      1  0.4490510000000  0.6620720000000  0.5443910000000 1.0
C      1  0.3039920000000  0.6015900000000  0.6339750000000 1.0
C      1  0.4875110000000  0.3717200000000  0.3449770000000 1.0
C      1  0.4964360000000  0.4429260000000  0.2637410000000 1.0
END
