TITL C-3036480-97-75 -3.71681850804303e-07 3375 -361.227055168987 0 0 60 (C1) n - 1
REM
REM in /home/bkarasulu/work/CARBON/AIRSS/Generating-Clusters/REBO/Higher-Symm/Only-C60
REM
REM
REM
REM
REM
REM ./C.cell (a2850807a9bf4ad07a5b6933b78d9264)
REM AIRSS Version 0.9.1 bugfix July 2018 build 013d7b7c2542+ Fri, 06 Jul 2018 19:26:36 +0100
REM compiler GCC version 9.2.1 20190827 (Red Hat 9.2.1-1)
REM options -cpp -mtune=generic -march=x86-64 -g -O0 -fpre-include=/usr/include/finclude/math-vector-fortran.h
REM seed -758368044 1504924434 -2010812006 1746571314 1102654513 -933084883 880857259 -396397295 1715585201 -1235383398 -1476267599 -1021534539 -1653220691 1845320987 -345122239 1696349352 -528145936 -1290630592 -1195267004 1588215709 226090598 -844376030 -2134087810 -1327160325 672762311 673514815 1743502219 -533599661 579132139 -279155166 -941163869 -529751785 136185405
REM
CELL 1.54180   15.00000   15.00000   15.00000   90.00000   90.00000   90.00000
LATT -1
SFAC C  
C      1  0.2956620000000  0.4253770000000  0.3825030000000 1.0
C      1  0.4317540000000  0.3824770000000  0.2954160000000 1.0
C      1  0.3810480000000  0.2873300000000  0.4248510000000 1.0
C      1  0.6979060000000  0.5684420000000  0.3666460000000 1.0
C      1  0.3026470000000  0.5471350000000  0.6327170000000 1.0
C      1  0.6912860000000  0.4475820000000  0.6396990000000 1.0
C      1  0.5483740000000  0.6348520000000  0.3012640000000 1.0
C      1  0.4294360000000  0.6309770000000  0.7037880000000 1.0
C      1  0.5478340000000  0.3659850000000  0.6934530000000 1.0
C      1  0.6338830000000  0.7134570000000  0.4229930000000 1.0
C      1  0.3713490000000  0.6917300000000  0.5576420000000 1.0
C      1  0.6373480000000  0.3041140000000  0.5591990000000 1.0
C      1  0.4508400000000  0.3067590000000  0.3633230000000 1.0
C      1  0.3635480000000  0.4475890000000  0.3097050000000 1.0
C      1  0.3070870000000  0.3566350000000  0.4454030000000 1.0
C      1  0.5589180000000  0.7139260000000  0.3672490000000 1.0
C      1  0.5707380000000  0.2929460000000  0.6249720000000 1.0
C      1  0.4359750000000  0.6988450000000  0.6272920000000 1.0
C      1  0.6231460000000  0.5774230000000  0.2964540000000 1.0
C      1  0.6147700000000  0.4327550000000  0.7074900000000 1.0
C      1  0.3739690000000  0.5564320000000  0.7072270000000 1.0
C      1  0.6985030000000  0.6329200000000  0.4365000000000 1.0
C      1  0.7082020000000  0.3762130000000  0.5797520000000 1.0
C      1  0.2946230000000  0.6217310000000  0.5746790000000 1.0
C      1  0.6122330000000  0.3077160000000  0.4591590000000 1.0
C      1  0.3072680000000  0.4454430000000  0.6094090000000 1.0
C      1  0.4463280000000  0.6119320000000  0.3087330000000 1.0
C      1  0.4012580000000  0.6858140000000  0.4573760000000 1.0
C      1  0.6172680000000  0.6853640000000  0.5274120000000 1.0
C      1  0.3914960000000  0.3068690000000  0.5353970000000 1.0
C      1  0.6887890000000  0.5442080000000  0.6044370000000 1.0
C      1  0.3065460000000  0.5367750000000  0.3905020000000 1.0
C      1  0.7087310000000  0.4592780000000  0.3936820000000 1.0
C      1  0.5359940000000  0.4046160000000  0.3344740000000 1.0
C      1  0.4477320000000  0.3887610000000  0.6886520000000 1.0
C      1  0.5348350000000  0.6228190000000  0.6724420000000 1.0
C      1  0.3191460000000  0.6097890000000  0.4671510000000 1.0
C      1  0.4598870000000  0.3018110000000  0.6168930000000 1.0
C      1  0.6189890000000  0.4701430000000  0.3256120000000 1.0
C      1  0.6911080000000  0.3872610000000  0.4703410000000 1.0
C      1  0.6943180000000  0.6042180000000  0.5365760000000 1.0
C      1  0.3075810000000  0.3807480000000  0.5446180000000 1.0
C      1  0.5445660000000  0.7079230000000  0.5995560000000 1.0
C      1  0.5490560000000  0.3120170000000  0.3942070000000 1.0
C      1  0.4584230000000  0.6866190000000  0.3840990000000 1.0
C      1  0.3801340000000  0.5482440000000  0.3072500000000 1.0
C      1  0.3812380000000  0.4536270000000  0.6849750000000 1.0
C      1  0.5964040000000  0.5368190000000  0.6659750000000 1.0
C      1  0.4996900000000  0.6247420000000  0.5368420000000 1.0
C      1  0.4286640000000  0.3986510000000  0.4798490000000 1.0
C      1  0.5413660000000  0.5262400000000  0.3880720000000 1.0
C      1  0.4754810000000  0.5465280000000  0.6114700000000 1.0
C      1  0.5371810000000  0.4647540000000  0.6046470000000 1.0
C      1  0.5731010000000  0.5992420000000  0.4659370000000 1.0
C      1  0.5018170000000  0.3794410000000  0.5506300000000 1.0
C      1  0.3816910000000  0.4933050000000  0.4583590000000 1.0
C      1  0.6246260000000  0.5011170000000  0.4551370000000 1.0
C      1  0.5982610000000  0.4263530000000  0.5238140000000 1.0
C      1  0.4063720000000  0.5669090000000  0.5279280000000 1.0
C      1  0.4635760000000  0.4602710000000  0.3981730000000 1.0
END
