TITL C-3036485-3770-483 -3.41655294443391e-06 3375 -340.606618558437 0 0 60 (C1) n - 1
REM
REM in /home/bkarasulu/work/CARBON/AIRSS/Generating-Clusters/REBO/Higher-Symm/Only-C60
REM
REM
REM
REM
REM
REM ./C.cell (a2850807a9bf4ad07a5b6933b78d9264)
REM AIRSS Version 0.9.1 bugfix July 2018 build 013d7b7c2542+ Fri, 06 Jul 2018 19:26:36 +0100
REM compiler GCC version 9.2.1 20190827 (Red Hat 9.2.1-1)
REM options -cpp -mtune=generic -march=x86-64 -g -O0 -fpre-include=/usr/include/finclude/math-vector-fortran.h
REM seed 1604357458 -1521824378 2031293441 1381575554 -116158451 214680882 2066454338 1424180254 1522815994 -1640443786 -587464804 -1560345267 -4088787 38861759 67037821 -958194417 1415473172 1379265937 1090540189 -1603940572 -1929649358 -2105959960 -1219357686 -1707178419 -422463574 957046573 -1075802092 1106245259 991258179 649241788 -548925616 1710625558 -826162998
REM
CELL 1.54180   15.00000   15.00000   15.00000   90.00000   90.00000   90.00000
LATT -1
SFAC C  
C      1  0.3373550000000  0.6512880000000  0.5565670000000 1.0
C      1  0.5091230000000  0.6454080000000  0.6659440000000 1.0
C      1  0.6536040000000  0.6513670000000  0.5544580000000 1.0
C      1  0.5851470000000  0.6465340000000  0.3619160000000 1.0
C      1  0.4036960000000  0.6523250000000  0.3634650000000 1.0
C      1  0.5615360000000  0.5465530000000  0.6953880000000 1.0
C      1  0.7021100000000  0.5638890000000  0.4993370000000 1.0
C      1  0.5613710000000  0.5473420000000  0.3077700000000 1.0
C      1  0.3354430000000  0.5627010000000  0.3814140000000 1.0
C      1  0.3382100000000  0.5527640000000  0.6152380000000 1.0
C      1  0.3419440000000  0.3594220000000  0.5151210000000 1.0
C      1  0.4660590000000  0.3575370000000  0.6555550000000 1.0
C      1  0.6370520000000  0.3448690000000  0.5897600000000 1.0
C      1  0.6191200000000  0.3590070000000  0.3943280000000 1.0
C      1  0.4433350000000  0.3440490000000  0.3477470000000 1.0
C      1  0.4768660000000  0.2947140000000  0.5821610000000 1.0
C      1  0.5696130000000  0.2891560000000  0.5487330000000 1.0
C      1  0.5678780000000  0.2951930000000  0.4488470000000 1.0
C      1  0.4731490000000  0.2894870000000  0.4218060000000 1.0
C      1  0.4162420000000  0.2971600000000  0.5040130000000 1.0
C      1  0.3011500000000  0.4662660000000  0.3915850000000 1.0
C      1  0.3237610000000  0.4577690000000  0.6723710000000 1.0
C      1  0.6094850000000  0.4499820000000  0.7238870000000 1.0
C      1  0.7251840000000  0.4679590000000  0.4692890000000 1.0
C      1  0.5418030000000  0.4501620000000  0.2527810000000 1.0
C      1  0.4773780000000  0.3690450000000  0.2604570000000 1.0
C      1  0.2736140000000  0.3916780000000  0.4553430000000 1.0
C      1  0.3890150000000  0.3855050000000  0.7071780000000 1.0
C      1  0.6593620000000  0.3705920000000  0.6803710000000 1.0
C      1  0.7089980000000  0.3939360000000  0.4005020000000 1.0
C      1  0.5921550000000  0.4752110000000  0.4665290000000 1.0
C      1  0.4954670000000  0.4791310000000  0.4074040000000 1.0
C      1  0.4072850000000  0.4790350000000  0.4712480000000 1.0
C      1  0.4513360000000  0.4814000000000  0.5754700000000 1.0
C      1  0.5602900000000  0.4782840000000  0.5693220000000 1.0
C      1  0.6350910000000  0.5252740000000  0.3833410000000 1.0
C      1  0.4258800000000  0.5233760000000  0.3390120000000 1.0
C      1  0.3223480000000  0.5274240000000  0.5111290000000 1.0
C      1  0.4591770000000  0.5227660000000  0.6746840000000 1.0
C      1  0.6551390000000  0.5223510000000  0.5867670000000 1.0
C      1  0.5741690000000  0.7118010000000  0.5223570000000 1.0
C      1  0.5417280000000  0.7134520000000  0.4336140000000 1.0
C      1  0.4462850000000  0.7138030000000  0.4372490000000 1.0
C      1  0.4203410000000  0.7117900000000  0.5284640000000 1.0
C      1  0.4987760000000  0.7095480000000  0.5814320000000 1.0
C      1  0.2439690000000  0.5500930000000  0.4775270000000 1.0
C      1  0.4010550000000  0.5437000000000  0.7375950000000 1.0
C      1  0.6992990000000  0.5266100000000  0.6629370000000 1.0
C      1  0.7174150000000  0.5523820000000  0.3668560000000 1.0
C      1  0.4336300000000  0.5270220000000  0.2510640000000 1.0
C      1  0.3620020000000  0.4228260000000  0.5827000000000 1.0
C      1  0.5386110000000  0.4191600000000  0.6544010000000 1.0
C      1  0.6623550000000  0.4058140000000  0.5240640000000 1.0
C      1  0.5610450000000  0.4202300000000  0.3497970000000 1.0
C      1  0.3858710000000  0.4064110000000  0.3861390000000 1.0
C      1  0.4888850000000  0.6347530000000  0.3066030000000 1.0
C      1  0.3325370000000  0.6464580000000  0.4524370000000 1.0
C      1  0.4049620000000  0.6397360000000  0.6454330000000 1.0
C      1  0.6197720000000  0.6327980000000  0.6503810000000 1.0
C      1  0.6545190000000  0.6437000000000  0.4407070000000 1.0
END
