TITL C-3036480-97-646 7.43867616355823e-06 3375 -373.036650961441 0 0 60 (C3) n - 1
REM
REM in /home/bkarasulu/work/CARBON/AIRSS/Generating-Clusters/REBO/Higher-Symm/Only-C60
REM
REM
REM
REM
REM
REM ./C.cell (a2850807a9bf4ad07a5b6933b78d9264)
REM AIRSS Version 0.9.1 bugfix July 2018 build 013d7b7c2542+ Fri, 06 Jul 2018 19:26:36 +0100
REM compiler GCC version 9.2.1 20190827 (Red Hat 9.2.1-1)
REM options -cpp -mtune=generic -march=x86-64 -g -O0 -fpre-include=/usr/include/finclude/math-vector-fortran.h
REM seed 605586044 -1358502937 1031230943 -2043158522 2128426515 1096264138 -838751470 1075831085 -691048096 1754968300 -891105882 1498100437 1468691345 -425945438 358693602 -827317220 -1021923542 -1186506991 2106014788 1846866281 -600237326 203120785 -1199844680 -195543838 1858462066 -1012004325 -785931085 2132368961 -240043720 -1012832413 1790993508 -932735624 1525669521
REM
CELL 1.54180   15.00000   15.00000   15.00000   90.00000   90.00000   90.00000
LATT -1
SFAC C  
C      1  0.6238630000000  0.6914360000000  0.6621910000000 1.0
C      1  0.6238350000000  0.5448100000000  0.2531170000000 1.0
C      1  0.6239660000000  0.2638550000000  0.5846350000000 1.0
C      1  0.6245870000000  0.3052280000000  0.6580710000000 1.0
C      1  0.6244780000000  0.4605270000000  0.2522290000000 1.0
C      1  0.6244590000000  0.7343470000000  0.5896430000000 1.0
C      1  0.6886340000000  0.5962060000000  0.5005080000000 1.0
C      1  0.6886590000000  0.4524390000000  0.4164290000000 1.0
C      1  0.6886870000000  0.4515080000000  0.5829750000000 1.0
C      1  0.6882730000000  0.4038140000000  0.4985340000000 1.0
C      1  0.6882200000000  0.5494140000000  0.4173450000000 1.0
C      1  0.6882490000000  0.5469260000000  0.5840330000000 1.0
C      1  0.5554560000000  0.5451570000000  0.5794660000000 1.0
C      1  0.5554300000000  0.5462710000000  0.4211610000000 1.0
C      1  0.5554800000000  0.4086170000000  0.4993500000000 1.0
C      1  0.5559000000000  0.4531360000000  0.5789030000000 1.0
C      1  0.5558730000000  0.4551160000000  0.4199380000000 1.0
C      1  0.5558500000000  0.5917940000000  0.5011360000000 1.0
C      1  0.3586640000000  0.6156570000000  0.3732330000000 1.0
C      1  0.3587550000000  0.3323120000000  0.4632200000000 1.0
C      1  0.3587280000000  0.5519160000000  0.6636110000000 1.0
C      1  0.3599860000000  0.3738500000000  0.3591350000000 1.0
C      1  0.3599180000000  0.6850290000000  0.4612480000000 1.0
C      1  0.3600190000000  0.4410070000000  0.6796810000000 1.0
C      1  0.5275210000000  0.5448240000000  0.7092470000000 1.0
C      1  0.5274340000000  0.6588150000000  0.3565590000000 1.0
C      1  0.5275440000000  0.2963840000000  0.4341830000000 1.0
C      1  0.5291520000000  0.4500560000000  0.7090310000000 1.0
C      1  0.5291240000000  0.3439540000000  0.3522180000000 1.0
C      1  0.5290400000000  0.7060140000000  0.4387380000000 1.0
C      1  0.4236480000000  0.4630130000000  0.5892720000000 1.0
C      1  0.4235950000000  0.5957640000000  0.4873950000000 1.0
C      1  0.4236260000000  0.4411600000000  0.4233680000000 1.0
C      1  0.4234860000000  0.5606190000000  0.5708660000000 1.0
C      1  0.4235170000000  0.4082970000000  0.5171000000000 1.0
C      1  0.4234670000000  0.5310210000000  0.4120680000000 1.0
C      1  0.6168210000000  0.4084860000000  0.3404720000000 1.0
C      1  0.6168740000000  0.4076650000000  0.6590190000000 1.0
C      1  0.6167730000000  0.6839450000000  0.5004570000000 1.0
C      1  0.6159490000000  0.5947600000000  0.3424940000000 1.0
C      1  0.6160020000000  0.5890560000000  0.6607640000000 1.0
C      1  0.6160490000000  0.3162780000000  0.4966890000000 1.0
C      1  0.4628720000000  0.7331480000000  0.5843370000000 1.0
C      1  0.4628960000000  0.4564440000000  0.2559190000000 1.0
C      1  0.4629990000000  0.3103780000000  0.6597600000000 1.0
C      1  0.4615780000000  0.2676690000000  0.5799360000000 1.0
C      1  0.4614520000000  0.5469280000000  0.2588450000000 1.0
C      1  0.4614780000000  0.6853720000000  0.6612360000000 1.0
C      1  0.2907590000000  0.4392440000000  0.4209460000000 1.0
C      1  0.2907810000000  0.4618020000000  0.5921420000000 1.0
C      1  0.2907270000000  0.5987830000000  0.4870080000000 1.0
C      1  0.2902920000000  0.5324100000000  0.4098580000000 1.0
C      1  0.2903110000000  0.5618020000000  0.5732360000000 1.0
C      1  0.2903440000000  0.4056170000000  0.5170020000000 1.0
C      1  0.4499820000000  0.2812770000000  0.4873100000000 1.0
C      1  0.4499290000000  0.5983440000000  0.6957630000000 1.0
C      1  0.4498630000000  0.6203370000000  0.3169490000000 1.0
C      1  0.4526510000000  0.7257130000000  0.4909690000000 1.0
C      1  0.4527740000000  0.3949520000000  0.7000100000000 1.0
C      1  0.4527160000000  0.3792970000000  0.3090420000000 1.0
END
