TITL C-3036483-1610-956 6.83408019966994e-06 3375 -337.001236984898 0 0 60 (C5) n - 1
REM
REM in /home/bkarasulu/work/CARBON/AIRSS/Generating-Clusters/REBO/Higher-Symm/Only-C60
REM
REM
REM
REM
REM
REM ./C.cell (a2850807a9bf4ad07a5b6933b78d9264)
REM AIRSS Version 0.9.1 bugfix July 2018 build 013d7b7c2542+ Fri, 06 Jul 2018 19:26:36 +0100
REM compiler GCC version 9.2.1 20190827 (Red Hat 9.2.1-1)
REM options -cpp -mtune=generic -march=x86-64 -g -O0 -fpre-include=/usr/include/finclude/math-vector-fortran.h
REM seed 1532093432 -1548837832 1573843392 -1635827632 357893090 1875451496 -780890238 -1435319450 1750882574 292821151 -1338639133 -1035843158 -1137975442 -649176674 -822269408 -1154496735 1549047453 -293438068 622000369 1351083707 -1043308932 -146819676 -1799223656 410946675 -1010996651 -1668417639 815667671 -675589433 1107282450 336111993 395971708 -782870380 929282167
REM
CELL 1.54180   15.00000   15.00000   15.00000   90.00000   90.00000   90.00000
LATT -1
SFAC C  
C      1  0.4614480000000  0.4255500000000  0.2370590000000 1.0
C      1  0.7381620000000  0.4255660000000  0.3820800000000 1.0
C      1  0.6857490000000  0.4255710000000  0.6900640000000 1.0
C      1  0.3766420000000  0.4255580000000  0.7353890000000 1.0
C      1  0.2380160000000  0.4255450000000  0.4554160000000 1.0
C      1  0.4607060000000  0.4793890000000  0.5716350000000 1.0
C      1  0.4197290000000  0.4793850000000  0.4847650000000 1.0
C      1  0.4896860000000  0.4793870000000  0.4189500000000 1.0
C      1  0.5738970000000  0.4793910000000  0.4651440000000 1.0
C      1  0.5559870000000  0.4793930000000  0.5595090000000 1.0
C      1  0.5911100000000  0.6083350000000  0.6429300000000 1.0
C      1  0.3922140000000  0.6083260000000  0.6308210000000 1.0
C      1  0.3422680000000  0.6083190000000  0.4379180000000 1.0
C      1  0.5102960000000  0.6083240000000  0.3308070000000 1.0
C      1  0.6640880000000  0.6083340000000  0.4575110000000 1.0
C      1  0.7536250000000  0.5655860000000  0.5041390000000 1.0
C      1  0.5744350000000  0.5655830000000  0.7424930000000 1.0
C      1  0.2923740000000  0.5655690000000  0.6457280000000 1.0
C      1  0.2972410000000  0.5655620000000  0.3475700000000 1.0
C      1  0.5823110000000  0.5655730000000  0.2600630000000 1.0
C      1  0.2698480000000  0.4912660000000  0.5919930000000 1.0
C      1  0.3413890000000  0.4912630000000  0.3095400000000 1.0
C      1  0.6321250000000  0.4912750000000  0.2902960000000 1.0
C      1  0.7402690000000  0.4912860000000  0.5608570000000 1.0
C      1  0.5163700000000  0.4912800000000  0.7473150000000 1.0
C      1  0.3452490000000  0.3948760000000  0.4698610000000 1.0
C      1  0.4808490000000  0.3948790000000  0.3435070000000 1.0
C      1  0.6429210000000  0.3948880000000  0.4334240000000 1.0
C      1  0.6074880000000  0.3948910000000  0.6153500000000 1.0
C      1  0.4235160000000  0.3948830000000  0.6378690000000 1.0
C      1  0.7369930000000  0.5865200000000  0.3750140000000 1.0
C      1  0.6920990000000  0.5865250000000  0.6867740000000 1.0
C      1  0.3817250000000  0.5865120000000  0.7404160000000 1.0
C      1  0.2347970000000  0.5865000000000  0.4618090000000 1.0
C      1  0.4543650000000  0.5865040000000  0.2359780000000 1.0
C      1  0.4052980000000  0.5047590000000  0.2380860000000 1.0
C      1  0.7198300000000  0.5047750000000  0.3289980000000 1.0
C      1  0.7305640000000  0.5047820000000  0.6562280000000 1.0
C      1  0.4226660000000  0.5047710000000  0.7675570000000 1.0
C      1  0.2216410000000  0.5047570000000  0.5091310000000 1.0
C      1  0.5592200000000  0.6246440000000  0.4280200000000 1.0
C      1  0.5867500000000  0.6246480000000  0.5340820000000 1.0
C      1  0.4943870000000  0.6246450000000  0.5930400000000 1.0
C      1  0.4097730000000  0.6246390000000  0.5234160000000 1.0
C      1  0.4498420000000  0.6246390000000  0.4214280000000 1.0
C      1  0.5565010000000  0.3145990000000  0.5604800000000 1.0
C      1  0.4599500000000  0.3145950000000  0.5724200000000 1.0
C      1  0.4187580000000  0.3145920000000  0.4842840000000 1.0
C      1  0.4898510000000  0.3145930000000  0.4178730000000 1.0
C      1  0.5749810000000  0.3145980000000  0.4649650000000 1.0
C      1  0.3696810000000  0.4153130000000  0.3614910000000 1.0
C      1  0.5914630000000  0.4153220000000  0.3332550000000 1.0
C      1  0.6868520000000  0.4153310000000  0.5354580000000 1.0
C      1  0.5240230000000  0.4153270000000  0.6886610000000 1.0
C      1  0.3280000000000  0.4153160000000  0.5811440000000 1.0
C      1  0.5364030000000  0.5891460000000  0.1697140000000 1.0
C      1  0.8253650000000  0.5891650000000  0.4325600000000 1.0
C      1  0.6646780000000  0.5891660000000  0.7886020000000 1.0
C      1  0.2764060000000  0.5891480000000  0.7458040000000 1.0
C      1  0.1971280000000  0.5891350000000  0.3633100000000 1.0
END
