TITL C-3036482-790-1092 -0.000376012387298979 3375 -344.104518484666 0 0 60 (C1) n - 1
REM
REM in /home/bkarasulu/work/CARBON/AIRSS/Generating-Clusters/REBO/Higher-Symm/Only-C60
REM
REM
REM
REM
REM
REM ./C.cell (a2850807a9bf4ad07a5b6933b78d9264)
REM AIRSS Version 0.9.1 bugfix July 2018 build 013d7b7c2542+ Fri, 06 Jul 2018 19:26:36 +0100
REM compiler GCC version 9.2.1 20190827 (Red Hat 9.2.1-1)
REM options -cpp -mtune=generic -march=x86-64 -g -O0 -fpre-include=/usr/include/finclude/math-vector-fortran.h
REM seed 1502417964 -929866562 -1523717185 -1224827888 1146726195 -1160047676 -1626440103 699451999 1783239667 -126098974 -393996389 927477604 1839378741 -1016367171 1447703510 921856063 -1621360928 1477154965 -803705691 -1302045443 -461761211 1310146443 350237397 -1185417002 2002308543 -1833774928 -1149439035 871297145 1019707289 -1333563382 1740900465 1299757933 -1648548750
REM
CELL 1.54180   15.00000   15.00000   15.00000   90.00000   90.00000   90.00000
LATT -1
SFAC C  
C      1  0.3819850000000  0.4558390000000  0.5426520000000 1.0
C      1  0.5628640000000  0.4923130000000  0.6210620000000 1.0
C      1  0.6431360000000  0.4730030000000  0.4353820000000 1.0
C      1  0.4609310000000  0.4375010000000  0.3659360000000 1.0
C      1  0.6320150000000  0.4533710000000  0.5405210000000 1.0
C      1  0.4566370000000  0.4806530000000  0.6240530000000 1.0
C      1  0.3834670000000  0.4759900000000  0.4371970000000 1.0
C      1  0.5672440000000  0.4519790000000  0.3605630000000 1.0
C      1  0.7517620000000  0.5327430000000  0.6382280000000 1.0
C      1  0.6448560000000  0.5531020000000  0.2466020000000 1.0
C      1  0.2627840000000  0.5633580000000  0.3584260000000 1.0
C      1  0.3621070000000  0.5459840000000  0.7486240000000 1.0
C      1  0.2552560000000  0.5219050000000  0.6391110000000 1.0
C      1  0.3644730000000  0.5250530000000  0.2505460000000 1.0
C      1  0.7520370000000  0.5735550000000  0.3571720000000 1.0
C      1  0.6475370000000  0.5721730000000  0.7432450000000 1.0
C      1  0.3618860000000  0.3464040000000  0.5501910000000 1.0
C      1  0.5495690000000  0.3856100000000  0.6201280000000 1.0
C      1  0.6289820000000  0.3656400000000  0.4404850000000 1.0
C      1  0.4423200000000  0.3274980000000  0.3631810000000 1.0
C      1  0.6250410000000  0.3426930000000  0.5500310000000 1.0
C      1  0.4380570000000  0.3708000000000  0.6281100000000 1.0
C      1  0.3752660000000  0.3693190000000  0.4416920000000 1.0
C      1  0.5536390000000  0.3423650000000  0.3595130000000 1.0
C      1  0.3539950000000  0.7354440000000  0.4188990000000 1.0
C      1  0.3929620000000  0.7351620000000  0.6773820000000 1.0
C      1  0.6626990000000  0.7140180000000  0.6073200000000 1.0
C      1  0.5879220000000  0.7126930000000  0.3582740000000 1.0
C      1  0.6482000000000  0.7369050000000  0.4219920000000 1.0
C      1  0.5959790000000  0.7498960000000  0.6587630000000 1.0
C      1  0.3325200000000  0.7077280000000  0.6147770000000 1.0
C      1  0.4022040000000  0.7015510000000  0.3488380000000 1.0
C      1  0.3748430000000  0.2568390000000  0.4530750000000 1.0
C      1  0.4310860000000  0.2577240000000  0.6203730000000 1.0
C      1  0.5956880000000  0.2339570000000  0.5491980000000 1.0
C      1  0.5335370000000  0.2326260000000  0.3799010000000 1.0
C      1  0.5988950000000  0.2578350000000  0.4513510000000 1.0
C      1  0.5291100000000  0.2754310000000  0.6123950000000 1.0
C      1  0.3631500000000  0.2330560000000  0.5504440000000 1.0
C      1  0.4346060000000  0.2160910000000  0.3828460000000 1.0
C      1  0.4489620000000  0.6106430000000  0.3701270000000 1.0
C      1  0.3627470000000  0.6250930000000  0.5598670000000 1.0
C      1  0.5461690000000  0.6563230000000  0.6355710000000 1.0
C      1  0.6305720000000  0.6361930000000  0.4586430000000 1.0
C      1  0.5492110000000  0.6174200000000  0.3700900000000 1.0
C      1  0.6352240000000  0.6260000000000  0.5582800000000 1.0
C      1  0.4484860000000  0.6486350000000  0.6430110000000 1.0
C      1  0.3745960000000  0.6381510000000  0.4625180000000 1.0
C      1  0.5843880000000  0.5420850000000  0.3136550000000 1.0
C      1  0.3344150000000  0.5585920000000  0.4147030000000 1.0
C      1  0.4220970000000  0.5574650000000  0.6810980000000 1.0
C      1  0.6809170000000  0.5392520000000  0.5809160000000 1.0
C      1  0.4231320000000  0.5265220000000  0.3205430000000 1.0
C      1  0.6860140000000  0.5609370000000  0.4184230000000 1.0
C      1  0.5899430000000  0.5725570000000  0.6724730000000 1.0
C      1  0.3225050000000  0.5352240000000  0.5790860000000 1.0
C      1  0.7329810000000  0.5697680000000  0.2672350000000 1.0
C      1  0.2765980000000  0.5452140000000  0.2692030000000 1.0
C      1  0.2742000000000  0.5272300000000  0.7289960000000 1.0
C      1  0.7355950000000  0.5506260000000  0.7270800000000 1.0
END
