TITL C-3036479-9801-1116 0.00650638768324195 3375 -328.991925869517 0 0 60 (Oh) n - 1
REM
REM in /home/bkarasulu/work/CARBON/AIRSS/Generating-Clusters/REBO/Higher-Symm/Only-C60
REM
REM
REM
REM
REM
REM ./C.cell (a2850807a9bf4ad07a5b6933b78d9264)
REM AIRSS Version 0.9.1 bugfix July 2018 build 013d7b7c2542+ Fri, 06 Jul 2018 19:26:36 +0100
REM compiler GCC version 9.2.1 20190827 (Red Hat 9.2.1-1)
REM options -cpp -mtune=generic -march=x86-64 -g -O0 -fpre-include=/usr/include/finclude/math-vector-fortran.h
REM seed 2031374457 -302802103 1485743862 2056560181 1338589469 714721467 -1072012557 578012630 1240117838 1551383449 -1539045310 -1474333854 1780933884 490004462 -1227264210 1937616006 1588478836 318028972 -1161713382 -267179754 -24340449 828576417 -310679410 1307416230 -679529328 386468501 -753572017 -1335553515 -919964898 -179552521 -431814538 -532520774 2030484268
REM
CELL 1.54180   15.00000   15.00000   15.00000   90.00000   90.00000   90.00000
LATT -1
SFAC C  
C      1  0.3180990000000  0.4512570000000  0.2825150000000 1.0
C      1  0.4512620000000  0.3180980000000  0.2825140000000 1.0
C      1  0.6331630000000  0.3668410000000  0.2825150000000 1.0
C      1  0.6819010000000  0.5487430000000  0.2825150000000 1.0
C      1  0.5487380000000  0.6819020000000  0.2825140000000 1.0
C      1  0.3668370000000  0.6331590000000  0.2825150000000 1.0
C      1  0.3180990000000  0.5487430000000  0.2825150000000 1.0
C      1  0.4512620000000  0.6819020000000  0.2825140000000 1.0
C      1  0.6331630000000  0.6331590000000  0.2825150000000 1.0
C      1  0.6819010000000  0.4512570000000  0.2825150000000 1.0
C      1  0.5487380000000  0.3180980000000  0.2825140000000 1.0
C      1  0.3668370000000  0.3668410000000  0.2825150000000 1.0
C      1  0.3497220000000  0.6502400000000  0.4999200000000 1.0
C      1  0.2947490000000  0.4449750000000  0.4999190000000 1.0
C      1  0.4450280000000  0.2947350000000  0.4999190000000 1.0
C      1  0.6502780000000  0.3497600000000  0.4999200000000 1.0
C      1  0.7052510000000  0.5550250000000  0.4999190000000 1.0
C      1  0.5549720000000  0.7052650000000  0.4999190000000 1.0
C      1  0.3497220000000  0.3497600000000  0.4999200000000 1.0
C      1  0.2947490000000  0.5550250000000  0.4999190000000 1.0
C      1  0.4450280000000  0.7052650000000  0.4999190000000 1.0
C      1  0.6502780000000  0.6502400000000  0.4999200000000 1.0
C      1  0.7052510000000  0.4449750000000  0.4999190000000 1.0
C      1  0.5549720000000  0.2947350000000  0.4999190000000 1.0
C      1  0.2878450000000  0.4432580000000  0.6099310000000 1.0
C      1  0.4430630000000  0.2878970000000  0.6099310000000 1.0
C      1  0.6552180000000  0.3446390000000  0.6099310000000 1.0
C      1  0.7121550000000  0.5567420000000  0.6099310000000 1.0
C      1  0.5569370000000  0.7121030000000  0.6099310000000 1.0
C      1  0.3447820000000  0.6553610000000  0.6099310000000 1.0
C      1  0.2878450000000  0.5567420000000  0.6099310000000 1.0
C      1  0.4430630000000  0.7121030000000  0.6099310000000 1.0
C      1  0.6552180000000  0.6553610000000  0.6099310000000 1.0
C      1  0.7121550000000  0.4432580000000  0.6099310000000 1.0
C      1  0.5569370000000  0.2878970000000  0.6099310000000 1.0
C      1  0.3447820000000  0.3446390000000  0.6099310000000 1.0
C      1  0.4432010000000  0.2879200000000  0.3897010000000 1.0
C      1  0.6552670000000  0.3447710000000  0.3897020000000 1.0
C      1  0.7120660000000  0.5568510000000  0.3897010000000 1.0
C      1  0.5567990000000  0.7120800000000  0.3897010000000 1.0
C      1  0.3447330000000  0.6552290000000  0.3897020000000 1.0
C      1  0.2879340000000  0.4431490000000  0.3897010000000 1.0
C      1  0.4432010000000  0.7120800000000  0.3897010000000 1.0
C      1  0.6552670000000  0.6552290000000  0.3897020000000 1.0
C      1  0.7120660000000  0.4431490000000  0.3897010000000 1.0
C      1  0.5567990000000  0.2879200000000  0.3897010000000 1.0
C      1  0.3447330000000  0.3447710000000  0.3897020000000 1.0
C      1  0.2879340000000  0.5568510000000  0.3897010000000 1.0
C      1  0.3161650000000  0.5492290000000  0.7179330000000 1.0
C      1  0.3654490000000  0.3654090000000  0.7179340000000 1.0
C      1  0.5492840000000  0.3161800000000  0.7179330000000 1.0
C      1  0.6838350000000  0.4507710000000  0.7179330000000 1.0
C      1  0.6345510000000  0.6345910000000  0.7179340000000 1.0
C      1  0.4507160000000  0.6838200000000  0.7179330000000 1.0
C      1  0.3161650000000  0.4507710000000  0.7179330000000 1.0
C      1  0.3654490000000  0.6345910000000  0.7179340000000 1.0
C      1  0.5492840000000  0.6838200000000  0.7179330000000 1.0
C      1  0.6838350000000  0.5492290000000  0.7179330000000 1.0
C      1  0.6345510000000  0.3654090000000  0.7179340000000 1.0
C      1  0.4507160000000  0.3161800000000  0.7179330000000 1.0
END
