TITL C-3036482-790-656 -4.16018880974894e-06 3375 -344.070978950826 0 0 60 (C1) n - 1
REM
REM in /home/bkarasulu/work/CARBON/AIRSS/Generating-Clusters/REBO/Higher-Symm/Only-C60
REM
REM
REM
REM
REM
REM ./C.cell (a2850807a9bf4ad07a5b6933b78d9264)
REM AIRSS Version 0.9.1 bugfix July 2018 build 013d7b7c2542+ Fri, 06 Jul 2018 19:26:36 +0100
REM compiler GCC version 9.2.1 20190827 (Red Hat 9.2.1-1)
REM options -cpp -mtune=generic -march=x86-64 -g -O0 -fpre-include=/usr/include/finclude/math-vector-fortran.h
REM seed 1878676329 588470627 1436293846 1757677344 -665955685 1872353905 -1580751619 -1692558677 -1089234113 -576481124 1689324216 1157310595 1300162500 23894218 -409109606 -213859020 1875261622 -1236395124 102711864 -1265773786 24911975 1429314108 -1276768378 1102195266 -634100317 -686503528 2114460819 -834179214 337244125 1080486929 1466475100 -308998974 1787081035
REM
CELL 1.54180   15.00000   15.00000   15.00000   90.00000   90.00000   90.00000
LATT -1
SFAC C  
C      1  0.6439140000000  0.5638970000000  0.6729490000000 1.0
C      1  0.5811900000000  0.5402370000000  0.2777510000000 1.0
C      1  0.2852980000000  0.5387350000000  0.5251070000000 1.0
C      1  0.7120830000000  0.4349290000000  0.5616760000000 1.0
C      1  0.4309270000000  0.4141590000000  0.2764650000000 1.0
C      1  0.3365420000000  0.4170720000000  0.6541310000000 1.0
C      1  0.6552350000000  0.3351440000000  0.4402470000000 1.0
C      1  0.3709890000000  0.3098580000000  0.4044520000000 1.0
C      1  0.4858310000000  0.3443770000000  0.6735910000000 1.0
C      1  0.5222170000000  0.5643890000000  0.6075200000000 1.0
C      1  0.5131830000000  0.5836440000000  0.4944830000000 1.0
C      1  0.4088990000000  0.5666100000000  0.4609130000000 1.0
C      1  0.6139210000000  0.4161490000000  0.3723560000000 1.0
C      1  0.3735320000000  0.4134290000000  0.4488610000000 1.0
C      1  0.5348900000000  0.4353940000000  0.6384370000000 1.0
C      1  0.3939820000000  0.6152470000000  0.7094160000000 1.0
C      1  0.7426740000000  0.6121900000000  0.4933970000000 1.0
C      1  0.3637100000000  0.6587570000000  0.2996490000000 1.0
C      1  0.4062220000000  0.6431940000000  0.5472820000000 1.0
C      1  0.5988770000000  0.6435440000000  0.5764430000000 1.0
C      1  0.4983540000000  0.6435930000000  0.3989730000000 1.0
C      1  0.3662410000000  0.4971340000000  0.2920340000000 1.0
C      1  0.3705570000000  0.4452330000000  0.7401330000000 1.0
C      1  0.7698340000000  0.4485840000000  0.4860060000000 1.0
C      1  0.3347700000000  0.5798740000000  0.2631700000000 1.0
C      1  0.3672460000000  0.5399170000000  0.7527110000000 1.0
C      1  0.7956730000000  0.5396030000000  0.4770360000000 1.0
C      1  0.2884950000000  0.3843150000000  0.3812230000000 1.0
C      1  0.4558180000000  0.4035660000000  0.7586540000000 1.0
C      1  0.7410650000000  0.3961270000000  0.4111440000000 1.0
C      1  0.4372410000000  0.6616720000000  0.6398190000000 1.0
C      1  0.6543220000000  0.6428570000000  0.4965600000000 1.0
C      1  0.4076950000000  0.6785560000000  0.3801430000000 1.0
C      1  0.4253650000000  0.4104010000000  0.5370100000000 1.0
C      1  0.5784010000000  0.4343860000000  0.5554790000000 1.0
C      1  0.5034680000000  0.4232140000000  0.3872710000000 1.0
C      1  0.6080190000000  0.6460960000000  0.4197560000000 1.0
C      1  0.3573450000000  0.6893040000000  0.4572800000000 1.0
C      1  0.5259520000000  0.6903280000000  0.6497370000000 1.0
C      1  0.4976650000000  0.4973720000000  0.2769620000000 1.0
C      1  0.3371940000000  0.4930530000000  0.5926560000000 1.0
C      1  0.6719480000000  0.5223120000000  0.5903310000000 1.0
C      1  0.6000480000000  0.5218230000000  0.5098240000000 1.0
C      1  0.4387210000000  0.5040530000000  0.3762580000000 1.0
C      1  0.4395640000000  0.5080410000000  0.5758890000000 1.0
C      1  0.4521200000000  0.3316500000000  0.3446090000000 1.0
C      1  0.3982760000000  0.3366950000000  0.6173100000000 1.0
C      1  0.6438150000000  0.3523200000000  0.5404030000000 1.0
C      1  0.5776800000000  0.3112170000000  0.6183020000000 1.0
C      1  0.5558140000000  0.3207250000000  0.3873810000000 1.0
C      1  0.3990230000000  0.3010770000000  0.5116210000000 1.0
C      1  0.3179890000000  0.5036260000000  0.4323760000000 1.0
C      1  0.5577140000000  0.5161560000000  0.7037480000000 1.0
C      1  0.6507980000000  0.4810940000000  0.3014620000000 1.0
C      1  0.6273580000000  0.6643470000000  0.6832790000000 1.0
C      1  0.5787090000000  0.6238440000000  0.3215180000000 1.0
C      1  0.2972230000000  0.6330850000000  0.5261520000000 1.0
C      1  0.2406230000000  0.4692880000000  0.3593750000000 1.0
C      1  0.5208090000000  0.4635240000000  0.7846620000000 1.0
C      1  0.7369330000000  0.4389870000000  0.3266190000000 1.0
END
