TITL C-3036480-97-1109 2.49975853395661e-05 3375 -359.523116235808 0 0 60 (Th) n - 1
REM
REM in /home/bkarasulu/work/CARBON/AIRSS/Generating-Clusters/REBO/Higher-Symm/Only-C60
REM
REM
REM
REM
REM
REM ./C.cell (a2850807a9bf4ad07a5b6933b78d9264)
REM AIRSS Version 0.9.1 bugfix July 2018 build 013d7b7c2542+ Fri, 06 Jul 2018 19:26:36 +0100
REM compiler GCC version 9.2.1 20190827 (Red Hat 9.2.1-1)
REM options -cpp -mtune=generic -march=x86-64 -g -O0 -fpre-include=/usr/include/finclude/math-vector-fortran.h
REM seed -2117245762 -1722667227 739570502 -1060946745 -1909623502 525034837 -974015600 1856502821 -898600212 2047326202 624866590 -1097068425 1704315933 -1325303623 1511773341 1797233531 -1094861892 810339447 -1126578021 1719594593 1138053133 439048394 664249833 -915857445 1351382940 1856440639 -1096403963 592783227 -1724165779 1635022328 -1081160038 1990473461 -332549874
REM
CELL 1.54180   15.00000   15.00000   15.00000   90.00000   90.00000   90.00000
LATT -1
SFAC C  
C      1  0.5866470000000  0.6651190000000  0.3307940000000 1.0
C      1  0.3307940000000  0.5866470000000  0.6651190000000 1.0
C      1  0.6651190000000  0.3307940000000  0.5866470000000 1.0
C      1  0.4133530000000  0.3348810000000  0.3307940000000 1.0
C      1  0.4133530000000  0.6651190000000  0.6692060000000 1.0
C      1  0.5866470000000  0.3348810000000  0.6692060000000 1.0
C      1  0.6692060000000  0.4133530000000  0.6651190000000 1.0
C      1  0.6692060000000  0.5866470000000  0.3348810000000 1.0
C      1  0.3307940000000  0.4133530000000  0.3348810000000 1.0
C      1  0.3348810000000  0.6692060000000  0.5866470000000 1.0
C      1  0.3348810000000  0.3307940000000  0.4133530000000 1.0
C      1  0.6651190000000  0.6692060000000  0.4133530000000 1.0
C      1  0.5866470000000  0.6651190000000  0.6692060000000 1.0
C      1  0.3307940000000  0.5866470000000  0.3348810000000 1.0
C      1  0.6651190000000  0.3307940000000  0.4133530000000 1.0
C      1  0.4133530000000  0.3348810000000  0.6692060000000 1.0
C      1  0.4133530000000  0.6651190000000  0.3307940000000 1.0
C      1  0.5866470000000  0.3348810000000  0.3307940000000 1.0
C      1  0.6692060000000  0.4133530000000  0.3348810000000 1.0
C      1  0.6692060000000  0.5866470000000  0.6651190000000 1.0
C      1  0.3307940000000  0.4133530000000  0.6651190000000 1.0
C      1  0.3348810000000  0.6692060000000  0.4133530000000 1.0
C      1  0.3348810000000  0.3307940000000  0.5866470000000 1.0
C      1  0.6651190000000  0.6692060000000  0.5866470000000 1.0
C      1  0.7067930000000  0.4559700000000  0.4264310000000 1.0
C      1  0.4264310000000  0.7067930000000  0.4559700000000 1.0
C      1  0.4559700000000  0.4264310000000  0.7067930000000 1.0
C      1  0.2932070000000  0.5440300000000  0.4264310000000 1.0
C      1  0.2932070000000  0.4559700000000  0.5735690000000 1.0
C      1  0.7067930000000  0.5440300000000  0.5735690000000 1.0
C      1  0.5735690000000  0.2932070000000  0.4559700000000 1.0
C      1  0.5735690000000  0.7067930000000  0.5440300000000 1.0
C      1  0.4264310000000  0.2932070000000  0.5440300000000 1.0
C      1  0.5440300000000  0.5735690000000  0.7067930000000 1.0
C      1  0.5440300000000  0.4264310000000  0.2932070000000 1.0
C      1  0.4559700000000  0.5735690000000  0.2932070000000 1.0
C      1  0.7067930000000  0.4559700000000  0.5735690000000 1.0
C      1  0.4264310000000  0.7067930000000  0.5440300000000 1.0
C      1  0.4559700000000  0.4264310000000  0.2932070000000 1.0
C      1  0.2932070000000  0.5440300000000  0.5735690000000 1.0
C      1  0.2932070000000  0.4559700000000  0.4264310000000 1.0
C      1  0.7067930000000  0.5440300000000  0.4264310000000 1.0
C      1  0.5735690000000  0.2932070000000  0.5440300000000 1.0
C      1  0.5735690000000  0.7067930000000  0.4559700000000 1.0
C      1  0.4264310000000  0.2932070000000  0.4559700000000 1.0
C      1  0.5440300000000  0.5735690000000  0.2932070000000 1.0
C      1  0.5440300000000  0.4264310000000  0.7067930000000 1.0
C      1  0.4559700000000  0.5735690000000  0.7067930000000 1.0
C      1  0.5000000000000  0.7172790000000  0.3751950000000 1.0
C      1  0.5000000000000  0.2827210000000  0.6248050000000 1.0
C      1  0.7172790000000  0.3751950000000  0.5000000000000 1.0
C      1  0.2827210000000  0.6248050000000  0.5000000000000 1.0
C      1  0.5000000000000  0.2827210000000  0.3751950000000 1.0
C      1  0.3751950000000  0.5000000000000  0.2827210000000 1.0
C      1  0.2827210000000  0.3751950000000  0.5000000000000 1.0
C      1  0.5000000000000  0.7172790000000  0.6248050000000 1.0
C      1  0.6248050000000  0.5000000000000  0.2827210000000 1.0
C      1  0.6248050000000  0.5000000000000  0.7172790000000 1.0
C      1  0.3751950000000  0.5000000000000  0.7172790000000 1.0
C      1  0.7172790000000  0.6248050000000  0.5000000000000 1.0
END
