TITL C-3036481-494-1043 -1.1781290944742e-05 3375 -301.457109353588 0 0 60 (D2d) n - 1
REM
REM in /home/bkarasulu/work/CARBON/AIRSS/Generating-Clusters/REBO/Higher-Symm/Only-C60
REM
REM
REM
REM
REM
REM ./C.cell (a2850807a9bf4ad07a5b6933b78d9264)
REM AIRSS Version 0.9.1 bugfix July 2018 build 013d7b7c2542+ Fri, 06 Jul 2018 19:26:36 +0100
REM compiler GCC version 9.2.1 20190827 (Red Hat 9.2.1-1)
REM options -cpp -mtune=generic -march=x86-64 -g -O0 -fpre-include=/usr/include/finclude/math-vector-fortran.h
REM seed -1374889954 -195388920 -1022836281 1864091577 264887942 1333128323 1631782178 -396091308 1821794915 862361918 1693313082 -478228574 737768513 -1425611761 1957103142 737528365 1958223275 -526772600 2050258118 614731532 -1152807139 -1469001728 -225392823 -713386431 1258025161 149654440 980345273 1484677342 1435327959 -1170926726 868631560 767038303 -1301604671
REM
CELL 1.54180   15.00000   15.00000   15.00000   90.00000   90.00000   90.00000
LATT -1
SFAC C  
C      1  0.6760170000000  0.3818350000000  0.4064860000000 1.0
C      1  0.3239830000000  0.3818350000000  0.5935140000000 1.0
C      1  0.3239830000000  0.6181650000000  0.4064860000000 1.0
C      1  0.6760170000000  0.6181650000000  0.5935140000000 1.0
C      1  0.4064860000000  0.3818350000000  0.6760170000000 1.0
C      1  0.5935140000000  0.3818350000000  0.3239830000000 1.0
C      1  0.4064860000000  0.6181650000000  0.3239830000000 1.0
C      1  0.5935140000000  0.6181650000000  0.6760170000000 1.0
C      1  0.3772370000000  0.6717640000000  0.5429970000000 1.0
C      1  0.6227630000000  0.6717640000000  0.4570030000000 1.0
C      1  0.6227630000000  0.3282360000000  0.5429970000000 1.0
C      1  0.3772360000000  0.3282360000000  0.4570030000000 1.0
C      1  0.5429960000000  0.6717640000000  0.3772360000000 1.0
C      1  0.4570040000000  0.6717640000000  0.6227640000000 1.0
C      1  0.5429970000000  0.3282360000000  0.6227640000000 1.0
C      1  0.4570030000000  0.3282360000000  0.3772370000000 1.0
C      1  0.4240800000000  0.4182670000000  0.4994820000000 1.0
C      1  0.5759200000000  0.4182670000000  0.5005180000000 1.0
C      1  0.5759200000000  0.5817330000000  0.4994820000000 1.0
C      1  0.4240800000000  0.5817330000000  0.5005180000000 1.0
C      1  0.4994820000000  0.4182670000000  0.4240800000000 1.0
C      1  0.5005180000000  0.4182670000000  0.5759200000000 1.0
C      1  0.4994820000000  0.5817330000000  0.5759200000000 1.0
C      1  0.5005180000000  0.5817330000000  0.4240800000000 1.0
C      1  0.4936320000000  0.4422670000000  0.7242350000000 1.0
C      1  0.5063680000000  0.4422670000000  0.2757650000000 1.0
C      1  0.5063680000000  0.5577330000000  0.7242350000000 1.0
C      1  0.4936320000000  0.5577330000000  0.2757650000000 1.0
C      1  0.7242350000000  0.4422670000000  0.4936320000000 1.0
C      1  0.2757650000000  0.4422670000000  0.5063680000000 1.0
C      1  0.7242350000000  0.5577330000000  0.5063680000000 1.0
C      1  0.2757650000000  0.5577330000000  0.4936320000000 1.0
C      1  0.5657280000000  0.5148040000000  0.6396260000000 1.0
C      1  0.4342720000000  0.5148040000000  0.3603740000000 1.0
C      1  0.4342720000000  0.4851960000000  0.6396260000000 1.0
C      1  0.5657280000000  0.4851960000000  0.3603740000000 1.0
C      1  0.6396260000000  0.5148040000000  0.5657280000000 1.0
C      1  0.3603740000000  0.5148040000000  0.4342720000000 1.0
C      1  0.6396260000000  0.4851960000000  0.4342720000000 1.0
C      1  0.3603740000000  0.4851960000000  0.5657280000000 1.0
C      1  0.4204200000000  0.2414740000000  0.5009100000000 1.0
C      1  0.5795800000000  0.2414740000000  0.4990900000000 1.0
C      1  0.5795800000000  0.7585260000000  0.5009100000000 1.0
C      1  0.4204200000000  0.7585260000000  0.4990900000000 1.0
C      1  0.5009100000000  0.2414740000000  0.4204200000000 1.0
C      1  0.4990900000000  0.2414740000000  0.5795800000000 1.0
C      1  0.5009100000000  0.7585260000000  0.5795800000000 1.0
C      1  0.4990900000000  0.7585260000000  0.4204200000000 1.0
C      1  0.6731260000000  0.5872910000000  0.4086820000000 1.0
C      1  0.3268740000000  0.5872910000000  0.5913180000000 1.0
C      1  0.3268740000000  0.4127090000000  0.4086820000000 1.0
C      1  0.6731260000000  0.4127090000000  0.5913180000000 1.0
C      1  0.4086820000000  0.5872910000000  0.6731260000000 1.0
C      1  0.5913180000000  0.5872910000000  0.3268740000000 1.0
C      1  0.4086820000000  0.4127090000000  0.3268740000000 1.0
C      1  0.5913180000000  0.4127090000000  0.6731260000000 1.0
C      1  0.4029430000000  0.6996110000000  0.4029430000000 1.0
C      1  0.5970570000000  0.3003890000000  0.4029430000000 1.0
C      1  0.5970570000000  0.6996110000000  0.5970570000000 1.0
C      1  0.4029430000000  0.3003890000000  0.5970570000000 1.0
END
