TITL C-3036479-9801-220 0.000565642886997903 3375 -367.839542572243 0 0 60 (C1) n - 1
REM
REM in /home/bkarasulu/work/CARBON/AIRSS/Generating-Clusters/REBO/Higher-Symm/Only-C60
REM
REM
REM
REM
REM
REM ./C.cell (a2850807a9bf4ad07a5b6933b78d9264)
REM AIRSS Version 0.9.1 bugfix July 2018 build 013d7b7c2542+ Fri, 06 Jul 2018 19:26:36 +0100
REM compiler GCC version 9.2.1 20190827 (Red Hat 9.2.1-1)
REM options -cpp -mtune=generic -march=x86-64 -g -O0 -fpre-include=/usr/include/finclude/math-vector-fortran.h
REM seed -517980149 -1125627612 -1261486139 -554785510 -490500643 -335865705 -95673245 -342028433 -167279350 -1313543221 1955886799 -1203993764 2108869600 556341227 -1066203831 167726752 -1563584992 1091460197 683750835 1506279664 1861031099 549321151 1671428268 1970399915 264040939 -1923006971 -1549454350 538266057 1995467178 594941753 -1534100596 -2045561234 1987500325
REM
CELL 1.54180   15.00000   15.00000   15.00000   90.00000   90.00000   90.00000
LATT -1
SFAC C  
C      1  0.5663770000000  0.4034340000000  0.5055300000000 1.0
C      1  0.4384700000000  0.4216280000000  0.5378080000000 1.0
C      1  0.5611120000000  0.4485540000000  0.5888280000000 1.0
C      1  0.4365340000000  0.5044170000000  0.5808030000000 1.0
C      1  0.5632530000000  0.5444910000000  0.5908280000000 1.0
C      1  0.4351170000000  0.5857220000000  0.5345800000000 1.0
C      1  0.5656910000000  0.5909380000000  0.5089440000000 1.0
C      1  0.4402070000000  0.5831980000000  0.4406870000000 1.0
C      1  0.5670140000000  0.5440790000000  0.4286620000000 1.0
C      1  0.4431640000000  0.4985030000000  0.3941390000000 1.0
C      1  0.5676180000000  0.4518110000000  0.4261110000000 1.0
C      1  0.4403740000000  0.4165900000000  0.4440530000000 1.0
C      1  0.4722260000000  0.4877590000000  0.2843230000000 1.0
C      1  0.5294870000000  0.4093760000000  0.3368970000000 1.0
C      1  0.4702480000000  0.3139670000000  0.4062530000000 1.0
C      1  0.5317910000000  0.2975060000000  0.4973940000000 1.0
C      1  0.4705520000000  0.3479080000000  0.6031770000000 1.0
C      1  0.5306990000000  0.3935370000000  0.6840120000000 1.0
C      1  0.4710660000000  0.5116490000000  0.6809860000000 1.0
C      1  0.5313990000000  0.6049750000000  0.6819180000000 1.0
C      1  0.4695230000000  0.6781520000000  0.5907560000000 1.0
C      1  0.5310220000000  0.6926750000000  0.4985860000000 1.0
C      1  0.4707160000000  0.6761490000000  0.3819770000000 1.0
C      1  0.5298140000000  0.5915280000000  0.3424440000000 1.0
C      1  0.3439220000000  0.3198760000000  0.5276380000000 1.0
C      1  0.6562350000000  0.3464760000000  0.5986050000000 1.0
C      1  0.3406010000000  0.4283630000000  0.6756920000000 1.0
C      1  0.6552610000000  0.5088070000000  0.6804560000000 1.0
C      1  0.3390530000000  0.6135580000000  0.6505860000000 1.0
C      1  0.6562280000000  0.6618260000000  0.5815160000000 1.0
C      1  0.3387270000000  0.6805590000000  0.4784920000000 1.0
C      1  0.6580210000000  0.6547170000000  0.3981470000000 1.0
C      1  0.3429350000000  0.5690010000000  0.3355450000000 1.0
C      1  0.6599770000000  0.4918120000000  0.3130740000000 1.0
C      1  0.3416440000000  0.3899290000000  0.3585850000000 1.0
C      1  0.6590620000000  0.3362180000000  0.4137320000000 1.0
C      1  0.4193720000000  0.2817860000000  0.4995190000000 1.0
C      1  0.5757380000000  0.3056410000000  0.5950880000000 1.0
C      1  0.4178030000000  0.3849100000000  0.6925840000000 1.0
C      1  0.5758740000000  0.4848500000000  0.7159670000000 1.0
C      1  0.4183540000000  0.6081880000000  0.6926220000000 1.0
C      1  0.5784170000000  0.6799090000000  0.6222160000000 1.0
C      1  0.4192490000000  0.7130780000000  0.4985620000000 1.0
C      1  0.5794920000000  0.6987150000000  0.4042160000000 1.0
C      1  0.4209950000000  0.6065130000000  0.3113070000000 1.0
C      1  0.5806710000000  0.5204480000000  0.2807620000000 1.0
C      1  0.4189240000000  0.3947150000000  0.3143110000000 1.0
C      1  0.5789760000000  0.3221420000000  0.3752470000000 1.0
C      1  0.6940270000000  0.5051130000000  0.5935530000000 1.0
C      1  0.3027860000000  0.5592440000000  0.5807710000000 1.0
C      1  0.6949530000000  0.5851460000000  0.5409360000000 1.0
C      1  0.3018670000000  0.5940870000000  0.4911590000000 1.0
C      1  0.6950700000000  0.5802330000000  0.4450710000000 1.0
C      1  0.3034210000000  0.5356690000000  0.4155160000000 1.0
C      1  0.6956000000000  0.4945700000000  0.4017340000000 1.0
C      1  0.3039160000000  0.4412960000000  0.4290880000000 1.0
C      1  0.6952300000000  0.4142890000000  0.4547300000000 1.0
C      1  0.3054110000000  0.4060400000000  0.5181020000000 1.0
C      1  0.6941940000000  0.4196100000000  0.5506260000000 1.0
C      1  0.3045230000000  0.4641210000000  0.5945520000000 1.0
END
