TITL C-3036486-2224-200 2.42067822999481e-06 3375 -319.595835832955 0 0 60 (C1) n - 1
REM
REM in /home/bkarasulu/work/CARBON/AIRSS/Generating-Clusters/REBO/Higher-Symm/Only-C60
REM
REM
REM
REM
REM
REM ./C.cell (a2850807a9bf4ad07a5b6933b78d9264)
REM AIRSS Version 0.9.1 bugfix July 2018 build 013d7b7c2542+ Fri, 06 Jul 2018 19:26:36 +0100
REM compiler GCC version 9.2.1 20190827 (Red Hat 9.2.1-1)
REM options -cpp -mtune=generic -march=x86-64 -g -O0 -fpre-include=/usr/include/finclude/math-vector-fortran.h
REM seed 1951813953 -1451950258 435713457 -709801570 -362217810 -1128944378 1971218752 -465891242 149351602 224125798 -320719443 -1920652978 -546414515 373277968 -1432577397 -626574983 -995986322 -1784763971 1802656289 -553579683 267158711 771537259 1619805919 -465902131 -517118431 -1872329485 -56684704 1302502565 1176205075 -707115983 1971192014 -1762220825 192851222
REM
CELL 1.54180   15.00000   15.00000   15.00000   90.00000   90.00000   90.00000
LATT -1
SFAC C  
C      1  0.4593350000000  0.3015290000000  0.3624140000000 1.0
C      1  0.3486870000000  0.4334020000000  0.2881780000000 1.0
C      1  0.2928140000000  0.3577090000000  0.4646470000000 1.0
C      1  0.4376280000000  0.7184570000000  0.6753960000000 1.0
C      1  0.5623040000000  0.7235590000000  0.3326870000000 1.0
C      1  0.5402400000000  0.2900610000000  0.6411320000000 1.0
C      1  0.3522660000000  0.5666260000000  0.6944100000000 1.0
C      1  0.6438870000000  0.5384440000000  0.2924010000000 1.0
C      1  0.6403740000000  0.4618200000000  0.7042020000000 1.0
C      1  0.2868520000000  0.6513510000000  0.5655480000000 1.0
C      1  0.7051690000000  0.6395530000000  0.4570770000000 1.0
C      1  0.7023470000000  0.3607080000000  0.5366450000000 1.0
C      1  0.5602950000000  0.2813230000000  0.3293400000000 1.0
C      1  0.6670400000000  0.4341850000000  0.2775740000000 1.0
C      1  0.7236020000000  0.3286640000000  0.4355010000000 1.0
C      1  0.5401160000000  0.7050510000000  0.6437810000000 1.0
C      1  0.4597420000000  0.7072480000000  0.3632980000000 1.0
C      1  0.4385850000000  0.2704560000000  0.6730500000000 1.0
C      1  0.6645710000000  0.5659420000000  0.7186220000000 1.0
C      1  0.3498240000000  0.5391640000000  0.2773480000000 1.0
C      1  0.3500520000000  0.4618990000000  0.7105310000000 1.0
C      1  0.7193400000000  0.6711020000000  0.5596040000000 1.0
C      1  0.2876570000000  0.6493850000000  0.4589760000000 1.0
C      1  0.2804010000000  0.3364140000000  0.5695670000000 1.0
C      1  0.5486670000000  0.5550040000000  0.2530200000000 1.0
C      1  0.2497000000000  0.5499510000000  0.5386180000000 1.0
C      1  0.5500730000000  0.2525510000000  0.5435250000000 1.0
C      1  0.5458630000000  0.4456030000000  0.7458370000000 1.0
C      1  0.4510230000000  0.4565790000000  0.2523010000000 1.0
C      1  0.4500010000000  0.5440200000000  0.7415530000000 1.0
C      1  0.2530860000000  0.4525890000000  0.4464120000000 1.0
C      1  0.7434530000000  0.4567070000000  0.5484330000000 1.0
C      1  0.7463440000000  0.5433660000000  0.4475350000000 1.0
C      1  0.5596480000000  0.7548790000000  0.4353070000000 1.0
C      1  0.4393420000000  0.7532940000000  0.5733690000000 1.0
C      1  0.4486090000000  0.2577760000000  0.4576500000000 1.0
C      1  0.4393940000000  0.5689120000000  0.2393860000000 1.0
C      1  0.7532760000000  0.5691610000000  0.5579250000000 1.0
C      1  0.4399930000000  0.2422240000000  0.5695790000000 1.0
C      1  0.4359950000000  0.4326240000000  0.7573830000000 1.0
C      1  0.5642950000000  0.4434320000000  0.2462210000000 1.0
C      1  0.5627970000000  0.5575680000000  0.7522130000000 1.0
C      1  0.7563700000000  0.4308460000000  0.4385970000000 1.0
C      1  0.2460620000000  0.4379800000000  0.5586840000000 1.0
C      1  0.2452030000000  0.5619440000000  0.4264480000000 1.0
C      1  0.4492870000000  0.7448210000000  0.4607250000000 1.0
C      1  0.5497660000000  0.7459530000000  0.5478040000000 1.0
C      1  0.5583320000000  0.2467710000000  0.4306880000000 1.0
C      1  0.7203320000000  0.5078980000000  0.6421490000000 1.0
C      1  0.7239310000000  0.4918070000000  0.3538250000000 1.0
C      1  0.2798260000000  0.5053210000000  0.6364420000000 1.0
C      1  0.2773880000000  0.4946460000000  0.3478870000000 1.0
C      1  0.6432650000000  0.2774040000000  0.4924120000000 1.0
C      1  0.3556640000000  0.7199010000000  0.5117500000000 1.0
C      1  0.4972610000000  0.3491280000000  0.7249540000000 1.0
C      1  0.5002850000000  0.6503690000000  0.2770840000000 1.0
C      1  0.6438240000000  0.7231690000000  0.4971060000000 1.0
C      1  0.5006250000000  0.6418260000000  0.7260540000000 1.0
C      1  0.3554290000000  0.2787210000000  0.5106630000000 1.0
C      1  0.5024670000000  0.3612020000000  0.2785310000000 1.0
END
