TITL C-3036484-3770-1113 7.15754089677821e-06 3375 -344.065104420794 0 0 60 (C3) n - 1
REM
REM in /home/bkarasulu/work/CARBON/AIRSS/Generating-Clusters/REBO/Higher-Symm/Only-C60
REM
REM
REM
REM
REM
REM ./C.cell (a2850807a9bf4ad07a5b6933b78d9264)
REM AIRSS Version 0.9.1 bugfix July 2018 build 013d7b7c2542+ Fri, 06 Jul 2018 19:26:36 +0100
REM compiler GCC version 9.2.1 20190827 (Red Hat 9.2.1-1)
REM options -cpp -mtune=generic -march=x86-64 -g -O0 -fpre-include=/usr/include/finclude/math-vector-fortran.h
REM seed 44964028 2085715057 1358272946 1511348367 -1735019905 -218221744 1665762484 1412120460 480400219 817446170 179526351 -468741682 -1724977746 -383016081 -983353753 -7978729 1888385453 -250193579 -721500058 -801090043 303460541 -1816752152 -366133947 1416172881 -934104954 2016328387 1390950023 1620171863 1156366636 104831359 784284500 -1888094238 -1341819230
REM
CELL 1.54180   15.00000   15.00000   15.00000   90.00000   90.00000   90.00000
LATT -1
SFAC C  
C      1  0.3832640000000  0.6043800000000  0.2904190000000 1.0
C      1  0.3832660000000  0.6293140000000  0.6951870000000 1.0
C      1  0.3832650000000  0.2663080000000  0.5143960000000 1.0
C      1  0.4426860000000  0.2975020000000  0.4453400000000 1.0
C      1  0.4426870000000  0.6485860000000  0.3519620000000 1.0
C      1  0.4426880000000  0.5539130000000  0.7026990000000 1.0
C      1  0.4196310000000  0.4198340000000  0.2858540000000 1.0
C      1  0.4196330000000  0.7255400000000  0.5376470000000 1.0
C      1  0.4196320000000  0.3546270000000  0.6765000000000 1.0
C      1  0.4419040000000  0.4599720000000  0.7003460000000 1.0
C      1  0.4419020000000  0.3465100000000  0.3651620000000 1.0
C      1  0.4419030000000  0.6935190000000  0.4344930000000 1.0
C      1  0.6754500000000  0.4339650000000  0.3383280000000 1.0
C      1  0.6754520000000  0.6730280000000  0.5236470000000 1.0
C      1  0.6754520000000  0.3930060000000  0.6380230000000 1.0
C      1  0.3741660000000  0.6775270000000  0.6129930000000 1.0
C      1  0.3741650000000  0.3133820000000  0.5972470000000 1.0
C      1  0.3741640000000  0.5090910000000  0.2897620000000 1.0
C      1  0.5718210000000  0.6802760000000  0.6443120000000 1.0
C      1  0.5718200000000  0.2848850000000  0.5839670000000 1.0
C      1  0.5718190000000  0.5348400000000  0.2717200000000 1.0
C      1  0.5366050000000  0.5873270000000  0.6803280000000 1.0
C      1  0.5366040000000  0.3001670000000  0.4854630000000 1.0
C      1  0.5366040000000  0.6125050000000  0.3342080000000 1.0
C      1  0.3589800000000  0.6071720000000  0.5408560000000 1.0
C      1  0.3589800000000  0.4110330000000  0.5723870000000 1.0
C      1  0.3589790000000  0.4817960000000  0.3867600000000 1.0
C      1  0.5975210000000  0.3400810000000  0.6508360000000 1.0
C      1  0.5975200000000  0.4493310000000  0.2860870000000 1.0
C      1  0.5975220000000  0.7105880000000  0.5630760000000 1.0
C      1  0.5560600000000  0.7589490000000  0.3989050000000 1.0
C      1  0.5560610000000  0.4580760000000  0.7748030000000 1.0
C      1  0.5560590000000  0.2829750000000  0.3262900000000 1.0
C      1  0.7077750000000  0.4567290000000  0.5493500000000 1.0
C      1  0.7077740000000  0.4788950000000  0.4378500000000 1.0
C      1  0.7077750000000  0.5643740000000  0.5127970000000 1.0
C      1  0.5390950000000  0.5229700000000  0.4027150000000 1.0
C      1  0.5390960000000  0.5727660000000  0.5685350000000 1.0
C      1  0.5390950000000  0.4042630000000  0.5287500000000 1.0
C      1  0.5997920000000  0.4812170000000  0.5742950000000 1.0
C      1  0.5997910000000  0.4450490000000  0.4465860000000 1.0
C      1  0.5997920000000  0.5737320000000  0.4791180000000 1.0
C      1  0.5233120000000  0.7420190000000  0.5003880000000 1.0
C      1  0.5233120000000  0.3786550000000  0.7094010000000 1.0
C      1  0.5233100000000  0.3793260000000  0.2902110000000 1.0
C      1  0.6616810000000  0.3582450000000  0.4094490000000 1.0
C      1  0.6616810000000  0.6492950000000  0.4225120000000 1.0
C      1  0.6616820000000  0.4924580000000  0.6680370000000 1.0
C      1  0.4432670000000  0.4979950000000  0.4366720000000 1.0
C      1  0.4432680000000  0.5558460000000  0.5299280000000 1.0
C      1  0.4432680000000  0.4461590000000  0.5334010000000 1.0
C      1  0.2735780000000  0.5260960000000  0.4390060000000 1.0
C      1  0.2735790000000  0.5397760000000  0.5530980000000 1.0
C      1  0.2735780000000  0.4341290000000  0.5078990000000 1.0
C      1  0.2933820000000  0.6264740000000  0.4546710000000 1.0
C      1  0.2933830000000  0.4760200000000  0.6321960000000 1.0
C      1  0.2933810000000  0.3975070000000  0.4131360000000 1.0
C      1  0.6000310000000  0.5265800000000  0.7308400000000 1.0
C      1  0.6000280000000  0.2867960000000  0.4075980000000 1.0
C      1  0.6000290000000  0.6866230000000  0.3615610000000 1.0
END
