TITL C-3036486-2224-692 0.0266968416392479 3375 -335.803386786979 0 0 60 (C10) n - 1
REM
REM in /home/bkarasulu/work/CARBON/AIRSS/Generating-Clusters/REBO/Higher-Symm/Only-C60
REM
REM
REM
REM
REM
REM ./C.cell (a2850807a9bf4ad07a5b6933b78d9264)
REM AIRSS Version 0.9.1 bugfix July 2018 build 013d7b7c2542+ Fri, 06 Jul 2018 19:26:36 +0100
REM compiler GCC version 9.2.1 20190827 (Red Hat 9.2.1-1)
REM options -cpp -mtune=generic -march=x86-64 -g -O0 -fpre-include=/usr/include/finclude/math-vector-fortran.h
REM seed 836554786 -778270777 1027683200 254872387 -488888214 -152942220 -1084175999 1948957342 -336366648 -1932557391 1117099420 1046263648 -1541655443 -471458946 -632405261 73935155 -1399608253 -1520471780 -461313932 -565517547 827066408 1663568865 809753869 1243114582 1913889764 1388343681 -1729176545 -378417381 -290423431 -584451163 386032975 304074464 196474139
REM
CELL 1.54180   15.00000   15.00000   15.00000   90.00000   90.00000   90.00000
LATT -1
SFAC C  
C      1  0.4796210000000  0.4151710000000  0.6264700000000 1.0
C      1  0.4795950000000  0.3570460000000  0.5524990000000 1.0
C      1  0.4795960000000  0.3535100000000  0.4584450000000 1.0
C      1  0.4796840000000  0.4059120000000  0.3801950000000 1.0
C      1  0.4796480000000  0.4942520000000  0.3479070000000 1.0
C      1  0.4796210000000  0.5848290000000  0.3735310000000 1.0
C      1  0.4795950000000  0.6429540000000  0.4475010000000 1.0
C      1  0.4795960000000  0.6464900000000  0.5415550000000 1.0
C      1  0.4796840000000  0.5940880000000  0.6198050000000 1.0
C      1  0.4796490000000  0.5057490000000  0.6520880000000 1.0
C      1  0.4199540000000  0.2702460000000  0.5809860000000 1.0
C      1  0.4199710000000  0.2665540000000  0.4304840000000 1.0
C      1  0.4199260000000  0.3519750000000  0.3065580000000 1.0
C      1  0.4196470000000  0.4938900000000  0.2563420000000 1.0
C      1  0.4199070000000  0.6382690000000  0.2993980000000 1.0
C      1  0.4199540000000  0.7297540000000  0.4190140000000 1.0
C      1  0.4199710000000  0.7334460000000  0.5695160000000 1.0
C      1  0.4199260000000  0.6480250000000  0.6934420000000 1.0
C      1  0.4196460000000  0.5061100000000  0.7436580000000 1.0
C      1  0.4199080000000  0.3617310000000  0.7006010000000 1.0
C      1  0.3469190000000  0.5921990000000  0.3663010000000 1.0
C      1  0.3469100000000  0.6531980000000  0.4460450000000 1.0
C      1  0.3469240000000  0.6556250000000  0.5464250000000 1.0
C      1  0.3468460000000  0.5986120000000  0.6290540000000 1.0
C      1  0.3470320000000  0.5039580000000  0.6623570000000 1.0
C      1  0.3469180000000  0.4078010000000  0.6336990000000 1.0
C      1  0.3469090000000  0.3468020000000  0.5539550000000 1.0
C      1  0.3469240000000  0.3443750000000  0.4535750000000 1.0
C      1  0.3468460000000  0.4013880000000  0.3709460000000 1.0
C      1  0.3470350000000  0.4960420000000  0.3376430000000 1.0
C      1  0.5096030000000  0.2408160000000  0.3940070000000 1.0
C      1  0.5095410000000  0.3525950000000  0.2619770000000 1.0
C      1  0.5096060000000  0.5207120000000  0.2207300000000 1.0
C      1  0.5095550000000  0.6808630000000  0.2862330000000 1.0
C      1  0.5096150000000  0.7720180000000  0.4333960000000 1.0
C      1  0.5096030000000  0.7591840000000  0.6059930000000 1.0
C      1  0.5095410000000  0.6474050000000  0.7380230000000 1.0
C      1  0.5096070000000  0.4792870000000  0.7792740000000 1.0
C      1  0.5095550000000  0.3191380000000  0.7137660000000 1.0
C      1  0.5096150000000  0.2279810000000  0.5666040000000 1.0
C      1  0.5891230000000  0.7210310000000  0.6008800000000 1.0
C      1  0.5890970000000  0.6195690000000  0.7115140000000 1.0
C      1  0.5892320000000  0.4723870000000  0.7414060000000 1.0
C      1  0.5890690000000  0.3357650000000  0.6790450000000 1.0
C      1  0.5891380000000  0.2618820000000  0.5483410000000 1.0
C      1  0.5891230000000  0.2789690000000  0.3991200000000 1.0
C      1  0.5890970000000  0.3804310000000  0.2884860000000 1.0
C      1  0.5892320000000  0.5276130000000  0.2585940000000 1.0
C      1  0.5890700000000  0.6642350000000  0.3209550000000 1.0
C      1  0.5891380000000  0.7381180000000  0.4516590000000 1.0
C      1  0.6548630000000  0.4649670000000  0.3259910000000 1.0
C      1  0.6548680000000  0.5740050000000  0.3386790000000 1.0
C      1  0.6548130000000  0.6547020000000  0.4129330000000 1.0
C      1  0.6548370000000  0.6763410000000  0.5204850000000 1.0
C      1  0.6548560000000  0.6306160000000  0.6201970000000 1.0
C      1  0.6548630000000  0.5350330000000  0.6740090000000 1.0
C      1  0.6548690000000  0.4259950000000  0.6613210000000 1.0
C      1  0.6548130000000  0.3452980000000  0.5870670000000 1.0
C      1  0.6548370000000  0.3236590000000  0.4795150000000 1.0
C      1  0.6548560000000  0.3693840000000  0.3798030000000 1.0
END
