TITL C-3036479-9801-163 3.25386994346077e-05 3375 -343.746836403949 0 0 60 (Ci) n - 1
REM
REM in /home/bkarasulu/work/CARBON/AIRSS/Generating-Clusters/REBO/Higher-Symm/Only-C60
REM
REM
REM
REM
REM
REM ./C.cell (a2850807a9bf4ad07a5b6933b78d9264)
REM AIRSS Version 0.9.1 bugfix July 2018 build 013d7b7c2542+ Fri, 06 Jul 2018 19:26:36 +0100
REM compiler GCC version 9.2.1 20190827 (Red Hat 9.2.1-1)
REM options -cpp -mtune=generic -march=x86-64 -g -O0 -fpre-include=/usr/include/finclude/math-vector-fortran.h
REM seed -1585402286 -2053865653 552794383 1671498376 582155312 -1796084173 -767678924 -1711791119 -1533802347 -2020430924 -1813721362 -1846356346 -720832707 1615308097 -275379217 -1436892564 835214752 -1463542283 -530269298 -1485204557 -358097451 1049079497 -769356895 1969780918 1486515150 1716044247 -715531265 1366054906 407187260 -1217101330 1781711998 1054535603 2050667760
REM
CELL 1.54180   15.00000   15.00000   15.00000   90.00000   90.00000   90.00000
LATT -1
SFAC C  
C      1  0.6506970000000  0.6034650000000  0.6177060000000 1.0
C      1  0.4625650000000  0.3977470000000  0.6799350000000 1.0
C      1  0.3232110000000  0.6011000000000  0.5647430000000 1.0
C      1  0.3491510000000  0.3962840000000  0.3823110000000 1.0
C      1  0.5371620000000  0.6022400000000  0.3198040000000 1.0
C      1  0.6765880000000  0.3993930000000  0.4354280000000 1.0
C      1  0.4384100000000  0.5158340000000  0.4296560000000 1.0
C      1  0.5322380000000  0.4834070000000  0.4085380000000 1.0
C      1  0.5934510000000  0.5207090000000  0.4806720000000 1.0
C      1  0.5621180000000  0.4841740000000  0.5705010000000 1.0
C      1  0.4683440000000  0.5165190000000  0.5916300000000 1.0
C      1  0.4071400000000  0.4791680000000  0.5195070000000 1.0
C      1  0.8088080000000  0.5940770000000  0.3518070000000 1.0
C      1  0.7733770000000  0.4039510000000  0.6887880000000 1.0
C      1  0.4611340000000  0.6050580000000  0.8289070000000 1.0
C      1  0.1907810000000  0.4067110000000  0.6480570000000 1.0
C      1  0.2266780000000  0.5957010000000  0.3113600000000 1.0
C      1  0.5384720000000  0.3948860000000  0.1708800000000 1.0
C      1  0.3793210000000  0.3324230000000  0.4460270000000 1.0
C      1  0.4878290000000  0.6643400000000  0.3726850000000 1.0
C      1  0.6037830000000  0.3394910000000  0.4200140000000 1.0
C      1  0.6207450000000  0.6673080000000  0.5539080000000 1.0
C      1  0.5119980000000  0.3355660000000  0.6272260000000 1.0
C      1  0.3962000000000  0.6608820000000  0.5800540000000 1.0
C      1  0.2873980000000  0.5562240000000  0.3665760000000 1.0
C      1  0.5194730000000  0.4379740000000  0.2486160000000 1.0
C      1  0.7304670000000  0.5581320000000  0.3800550000000 1.0
C      1  0.7126210000000  0.4435490000000  0.6337270000000 1.0
C      1  0.4802730000000  0.5619560000000  0.7512200000000 1.0
C      1  0.2692820000000  0.4423880000000  0.6199870000000 1.0
C      1  0.7058590000000  0.5366210000000  0.5807380000000 1.0
C      1  0.5180730000000  0.4654330000000  0.7151360000000 1.0
C      1  0.3196410000000  0.5355990000000  0.6338680000000 1.0
C      1  0.2940110000000  0.4631290000000  0.4195020000000 1.0
C      1  0.4816710000000  0.5344450000000  0.2848040000000 1.0
C      1  0.6801780000000  0.4648130000000  0.3662770000000 1.0
C      1  0.4059220000000  0.5283270000000  0.6812310000000 1.0
C      1  0.2976610000000  0.4709430000000  0.5194000000000 1.0
C      1  0.3815170000000  0.5181590000000  0.3353770000000 1.0
C      1  0.5939860000000  0.4716640000000  0.3183210000000 1.0
C      1  0.7030850000000  0.5291720000000  0.4807110000000 1.0
C      1  0.6184820000000  0.4815870000000  0.6650320000000 1.0
C      1  0.4360100000000  0.6998460000000  0.4891250000000 1.0
C      1  0.4795570000000  0.2972980000000  0.4339200000000 1.0
C      1  0.5435850000000  0.7082820000000  0.4543160000000 1.0
C      1  0.5640900000000  0.3002610000000  0.5108290000000 1.0
C      1  0.5205950000000  0.7025810000000  0.5659360000000 1.0
C      1  0.4565440000000  0.2912840000000  0.5455220000000 1.0
C      1  0.4845400000000  0.6220110000000  0.6321510000000 1.0
C      1  0.3804050000000  0.3709830000000  0.5444320000000 1.0
C      1  0.4004680000000  0.6219640000000  0.4167180000000 1.0
C      1  0.5153920000000  0.3781150000000  0.3677360000000 1.0
C      1  0.6200900000000  0.6288380000000  0.4553950000000 1.0
C      1  0.5995220000000  0.3778710000000  0.5835520000000 1.0
C      1  0.3728410000000  0.4047440000000  0.6462560000000 1.0
C      1  0.3085900000000  0.5937350000000  0.4708030000000 1.0
C      1  0.4268290000000  0.4169570000000  0.3105840000000 1.0
C      1  0.6268530000000  0.5952880000000  0.3532870000000 1.0
C      1  0.6912670000000  0.4065430000000  0.5293500000000 1.0
C      1  0.5730210000000  0.5828500000000  0.6893680000000 1.0
END
