TITL C-3036482-790-35 -0.0157067570299541 3375 -354.085289836441 0 0 60 (C1) n - 1
REM
REM in /home/bkarasulu/work/CARBON/AIRSS/Generating-Clusters/REBO/Higher-Symm/Only-C60
REM
REM
REM
REM
REM
REM ./C.cell (a2850807a9bf4ad07a5b6933b78d9264)
REM AIRSS Version 0.9.1 bugfix July 2018 build 013d7b7c2542+ Fri, 06 Jul 2018 19:26:36 +0100
REM compiler GCC version 9.2.1 20190827 (Red Hat 9.2.1-1)
REM options -cpp -mtune=generic -march=x86-64 -g -O0 -fpre-include=/usr/include/finclude/math-vector-fortran.h
REM seed -48335190 -1280403753 -331720681 2123712851 -2115656551 124328710 -853922438 370928827 -1885008808 1382623097 -1275743946 -442132433 1170721074 -1298279261 -1494533972 1295216227 1498402317 -409700072 -393454159 -1065726340 -267210370 -1315572766 840441602 1831475004 1138551246 -491317617 784406250 1000224396 681089493 -67712661 1789162735 2032906728 1740563674
REM
CELL 1.54180   15.00000   15.00000   15.00000   90.00000   90.00000   90.00000
LATT -1
SFAC C  
C      1  0.4416580000000  0.5251410000000  0.6439960000000 1.0
C      1  0.5534980000000  0.5469840000000  0.6478330000000 1.0
C      1  0.5165670000000  0.4396630000000  0.6377180000000 1.0
C      1  0.4288580000000  0.5231550000000  0.3552680000000 1.0
C      1  0.5421360000000  0.5323330000000  0.3599910000000 1.0
C      1  0.4919980000000  0.4313310000000  0.3438680000000 1.0
C      1  0.4366960000000  0.4850570000000  0.7850120000000 1.0
C      1  0.5150480000000  0.5666710000000  0.7860240000000 1.0
C      1  0.5450550000000  0.4573680000000  0.7856100000000 1.0
C      1  0.4518070000000  0.4793240000000  0.2243010000000 1.0
C      1  0.5248660000000  0.5626710000000  0.2185640000000 1.0
C      1  0.5594440000000  0.4564140000000  0.2090500000000 1.0
C      1  0.4028290000000  0.6788570000000  0.3999520000000 1.0
C      1  0.6977070000000  0.4908550000000  0.4049240000000 1.0
C      1  0.3798560000000  0.3089240000000  0.3973390000000 1.0
C      1  0.4115060000000  0.6842100000000  0.5978230000000 1.0
C      1  0.7047460000000  0.4889790000000  0.6019550000000 1.0
C      1  0.3929120000000  0.3360120000000  0.5948010000000 1.0
C      1  0.5109310000000  0.6421660000000  0.2711350000000 1.0
C      1  0.6323870000000  0.4232510000000  0.2647670000000 1.0
C      1  0.3819840000000  0.4331310000000  0.2689700000000 1.0
C      1  0.5093440000000  0.6504300000000  0.7342980000000 1.0
C      1  0.6186290000000  0.4189390000000  0.7335820000000 1.0
C      1  0.3732040000000  0.4356850000000  0.7305930000000 1.0
C      1  0.5266190000000  0.7196510000000  0.3392980000000 1.0
C      1  0.6959230000000  0.3735660000000  0.3334620000000 1.0
C      1  0.3065670000000  0.4169410000000  0.3406830000000 1.0
C      1  0.5195720000000  0.7344130000000  0.6634140000000 1.0
C      1  0.6768090000000  0.3646040000000  0.6611740000000 1.0
C      1  0.2949410000000  0.3994170000000  0.6648890000000 1.0
C      1  0.6422230000000  0.4922260000000  0.6720890000000 1.0
C      1  0.4272460000000  0.3887370000000  0.6637590000000 1.0
C      1  0.4399010000000  0.6286230000000  0.6678720000000 1.0
C      1  0.6366400000000  0.4924970000000  0.3344430000000 1.0
C      1  0.4183760000000  0.3487810000000  0.3188150000000 1.0
C      1  0.4336620000000  0.6250390000000  0.3294370000000 1.0
C      1  0.6149160000000  0.3428070000000  0.4330630000000 1.0
C      1  0.3053720000000  0.4671200000000  0.4638940000000 1.0
C      1  0.5630930000000  0.6799060000000  0.4627000000000 1.0
C      1  0.6224750000000  0.3513090000000  0.5303810000000 1.0
C      1  0.2975280000000  0.4798070000000  0.5600260000000 1.0
C      1  0.5846410000000  0.6891760000000  0.5574880000000 1.0
C      1  0.3514440000000  0.6296870000000  0.5496150000000 1.0
C      1  0.6864650000000  0.5673390000000  0.5522000000000 1.0
C      1  0.4663540000000  0.3142710000000  0.5406280000000 1.0
C      1  0.3492040000000  0.6238050000000  0.4554640000000 1.0
C      1  0.6745420000000  0.5637780000000  0.4589290000000 1.0
C      1  0.4614980000000  0.3029010000000  0.4475330000000 1.0
C      1  0.3009130000000  0.3626660000000  0.4408550000000 1.0
C      1  0.4778200000000  0.7397200000000  0.4402630000000 1.0
C      1  0.7141270000000  0.3942340000000  0.4443180000000 1.0
C      1  0.3014280000000  0.3696260000000  0.5544860000000 1.0
C      1  0.4876530000000  0.7415920000000  0.5535570000000 1.0
C      1  0.7156810000000  0.3944200000000  0.5581160000000 1.0
C      1  0.5434940000000  0.3603330000000  0.5751400000000 1.0
C      1  0.3495880000000  0.5451050000000  0.5956620000000 1.0
C      1  0.6168170000000  0.6146260000000  0.5981820000000 1.0
C      1  0.5308270000000  0.3473450000000  0.3981720000000 1.0
C      1  0.3491670000000  0.5339330000000  0.4193050000000 1.0
C      1  0.5928080000000  0.6024490000000  0.4233140000000 1.0
END
