TITL C-3036486-2224-372 1.43185490055732e-05 3375 -348.255337933745 0 0 60 (C1) n - 1
REM
REM in /home/bkarasulu/work/CARBON/AIRSS/Generating-Clusters/REBO/Higher-Symm/Only-C60
REM
REM
REM
REM
REM
REM ./C.cell (a2850807a9bf4ad07a5b6933b78d9264)
REM AIRSS Version 0.9.1 bugfix July 2018 build 013d7b7c2542+ Fri, 06 Jul 2018 19:26:36 +0100
REM compiler GCC version 9.2.1 20190827 (Red Hat 9.2.1-1)
REM options -cpp -mtune=generic -march=x86-64 -g -O0 -fpre-include=/usr/include/finclude/math-vector-fortran.h
REM seed -1027421999 1933751757 100918927 471102513 667171685 1617154004 -347725540 1413014105 967494072 -1534856188 -788644927 584872710 -963092166 -304131729 -1572331975 682228568 -1220496995 -1017108301 -1710437477 -1198093179 -1967155836 519127484 -765747639 1623655280 -803296580 854364191 -473538363 -1619757095 -1386732602 197313074 -594772194 209460700 532842533
REM
CELL 1.54180   15.00000   15.00000   15.00000   90.00000   90.00000   90.00000
LATT -1
SFAC C  
C      1  0.5988270000000  0.5847950000000  0.6642540000000 1.0
C      1  0.3718980000000  0.5612450000000  0.4854570000000 1.0
C      1  0.7611990000000  0.5137670000000  0.4443280000000 1.0
C      1  0.3814180000000  0.3316270000000  0.6394190000000 1.0
C      1  0.4241910000000  0.5781570000000  0.3178910000000 1.0
C      1  0.4359600000000  0.4871350000000  0.3154050000000 1.0
C      1  0.6063240000000  0.6064730000000  0.3713320000000 1.0
C      1  0.2851040000000  0.6277020000000  0.4686700000000 1.0
C      1  0.5461440000000  0.4359960000000  0.4685880000000 1.0
C      1  0.4747580000000  0.5179060000000  0.5545450000000 1.0
C      1  0.7282750000000  0.4792960000000  0.6050630000000 1.0
C      1  0.3963850000000  0.4353130000000  0.3819030000000 1.0
C      1  0.5565830000000  0.3558250000000  0.2893280000000 1.0
C      1  0.4418990000000  0.3004950000000  0.4364190000000 1.0
C      1  0.3420750000000  0.3467840000000  0.4646290000000 1.0
C      1  0.5648760000000  0.4449390000000  0.6945670000000 1.0
C      1  0.5074190000000  0.6981300000000  0.6115860000000 1.0
C      1  0.2406640000000  0.4753000000000  0.4101860000000 1.0
C      1  0.6104560000000  0.3151700000000  0.3747220000000 1.0
C      1  0.4499640000000  0.6802650000000  0.3974150000000 1.0
C      1  0.5128240000000  0.3654990000000  0.5442090000000 1.0
C      1  0.6169080000000  0.4307390000000  0.2291800000000 1.0
C      1  0.5204810000000  0.4604400000000  0.2796630000000 1.0
C      1  0.6840170000000  0.5239760000000  0.3685920000000 1.0
C      1  0.5102140000000  0.3628220000000  0.3931350000000 1.0
C      1  0.4659590000000  0.4659530000000  0.7227550000000 1.0
C      1  0.3019880000000  0.4016650000000  0.3769560000000 1.0
C      1  0.6942330000000  0.6280830000000  0.5306100000000 1.0
C      1  0.3324040000000  0.6154180000000  0.6716800000000 1.0
C      1  0.5204240000000  0.4533570000000  0.6024680000000 1.0
C      1  0.4126930000000  0.4584130000000  0.4813400000000 1.0
C      1  0.6107570000000  0.5257440000000  0.2908360000000 1.0
C      1  0.3343370000000  0.6965140000000  0.6037040000000 1.0
C      1  0.3539580000000  0.4861170000000  0.6556080000000 1.0
C      1  0.5738040000000  0.2817080000000  0.5391470000000 1.0
C      1  0.3495450000000  0.6311010000000  0.3752600000000 1.0
C      1  0.7470830000000  0.5505030000000  0.5276330000000 1.0
C      1  0.2574140000000  0.5645390000000  0.3853280000000 1.0
C      1  0.2791710000000  0.6022210000000  0.5714210000000 1.0
C      1  0.6641720000000  0.3145710000000  0.5252670000000 1.0
C      1  0.4887240000000  0.2441400000000  0.4949610000000 1.0
C      1  0.3005250000000  0.4974610000000  0.5781860000000 1.0
C      1  0.2832870000000  0.4379140000000  0.5030670000000 1.0
C      1  0.5964070000000  0.5023600000000  0.5029980000000 1.0
C      1  0.4273890000000  0.5656970000000  0.6913770000000 1.0
C      1  0.4452900000000  0.6128600000000  0.5304970000000 1.0
C      1  0.5097000000000  0.6216310000000  0.6706000000000 1.0
C      1  0.7157310000000  0.4245720000000  0.4137990000000 1.0
C      1  0.5921630000000  0.7051050000000  0.5655710000000 1.0
C      1  0.4206000000000  0.7051320000000  0.5637980000000 1.0
C      1  0.6638380000000  0.6555120000000  0.6231530000000 1.0
C      1  0.5096790000000  0.6290070000000  0.3303840000000 1.0
C      1  0.4091550000000  0.3647610000000  0.5474810000000 1.0
C      1  0.6313030000000  0.5257310000000  0.5883650000000 1.0
C      1  0.5080390000000  0.7093540000000  0.4632740000000 1.0
C      1  0.6549150000000  0.4258080000000  0.6738300000000 1.0
C      1  0.3866360000000  0.4021180000000  0.7012230000000 1.0
C      1  0.6996180000000  0.3703400000000  0.5926480000000 1.0
C      1  0.6786720000000  0.3418360000000  0.4329660000000 1.0
C      1  0.6115260000000  0.6629580000000  0.4613230000000 1.0
END
