TITL C-3036482-790-468 0.000764539950840643 3375 -347.800190883954 0 0 60 (C1) n - 1
REM
REM in /home/bkarasulu/work/CARBON/AIRSS/Generating-Clusters/REBO/Higher-Symm/Only-C60
REM
REM
REM
REM
REM
REM ./C.cell (a2850807a9bf4ad07a5b6933b78d9264)
REM AIRSS Version 0.9.1 bugfix July 2018 build 013d7b7c2542+ Fri, 06 Jul 2018 19:26:36 +0100
REM compiler GCC version 9.2.1 20190827 (Red Hat 9.2.1-1)
REM options -cpp -mtune=generic -march=x86-64 -g -O0 -fpre-include=/usr/include/finclude/math-vector-fortran.h
REM seed -987740723 -544986565 -663957089 2132363154 1539909513 1612710816 -1180435611 1606422423 -1950552939 -1567272052 1099509246 935251269 -504063107 1928365715 -434714754 59765578 409669244 -120739496 -1334604750 395556842 -1715376186 1506934848 544395445 -261915153 -1357037098 -828235339 -1327226336 2116732990 -460397995 -1750580271 -1537452155 65080502 -566151692
REM
CELL 1.54180   15.00000   15.00000   15.00000   90.00000   90.00000   90.00000
LATT -1
SFAC C  
C      1  0.7164650000000  0.5880170000000  0.6968430000000 1.0
C      1  0.6304030000000  0.7085640000000  0.6373250000000 1.0
C      1  0.6436100000000  0.6064890000000  0.7478620000000 1.0
C      1  0.1441950000000  0.5085040000000  0.6993500000000 1.0
C      1  0.3160680000000  0.5559110000000  0.3721720000000 1.0
C      1  0.7326250000000  0.4338320000000  0.3542180000000 1.0
C      1  0.3359030000000  0.2972050000000  0.5657860000000 1.0
C      1  0.3986090000000  0.6859070000000  0.3470700000000 1.0
C      1  0.6514470000000  0.3132780000000  0.3818950000000 1.0
C      1  0.4239510000000  0.3175530000000  0.7129690000000 1.0
C      1  0.3734670000000  0.6010680000000  0.3141140000000 1.0
C      1  0.6780110000000  0.4051900000000  0.2891070000000 1.0
C      1  0.6968920000000  0.6265100000000  0.3853870000000 1.0
C      1  0.6530980000000  0.7059290000000  0.3973760000000 1.0
C      1  0.5636850000000  0.6447270000000  0.1815750000000 1.0
C      1  0.2520940000000  0.3879610000000  0.4140760000000 1.0
C      1  0.3041870000000  0.6184550000000  0.6918470000000 1.0
C      1  0.7439330000000  0.3953830000000  0.6690990000000 1.0
C      1  0.3246020000000  0.3393920000000  0.3895250000000 1.0
C      1  0.3532400000000  0.7361750000000  0.5898140000000 1.0
C      1  0.6521690000000  0.3408500000000  0.5658260000000 1.0
C      1  0.4708430000000  0.2836160000000  0.2247140000000 1.0
C      1  0.3910030000000  0.6294410000000  0.7143950000000 1.0
C      1  0.6676090000000  0.3689150000000  0.7100490000000 1.0
C      1  0.4715120000000  0.5868670000000  0.6653810000000 1.0
C      1  0.7619440000000  0.4588720000000  0.6020710000000 1.0
C      1  0.5953840000000  0.7144870000000  0.4690320000000 1.0
C      1  0.5787350000000  0.3905190000000  0.7095190000000 1.0
C      1  0.5183000000000  0.5742130000000  0.2104390000000 1.0
C      1  0.4939730000000  0.3553620000000  0.2810250000000 1.0
C      1  0.2669800000000  0.5758710000000  0.6165460000000 1.0
C      1  0.2328090000000  0.4604990000000  0.4704610000000 1.0
C      1  0.7031710000000  0.5602730000000  0.4524480000000 1.0
C      1  0.4102030000000  0.3241020000000  0.4254670000000 1.0
C      1  0.3856510000000  0.6626970000000  0.5382790000000 1.0
C      1  0.5735010000000  0.3333750000000  0.5210350000000 1.0
C      1  0.4271250000000  0.5499420000000  0.2563340000000 1.0
C      1  0.7456420000000  0.4759450000000  0.4365120000000 1.0
C      1  0.6010920000000  0.6560960000000  0.5636540000000 1.0
C      1  0.5932370000000  0.4004870000000  0.2556790000000 1.0
C      1  0.5591380000000  0.5746720000000  0.7309870000000 1.0
C      1  0.4811280000000  0.3703920000000  0.6600810000000 1.0
C      1  0.2878960000000  0.5379960000000  0.4590800000000 1.0
C      1  0.1942430000000  0.5151770000000  0.6241380000000 1.0
C      1  0.7228280000000  0.5458260000000  0.6131270000000 1.0
C      1  0.4125000000000  0.3151250000000  0.5202290000000 1.0
C      1  0.4174890000000  0.6981110000000  0.4366220000000 1.0
C      1  0.5729750000000  0.3247640000000  0.4262130000000 1.0
C      1  0.5308370000000  0.4723490000000  0.2294700000000 1.0
C      1  0.3139570000000  0.5882630000000  0.5346830000000 1.0
C      1  0.4916220000000  0.3359190000000  0.5656980000000 1.0
C      1  0.4499270000000  0.4775050000000  0.6547380000000 1.0
C      1  0.5360110000000  0.4800950000000  0.7115560000000 1.0
C      1  0.7823040000000  0.4350430000000  0.5131060000000 1.0
C      1  0.6733280000000  0.5823190000000  0.5406120000000 1.0
C      1  0.1809600000000  0.4599950000000  0.5487730000000 1.0
C      1  0.4896940000000  0.6336590000000  0.5764360000000 1.0
C      1  0.4914180000000  0.3317910000000  0.3798840000000 1.0
C      1  0.4323290000000  0.4463980000000  0.2632650000000 1.0
C      1  0.5020460000000  0.6961180000000  0.4850250000000 1.0
END
