TITL C-3036479-9801-23 -0.0181430837676284 3375 -353.902749836739 0 0 60 (C1) n - 1
REM
REM in /home/bkarasulu/work/CARBON/AIRSS/Generating-Clusters/REBO/Higher-Symm/Only-C60
REM
REM
REM
REM
REM
REM ./C.cell (a2850807a9bf4ad07a5b6933b78d9264)
REM AIRSS Version 0.9.1 bugfix July 2018 build 013d7b7c2542+ Fri, 06 Jul 2018 19:26:36 +0100
REM compiler GCC version 9.2.1 20190827 (Red Hat 9.2.1-1)
REM options -cpp -mtune=generic -march=x86-64 -g -O0 -fpre-include=/usr/include/finclude/math-vector-fortran.h
REM seed -1374459534 -5419027 1496118685 482551859 -1262070549 -325635987 1979252861 494384235 367543742 -1133497010 45745670 1949666608 588630595 555238939 74894709 -1357646767 1086434323 724114642 828481807 1662118184 335113983 -282461062 -653836162 -2101737278 -990479327 -1814886327 -1379632737 245701833 -1551168529 -1605931913 -305335126 -1757591541 -361223127
REM
CELL 1.54180   15.00000   15.00000   15.00000   90.00000   90.00000   90.00000
LATT -1
SFAC C  
C      1  0.2864010000000  0.6301260000000  0.5419380000000 1.0
C      1  0.2838600000000  0.6335440000000  0.4591860000000 1.0
C      1  0.5453470000000  0.4588870000000  0.4402910000000 1.0
C      1  0.5284790000000  0.4467310000000  0.5517390000000 1.0
C      1  0.3642030000000  0.5390820000000  0.3191970000000 1.0
C      1  0.3655080000000  0.5397020000000  0.6840200000000 1.0
C      1  0.4175110000000  0.5240330000000  0.2442260000000 1.0
C      1  0.4190390000000  0.5258460000000  0.7586930000000 1.0
C      1  0.4310820000000  0.3741540000000  0.6855950000000 1.0
C      1  0.4362320000000  0.3762300000000  0.3229810000000 1.0
C      1  0.6003250000000  0.4861490000000  0.3468070000000 1.0
C      1  0.5854310000000  0.4805840000000  0.6436050000000 1.0
C      1  0.5793640000000  0.7249900000000  0.5480160000000 1.0
C      1  0.5816850000000  0.7306190000000  0.4511740000000 1.0
C      1  0.3749740000000  0.4523070000000  0.3795300000000 1.0
C      1  0.3704180000000  0.4506880000000  0.6269190000000 1.0
C      1  0.3428780000000  0.6230030000000  0.6280840000000 1.0
C      1  0.3404630000000  0.6243070000000  0.3733050000000 1.0
C      1  0.5049320000000  0.6340680000000  0.3297390000000 1.0
C      1  0.5004500000000  0.6322380000000  0.6702380000000 1.0
C      1  0.4127720000000  0.6958480000000  0.6364950000000 1.0
C      1  0.4150460000000  0.6950990000000  0.3644640000000 1.0
C      1  0.4096740000000  0.7644170000000  0.4543080000000 1.0
C      1  0.4093330000000  0.7641130000000  0.5458150000000 1.0
C      1  0.6227630000000  0.6530040000000  0.4178830000000 1.0
C      1  0.6170660000000  0.6436130000000  0.5768210000000 1.0
C      1  0.6745370000000  0.5633900000000  0.3787410000000 1.0
C      1  0.6630630000000  0.5522510000000  0.6134170000000 1.0
C      1  0.4630640000000  0.5835960000000  0.5870700000000 1.0
C      1  0.4586500000000  0.5772430000000  0.4050270000000 1.0
C      1  0.5835510000000  0.3242170000000  0.3801210000000 1.0
C      1  0.5816280000000  0.3251190000000  0.6198160000000 1.0
C      1  0.3794610000000  0.5351850000000  0.5516640000000 1.0
C      1  0.3756150000000  0.5372650000000  0.4519170000000 1.0
C      1  0.6459590000000  0.3480100000000  0.4493220000000 1.0
C      1  0.6454930000000  0.3476730000000  0.5497770000000 1.0
C      1  0.5336190000000  0.1881210000000  0.4549760000000 1.0
C      1  0.5321020000000  0.1890200000000  0.5456320000000 1.0
C      1  0.3906400000000  0.3134960000000  0.4600880000000 1.0
C      1  0.3737490000000  0.2952300000000  0.5541850000000 1.0
C      1  0.5464610000000  0.4030070000000  0.3171650000000 1.0
C      1  0.5418360000000  0.3990180000000  0.6876240000000 1.0
C      1  0.5019020000000  0.7520850000000  0.5936510000000 1.0
C      1  0.5024540000000  0.7552500000000  0.4064400000000 1.0
C      1  0.7141250000000  0.4095160000000  0.4182820000000 1.0
C      1  0.7168750000000  0.4070690000000  0.5785740000000 1.0
C      1  0.4694910000000  0.4481460000000  0.2464640000000 1.0
C      1  0.4681260000000  0.4480240000000  0.7590960000000 1.0
C      1  0.4331290000000  0.2905570000000  0.3757230000000 1.0
C      1  0.4307560000000  0.2860110000000  0.6337880000000 1.0
C      1  0.7164390000000  0.4983380000000  0.5466130000000 1.0
C      1  0.7166780000000  0.5000730000000  0.4510130000000 1.0
C      1  0.5811190000000  0.5827550000000  0.6879380000000 1.0
C      1  0.5874140000000  0.5900910000000  0.3084260000000 1.0
C      1  0.5524250000000  0.5572880000000  0.5404980000000 1.0
C      1  0.5569820000000  0.5707040000000  0.4396120000000 1.0
C      1  0.4494970000000  0.4125830000000  0.4501310000000 1.0
C      1  0.4288990000000  0.3973920000000  0.5552910000000 1.0
C      1  0.5203950000000  0.2542080000000  0.3894250000000 1.0
C      1  0.5186280000000  0.2546820000000  0.6114240000000 1.0
END
