TITL C-3036479-9801-648 0.00142104412104794 3375 -350.490745029305 0 0 60 (C5) n - 1
REM
REM in /home/bkarasulu/work/CARBON/AIRSS/Generating-Clusters/REBO/Higher-Symm/Only-C60
REM
REM
REM
REM
REM
REM ./C.cell (a2850807a9bf4ad07a5b6933b78d9264)
REM AIRSS Version 0.9.1 bugfix July 2018 build 013d7b7c2542+ Fri, 06 Jul 2018 19:26:36 +0100
REM compiler GCC version 9.2.1 20190827 (Red Hat 9.2.1-1)
REM options -cpp -mtune=generic -march=x86-64 -g -O0 -fpre-include=/usr/include/finclude/math-vector-fortran.h
REM seed -270739111 -140050246 -309428521 -906835265 -1417421650 1981769437 -390272436 -1651577527 -983989551 -681155129 845832703 149589974 635963860 -886727270 -2068171116 -1891704519 -1979506530 -1844054878 -220313726 1004786736 1011831341 -1277822460 -133131269 -940394699 -225576713 224779246 127151748 732956503 1233945934 376507081 -792357021 1276067553 348192417
REM
CELL 1.54180   15.00000   15.00000   15.00000   90.00000   90.00000   90.00000
LATT -1
SFAC C  
C      1  0.3306020000000  0.4589210000000  0.3526560000000 1.0
C      1  0.3305930000000  0.6274430000000  0.4154010000000 1.0
C      1  0.3306030000000  0.6198360000000  0.5950550000000 1.0
C      1  0.3306030000000  0.4466300000000  0.6433510000000 1.0
C      1  0.3305990000000  0.3471750000000  0.4935410000000 1.0
C      1  0.6955490000000  0.6080260000000  0.3845220000000 1.0
C      1  0.6955060000000  0.6431640000000  0.5670380000000 1.0
C      1  0.6955340000000  0.4804860000000  0.6568880000000 1.0
C      1  0.6955430000000  0.3447450000000  0.5299170000000 1.0
C      1  0.6955330000000  0.4235830000000  0.3616040000000 1.0
C      1  0.5849150000000  0.5870660000000  0.5182530000000 1.0
C      1  0.5849080000000  0.5095610000000  0.5884330000000 1.0
C      1  0.5849090000000  0.4188480000000  0.5364250000000 1.0
C      1  0.5848960000000  0.4402830000000  0.4340830000000 1.0
C      1  0.5849160000000  0.5442540000000  0.4228370000000 1.0
C      1  0.6960240000000  0.5836510000000  0.6334160000000 1.0
C      1  0.6960480000000  0.3989670000000  0.6207770000000 1.0
C      1  0.6960480000000  0.3538950000000  0.4412330000000 1.0
C      1  0.6960580000000  0.5107560000000  0.3428960000000 1.0
C      1  0.6960510000000  0.6527360000000  0.4616670000000 1.0
C      1  0.3049720000000  0.5666150000000  0.3375440000000 1.0
C      1  0.3049690000000  0.6750870000000  0.5131500000000 1.0
C      1  0.3049680000000  0.5415950000000  0.6705810000000 1.0
C      1  0.3049700000000  0.3506190000000  0.5922770000000 1.0
C      1  0.3049710000000  0.3660850000000  0.3864490000000 1.0
C      1  0.5337110000000  0.2936780000000  0.6589880000000 1.0
C      1  0.5337090000000  0.2850300000000  0.3529000000000 1.0
C      1  0.5337230000000  0.5734690000000  0.2501170000000 1.0
C      1  0.5337150000000  0.7603580000000  0.4926580000000 1.0
C      1  0.5337060000000  0.5874560000000  0.7453520000000 1.0
C      1  0.6094320000000  0.3287090000000  0.6019780000000 1.0
C      1  0.6094250000000  0.3500760000000  0.3686080000000 1.0
C      1  0.6094350000000  0.5786390000000  0.3168300000000 1.0
C      1  0.6094220000000  0.6985020000000  0.5181670000000 1.0
C      1  0.6094330000000  0.5440530000000  0.6944190000000 1.0
C      1  0.4660620000000  0.2637660000000  0.4167010000000 1.0
C      1  0.4660640000000  0.5062250000000  0.2495900000000 1.0
C      1  0.4660730000000  0.7400750000000  0.4285510000000 1.0
C      1  0.4660600000000  0.6421580000000  0.7062460000000 1.0
C      1  0.4660640000000  0.3477790000000  0.6989320000000 1.0
C      1  0.4117930000000  0.4138240000000  0.5216760000000 1.0
C      1  0.4117930000000  0.4527510000000  0.4247370000000 1.0
C      1  0.4117780000000  0.5569750000000  0.4318080000000 1.0
C      1  0.4117840000000  0.5824580000000  0.5331180000000 1.0
C      1  0.4117970000000  0.4939860000000  0.5886570000000 1.0
C      1  0.4968370000000  0.6781270000000  0.3625000000000 1.0
C      1  0.4968420000000  0.6858230000000  0.6269110000000 1.0
C      1  0.4968480000000  0.4367190000000  0.7159460000000 1.0
C      1  0.4968450000000  0.2750720000000  0.5065420000000 1.0
C      1  0.4968480000000  0.4242680000000  0.2880970000000 1.0
C      1  0.3745110000000  0.6189570000000  0.6991850000000 1.0
C      1  0.3745140000000  0.3473220000000  0.6746850000000 1.0
C      1  0.3745020000000  0.2866900000000  0.4087730000000 1.0
C      1  0.3745170000000  0.5208470000000  0.2689300000000 1.0
C      1  0.3745050000000  0.7262000000000  0.4484270000000 1.0
C      1  0.4956000000000  0.4951950000000  0.6460280000000 1.0
C      1  0.4956010000000  0.3596310000000  0.5405540000000 1.0
C      1  0.4955900000000  0.4180520000000  0.3790320000000 1.0
C      1  0.4955840000000  0.5897190000000  0.3846760000000 1.0
C      1  0.4955890000000  0.6373900000000  0.5496890000000 1.0
END
