TITL C-3036485-3770-1050 4.53718335242831e-06 3375 -318.002144102114 0 0 60 (C1) n - 1
REM
REM in /home/bkarasulu/work/CARBON/AIRSS/Generating-Clusters/REBO/Higher-Symm/Only-C60
REM
REM
REM
REM
REM
REM ./C.cell (a2850807a9bf4ad07a5b6933b78d9264)
REM AIRSS Version 0.9.1 bugfix July 2018 build 013d7b7c2542+ Fri, 06 Jul 2018 19:26:36 +0100
REM compiler GCC version 9.2.1 20190827 (Red Hat 9.2.1-1)
REM options -cpp -mtune=generic -march=x86-64 -g -O0 -fpre-include=/usr/include/finclude/math-vector-fortran.h
REM seed 1894197904 -2048688809 -2032319045 -486193382 -1909872019 -969771537 1843584271 -468104113 -266264752 -1930757075 2041918901 -868757379 1639095993 -1984452835 -1335358111 45938430 -842468148 456085033 1637272542 -1111876894 -1812681178 -2141602599 351462791 1243789856 -1902436658 -1640667329 296719038 -1759909522 1128750625 1553343181 -523435612 -1607937951 710192604
REM
CELL 1.54180   15.00000   15.00000   15.00000   90.00000   90.00000   90.00000
LATT -1
SFAC C  
C      1  0.3343070000000  0.3841140000000  0.5954950000000 1.0
C      1  0.6827070000000  0.4106170000000  0.5880050000000 1.0
C      1  0.4952360000000  0.7052390000000  0.5939490000000 1.0
C      1  0.3284520000000  0.2778460000000  0.4211950000000 1.0
C      1  0.6596880000000  0.4942150000000  0.4095740000000 1.0
C      1  0.4434790000000  0.6906870000000  0.3909360000000 1.0
C      1  0.4107230000000  0.5914600000000  0.4984850000000 1.0
C      1  0.4806520000000  0.3673080000000  0.5037450000000 1.0
C      1  0.5987090000000  0.5257360000000  0.5417470000000 1.0
C      1  0.4812300000000  0.3644690000000  0.3038640000000 1.0
C      1  0.6462570000000  0.5766220000000  0.2821540000000 1.0
C      1  0.3919290000000  0.5964310000000  0.2863120000000 1.0
C      1  0.3981720000000  0.3895040000000  0.4402850000000 1.0
C      1  0.5514410000000  0.4694920000000  0.4820030000000 1.0
C      1  0.5139960000000  0.6188480000000  0.4759080000000 1.0
C      1  0.5739260000000  0.6565990000000  0.6608440000000 1.0
C      1  0.3379100000000  0.4827330000000  0.6520340000000 1.0
C      1  0.6037400000000  0.3620620000000  0.6543530000000 1.0
C      1  0.5735160000000  0.7071720000000  0.5106480000000 1.0
C      1  0.3135940000000  0.4359150000000  0.4963570000000 1.0
C      1  0.6535020000000  0.3407150000000  0.5025700000000 1.0
C      1  0.4760130000000  0.7885560000000  0.6432690000000 1.0
C      1  0.2606340000000  0.3407050000000  0.6469230000000 1.0
C      1  0.7682810000000  0.3800770000000  0.6273210000000 1.0
C      1  0.3303040000000  0.3500770000000  0.3529230000000 1.0
C      1  0.5519040000000  0.5107170000000  0.3817480000000 1.0
C      1  0.4919350000000  0.5896720000000  0.3733640000000 1.0
C      1  0.5032250000000  0.4401920000000  0.7765660000000 1.0
C      1  0.5497280000000  0.5359790000000  0.7903320000000 1.0
C      1  0.4441340000000  0.5294220000000  0.7769040000000 1.0
C      1  0.3553130000000  0.2962140000000  0.5250090000000 1.0
C      1  0.7148070000000  0.4759820000000  0.5005490000000 1.0
C      1  0.4337190000000  0.7225800000000  0.4980500000000 1.0
C      1  0.5753160000000  0.3949190000000  0.3215160000000 1.0
C      1  0.5774610000000  0.6559620000000  0.2966690000000 1.0
C      1  0.3762040000000  0.4994010000000  0.2945700000000 1.0
C      1  0.6790270000000  0.6205640000000  0.3727740000000 1.0
C      1  0.3608290000000  0.5864310000000  0.3948450000000 1.0
C      1  0.5024310000000  0.3164570000000  0.4007480000000 1.0
C      1  0.3461890000000  0.6900910000000  0.4390010000000 1.0
C      1  0.4283410000000  0.2570580000000  0.4518000000000 1.0
C      1  0.7335230000000  0.5667790000000  0.4398400000000 1.0
C      1  0.6491610000000  0.5067040000000  0.6405870000000 1.0
C      1  0.4194350000000  0.6221310000000  0.6080250000000 1.0
C      1  0.4450900000000  0.3685160000000  0.6114840000000 1.0
C      1  0.5979910000000  0.5706750000000  0.7188220000000 1.0
C      1  0.4040820000000  0.5522400000000  0.6963010000000 1.0
C      1  0.5137710000000  0.3931830000000  0.6971660000000 1.0
C      1  0.3441700000000  0.4757260000000  0.3941960000000 1.0
C      1  0.5889310000000  0.3837320000000  0.4274090000000 1.0
C      1  0.5897560000000  0.6732670000000  0.4062880000000 1.0
C      1  0.3938730000000  0.3998860000000  0.2948890000000 1.0
C      1  0.6072200000000  0.4851560000000  0.2881780000000 1.0
C      1  0.4811380000000  0.6380320000000  0.2713940000000 1.0
C      1  0.5353090000000  0.3016790000000  0.6057070000000 1.0
C      1  0.6611380000000  0.6169320000000  0.6144830000000 1.0
C      1  0.3226410000000  0.5674690000000  0.5953080000000 1.0
C      1  0.5653940000000  0.2877550000000  0.5145260000000 1.0
C      1  0.6400630000000  0.6207710000000  0.5170170000000 1.0
C      1  0.3083550000000  0.5405280000000  0.5030310000000 1.0
END
