TITL C-3036479-9801-1073 -1.74162828959182e-06 3375 -329.262695934195 0 0 60 (Td) n - 1
REM
REM in /home/bkarasulu/work/CARBON/AIRSS/Generating-Clusters/REBO/Higher-Symm/Only-C60
REM
REM
REM
REM
REM
REM ./C.cell (a2850807a9bf4ad07a5b6933b78d9264)
REM AIRSS Version 0.9.1 bugfix July 2018 build 013d7b7c2542+ Fri, 06 Jul 2018 19:26:36 +0100
REM compiler GCC version 9.2.1 20190827 (Red Hat 9.2.1-1)
REM options -cpp -mtune=generic -march=x86-64 -g -O0 -fpre-include=/usr/include/finclude/math-vector-fortran.h
REM seed -555705283 2043526118 -752488451 -1371767771 -110901719 1389857171 2072649629 -476019399 966525476 -2004437006 -1012920406 867350995 -1558438761 304413017 -1920374933 -390444846 405841412 245288168 1957027622 -1932366301 -1752062204 -1023131570 1574310466 628815239 2146147735 -1689483782 173320506 -1032817551 -1094059098 483726818 1862070768 -2120799084 -608791768
REM
CELL 1.54180   15.00000   15.00000   15.00000   90.00000   90.00000   90.00000
LATT -1
SFAC C  
C      1  0.6454150000000  0.4253630000000  0.4972420000000 1.0
C      1  0.4253630000000  0.4972420000000  0.6454150000000 1.0
C      1  0.4972420000000  0.6454150000000  0.4253630000000 1.0
C      1  0.6454150000000  0.5746370000000  0.5027580000000 1.0
C      1  0.3545850000000  0.4253630000000  0.5027580000000 1.0
C      1  0.3545850000000  0.5746370000000  0.4972420000000 1.0
C      1  0.4253630000000  0.5027580000000  0.3545850000000 1.0
C      1  0.5746370000000  0.4972420000000  0.3545850000000 1.0
C      1  0.5746370000000  0.5027580000000  0.6454150000000 1.0
C      1  0.4972420000000  0.3545850000000  0.5746370000000 1.0
C      1  0.5027580000000  0.6454150000000  0.5746370000000 1.0
C      1  0.5027580000000  0.3545850000000  0.4253630000000 1.0
C      1  0.6454150000000  0.4972420000000  0.4253630000000 1.0
C      1  0.4253630000000  0.6454150000000  0.4972420000000 1.0
C      1  0.4972420000000  0.4253630000000  0.6454150000000 1.0
C      1  0.6454150000000  0.5027580000000  0.5746370000000 1.0
C      1  0.3545850000000  0.5027580000000  0.4253630000000 1.0
C      1  0.3545850000000  0.4972420000000  0.5746370000000 1.0
C      1  0.4253630000000  0.3545850000000  0.5027580000000 1.0
C      1  0.5746370000000  0.3545850000000  0.4972420000000 1.0
C      1  0.5746370000000  0.6454150000000  0.5027580000000 1.0
C      1  0.4972420000000  0.5746370000000  0.3545850000000 1.0
C      1  0.5027580000000  0.5746370000000  0.6454150000000 1.0
C      1  0.5027580000000  0.4253630000000  0.3545850000000 1.0
C      1  0.5564100000000  0.6368770000000  0.2828970000000 1.0
C      1  0.6368770000000  0.2828970000000  0.5564100000000 1.0
C      1  0.2828970000000  0.5564100000000  0.6368770000000 1.0
C      1  0.5564100000000  0.3631230000000  0.7171030000000 1.0
C      1  0.4435900000000  0.6368770000000  0.7171030000000 1.0
C      1  0.4435900000000  0.3631230000000  0.2828970000000 1.0
C      1  0.6368770000000  0.7171030000000  0.4435900000000 1.0
C      1  0.3631230000000  0.2828970000000  0.4435900000000 1.0
C      1  0.3631230000000  0.7171030000000  0.5564100000000 1.0
C      1  0.2828970000000  0.4435900000000  0.3631230000000 1.0
C      1  0.7171030000000  0.5564100000000  0.3631230000000 1.0
C      1  0.7171030000000  0.4435900000000  0.6368770000000 1.0
C      1  0.5564100000000  0.2828970000000  0.6368770000000 1.0
C      1  0.6368770000000  0.5564100000000  0.2828970000000 1.0
C      1  0.2828970000000  0.6368770000000  0.5564100000000 1.0
C      1  0.5564100000000  0.7171030000000  0.3631230000000 1.0
C      1  0.4435900000000  0.7171030000000  0.6368770000000 1.0
C      1  0.4435900000000  0.2828970000000  0.3631230000000 1.0
C      1  0.6368770000000  0.4435900000000  0.7171030000000 1.0
C      1  0.3631230000000  0.4435900000000  0.2828970000000 1.0
C      1  0.3631230000000  0.5564100000000  0.7171030000000 1.0
C      1  0.2828970000000  0.3631230000000  0.4435900000000 1.0
C      1  0.7171030000000  0.3631230000000  0.5564100000000 1.0
C      1  0.7171030000000  0.6368770000000  0.4435900000000 1.0
C      1  0.4652730000000  0.5347270000000  0.7665250000000 1.0
C      1  0.5347270000000  0.4652730000000  0.7665250000000 1.0
C      1  0.5347270000000  0.5347270000000  0.2334750000000 1.0
C      1  0.4652730000000  0.7665250000000  0.5347270000000 1.0
C      1  0.7665250000000  0.5347270000000  0.4652730000000 1.0
C      1  0.4652730000000  0.2334750000000  0.4652730000000 1.0
C      1  0.5347270000000  0.7665250000000  0.4652730000000 1.0
C      1  0.5347270000000  0.2334750000000  0.5347270000000 1.0
C      1  0.7665250000000  0.4652730000000  0.5347270000000 1.0
C      1  0.2334750000000  0.5347270000000  0.5347270000000 1.0
C      1  0.2334750000000  0.4652730000000  0.4652730000000 1.0
C      1  0.4652730000000  0.4652730000000  0.2334750000000 1.0
END
