TITL C-3036484-3770-142 0.000337781624519859 3375 -346.117027057642 0 0 60 (C1) n - 1
REM
REM in /home/bkarasulu/work/CARBON/AIRSS/Generating-Clusters/REBO/Higher-Symm/Only-C60
REM
REM
REM
REM
REM
REM ./C.cell (a2850807a9bf4ad07a5b6933b78d9264)
REM AIRSS Version 0.9.1 bugfix July 2018 build 013d7b7c2542+ Fri, 06 Jul 2018 19:26:36 +0100
REM compiler GCC version 9.2.1 20190827 (Red Hat 9.2.1-1)
REM options -cpp -mtune=generic -march=x86-64 -g -O0 -fpre-include=/usr/include/finclude/math-vector-fortran.h
REM seed 1564102980 -84715910 1100420000 1081280334 -776897917 1088903155 1533439728 -986892987 1153328559 563981481 127259229 -401298637 1408896645 -1426046330 -1668945662 940134546 -320889952 1774606279 -1165173248 2042170779 1786810561 -348022612 -298661902 1361543533 -972118491 1192201219 581609258 1243701151 972927526 -1915551228 -1012113851 -438172508 -976868308
REM
CELL 1.54180   15.00000   15.00000   15.00000   90.00000   90.00000   90.00000
LATT -1
SFAC C  
C      1  0.5158280000000  0.7162270000000  0.5408460000000 1.0
C      1  0.3895500000000  0.6348580000000  0.3558700000000 1.0
C      1  0.3114670000000  0.3974710000000  0.3732210000000 1.0
C      1  0.5223000000000  0.3656570000000  0.3355590000000 1.0
C      1  0.5390720000000  0.4495180000000  0.6416910000000 1.0
C      1  0.3667490000000  0.5688220000000  0.5217930000000 1.0
C      1  0.2851000000000  0.3310200000000  0.4467560000000 1.0
C      1  0.4283470000000  0.5789490000000  0.4389950000000 1.0
C      1  0.2965820000000  0.4842250000000  0.8277690000000 1.0
C      1  0.5364410000000  0.6262310000000  0.6793480000000 1.0
C      1  0.5967650000000  0.5880810000000  0.2963970000000 1.0
C      1  0.4679700000000  0.6948230000000  0.3885840000000 1.0
C      1  0.3719280000000  0.4682580000000  0.3077780000000 1.0
C      1  0.4671750000000  0.3788180000000  0.4546940000000 1.0
C      1  0.6474730000000  0.6616080000000  0.4462950000000 1.0
C      1  0.6470940000000  0.4374120000000  0.6631030000000 1.0
C      1  0.4661890000000  0.6836950000000  0.6291340000000 1.0
C      1  0.6249070000000  0.6441930000000  0.6465900000000 1.0
C      1  0.5465190000000  0.5392880000000  0.4135570000000 1.0
C      1  0.4634400000000  0.2381770000000  0.5539480000000 1.0
C      1  0.7445030000000  0.5370530000000  0.5366960000000 1.0
C      1  0.2738400000000  0.5034320000000  0.3895890000000 1.0
C      1  0.6926460000000  0.3076910000000  0.5846360000000 1.0
C      1  0.5466040000000  0.2297610000000  0.5502110000000 1.0
C      1  0.4201310000000  0.3806080000000  0.3556960000000 1.0
C      1  0.3217620000000  0.3334850000000  0.5306690000000 1.0
C      1  0.3622290000000  0.4385270000000  0.6557720000000 1.0
C      1  0.6049410000000  0.3105950000000  0.5283060000000 1.0
C      1  0.3286020000000  0.5697260000000  0.3184570000000 1.0
C      1  0.3995390000000  0.5394330000000  0.6787150000000 1.0
C      1  0.6050930000000  0.6668620000000  0.5382270000000 1.0
C      1  0.5842790000000  0.5566150000000  0.5559490000000 1.0
C      1  0.3644860000000  0.7215090000000  0.5986950000000 1.0
C      1  0.5752570000000  0.3508180000000  0.4329060000000 1.0
C      1  0.5576060000000  0.6477550000000  0.3820670000000 1.0
C      1  0.3804080000000  0.6116940000000  0.6105590000000 1.0
C      1  0.7147620000000  0.5701360000000  0.4415410000000 1.0
C      1  0.5423420000000  0.5136040000000  0.2829520000000 1.0
C      1  0.5084980000000  0.4928740000000  0.5091920000000 1.0
C      1  0.4493170000000  0.3925280000000  0.6236200000000 1.0
C      1  0.3003370000000  0.4585410000000  0.4910750000000 1.0
C      1  0.6858500000000  0.5728990000000  0.6011450000000 1.0
C      1  0.4567480000000  0.5202330000000  0.3458280000000 1.0
C      1  0.4542590000000  0.7400970000000  0.4715370000000 1.0
C      1  0.2913070000000  0.4110650000000  0.5891470000000 1.0
C      1  0.3695080000000  0.7593020000000  0.5137530000000 1.0
C      1  0.3363020000000  0.4864800000000  0.7523430000000 1.0
C      1  0.6735970000000  0.3812440000000  0.3961060000000 1.0
C      1  0.7166760000000  0.3953990000000  0.6127490000000 1.0
C      1  0.6666520000000  0.4113680000000  0.3058530000000 1.0
C      1  0.6812810000000  0.6164890000000  0.3468860000000 1.0
C      1  0.4104690000000  0.4644610000000  0.5039940000000 1.0
C      1  0.5900950000000  0.4220960000000  0.5438460000000 1.0
C      1  0.6350510000000  0.4978890000000  0.4715570000000 1.0
C      1  0.2633080000000  0.5642460000000  0.4847130000000 1.0
C      1  0.4243790000000  0.3317700000000  0.5416560000000 1.0
C      1  0.7559450000000  0.4435070000000  0.5391550000000 1.0
C      1  0.7435080000000  0.3995730000000  0.4555970000000 1.0
C      1  0.5750820000000  0.4247020000000  0.2811170000000 1.0
C      1  0.5019040000000  0.5366050000000  0.6855640000000 1.0
END
