TITL C-3036485-3770-1103 4.83014683293206e-06 3375 -316.965225176279 0 0 60 (C2) n - 1
REM
REM in /home/bkarasulu/work/CARBON/AIRSS/Generating-Clusters/REBO/Higher-Symm/Only-C60
REM
REM
REM
REM
REM
REM ./C.cell (a2850807a9bf4ad07a5b6933b78d9264)
REM AIRSS Version 0.9.1 bugfix July 2018 build 013d7b7c2542+ Fri, 06 Jul 2018 19:26:36 +0100
REM compiler GCC version 9.2.1 20190827 (Red Hat 9.2.1-1)
REM options -cpp -mtune=generic -march=x86-64 -g -O0 -fpre-include=/usr/include/finclude/math-vector-fortran.h
REM seed -1157185868 1421624067 1620884137 1303587455 -1629584311 -1897446361 -1405147453 1242390317 -891647299 1577729590 788719067 433498992 1952653160 -823800631 -814251647 1968912322 354520543 1860985255 2031809361 -1886056246 600234255 -1396878510 1483188830 -2130709 -935918839 1667823465 -793734408 516305996 220277096 872115261 -30776521 -256999339 -1273988824
REM
CELL 1.54180   15.00000   15.00000   15.00000   90.00000   90.00000   90.00000
LATT -1
SFAC C  
C      1  0.6274110000000  0.4325690000000  0.2845110000000 1.0
C      1  0.6336190000000  0.6492070000000  0.3371090000000 1.0
C      1  0.6113910000000  0.6964520000000  0.5552030000000 1.0
C      1  0.6274080000000  0.5674340000000  0.7154900000000 1.0
C      1  0.6336200000000  0.3507950000000  0.6628920000000 1.0
C      1  0.6113950000000  0.3035500000000  0.4447980000000 1.0
C      1  0.6103020000000  0.4548160000000  0.7031340000000 1.0
C      1  0.6403970000000  0.6669980000000  0.6619550000000 1.0
C      1  0.6255300000000  0.6938600000000  0.4423540000000 1.0
C      1  0.6103030000000  0.5451860000000  0.2968670000000 1.0
C      1  0.6404010000000  0.3330040000000  0.3380460000000 1.0
C      1  0.6255330000000  0.3061430000000  0.5576470000000 1.0
C      1  0.5028750000000  0.4555540000000  0.6584770000000 1.0
C      1  0.5171970000000  0.3318010000000  0.5348920000000 1.0
C      1  0.5360150000000  0.3635640000000  0.3527820000000 1.0
C      1  0.5028760000000  0.5444460000000  0.3415230000000 1.0
C      1  0.5171940000000  0.6681990000000  0.4651080000000 1.0
C      1  0.5360120000000  0.6364370000000  0.6472180000000 1.0
C      1  0.5188080000000  0.4497980000000  0.3123440000000 1.0
C      1  0.4980940000000  0.3371620000000  0.4424140000000 1.0
C      1  0.5303410000000  0.3673710000000  0.6279480000000 1.0
C      1  0.5188050000000  0.5502030000000  0.6876560000000 1.0
C      1  0.4980910000000  0.6628380000000  0.5575860000000 1.0
C      1  0.5303400000000  0.6326290000000  0.3720530000000 1.0
C      1  0.5306040000000  0.7618130000000  0.6034190000000 1.0
C      1  0.5461590000000  0.5570720000000  0.7966340000000 1.0
C      1  0.5486220000000  0.2829790000000  0.7014090000000 1.0
C      1  0.5306100000000  0.2381880000000  0.3965820000000 1.0
C      1  0.5461630000000  0.4429290000000  0.2033660000000 1.0
C      1  0.5486200000000  0.7170220000000  0.2985920000000 1.0
C      1  0.5440450000000  0.7620030000000  0.3996210000000 1.0
C      1  0.5213320000000  0.5498240000000  0.2250930000000 1.0
C      1  0.5562190000000  0.2704950000000  0.2905350000000 1.0
C      1  0.5440480000000  0.2379980000000  0.6003790000000 1.0
C      1  0.5213300000000  0.4501760000000  0.7749070000000 1.0
C      1  0.5562130000000  0.7295050000000  0.7094660000000 1.0
C      1  0.4346560000000  0.5759640000000  0.7869310000000 1.0
C      1  0.4445070000000  0.3142990000000  0.7148730000000 1.0
C      1  0.4169270000000  0.2413330000000  0.4011510000000 1.0
C      1  0.4346600000000  0.4240350000000  0.2130690000000 1.0
C      1  0.4445050000000  0.6857000000000  0.2851270000000 1.0
C      1  0.4169210000000  0.7586650000000  0.5988490000000 1.0
C      1  0.4289750000000  0.5961710000000  0.2450940000000 1.0
C      1  0.4439900000000  0.2801630000000  0.3056270000000 1.0
C      1  0.4407470000000  0.2287540000000  0.5697160000000 1.0
C      1  0.4289740000000  0.4038280000000  0.7549060000000 1.0
C      1  0.4439850000000  0.7198360000000  0.6943720000000 1.0
C      1  0.4407430000000  0.7712450000000  0.4302830000000 1.0
C      1  0.3871290000000  0.3092580000000  0.5534260000000 1.0
C      1  0.3878060000000  0.3614760000000  0.3541370000000 1.0
C      1  0.3739060000000  0.5373030000000  0.3112990000000 1.0
C      1  0.3871270000000  0.6907400000000  0.4465730000000 1.0
C      1  0.3878020000000  0.6385230000000  0.6458620000000 1.0
C      1  0.3739050000000  0.4626950000000  0.6887000000000 1.0
C      1  0.3688100000000  0.3166680000000  0.4567020000000 1.0
C      1  0.3869260000000  0.3634500000000  0.6354320000000 1.0
C      1  0.3866700000000  0.5589110000000  0.7024240000000 1.0
C      1  0.3688070000000  0.6833290000000  0.5432970000000 1.0
C      1  0.3869250000000  0.6365480000000  0.3645670000000 1.0
C      1  0.3866730000000  0.4410880000000  0.2975750000000 1.0
END
