TITL C-3036484-3770-506 0.00903607413343987 3375 -337.08766940823 0 0 60 (C1) n - 1
REM
REM in /home/bkarasulu/work/CARBON/AIRSS/Generating-Clusters/REBO/Higher-Symm/Only-C60
REM
REM
REM
REM
REM
REM ./C.cell (a2850807a9bf4ad07a5b6933b78d9264)
REM AIRSS Version 0.9.1 bugfix July 2018 build 013d7b7c2542+ Fri, 06 Jul 2018 19:26:36 +0100
REM compiler GCC version 9.2.1 20190827 (Red Hat 9.2.1-1)
REM options -cpp -mtune=generic -march=x86-64 -g -O0 -fpre-include=/usr/include/finclude/math-vector-fortran.h
REM seed 896385055 1358218611 -656781098 -1584983097 -1526001606 -232515575 -46017556 -409046652 727985963 -1618556452 1396013293 1428745973 -1752269054 812026766 141832564 -603291065 1337826884 1656996435 -2125206581 1814398138 262051008 -1400190528 1045958463 -604037693 953823963 -478962282 794772346 -474835425 -265863885 -789569363 -1199559081 2058105529 489378771
REM
CELL 1.54180   15.00000   15.00000   15.00000   90.00000   90.00000   90.00000
LATT -1
SFAC C  
C      1  0.5596570000000  0.5775030000000  0.6319540000000 1.0
C      1  0.5635730000000  0.4247830000000  0.6356880000000 1.0
C      1  0.6205960000000  0.4399410000000  0.2364870000000 1.0
C      1  0.6035200000000  0.5433310000000  0.2389820000000 1.0
C      1  0.6296520000000  0.7352790000000  0.4314960000000 1.0
C      1  0.6267590000000  0.2586660000000  0.4368150000000 1.0
C      1  0.4388800000000  0.3756250000000  0.4168830000000 1.0
C      1  0.4321490000000  0.6349580000000  0.4183790000000 1.0
C      1  0.4954060000000  0.5529920000000  0.4303060000000 1.0
C      1  0.5076750000000  0.4544720000000  0.4278290000000 1.0
C      1  0.6073830000000  0.4453380000000  0.3989110000000 1.0
C      1  0.5958040000000  0.5493680000000  0.4001770000000 1.0
C      1  0.7252980000000  0.3669630000000  0.5064830000000 1.0
C      1  0.7261730000000  0.6263890000000  0.5032240000000 1.0
C      1  0.6555560000000  0.6596380000000  0.6696930000000 1.0
C      1  0.6546610000000  0.3385390000000  0.6743880000000 1.0
C      1  0.6447730000000  0.4459180000000  0.7113740000000 1.0
C      1  0.6417090000000  0.5529490000000  0.7068070000000 1.0
C      1  0.5092420000000  0.6894900000000  0.5807300000000 1.0
C      1  0.5054700000000  0.3176570000000  0.5821460000000 1.0
C      1  0.6151430000000  0.6021070000000  0.3228540000000 1.0
C      1  0.6263610000000  0.3885790000000  0.3250380000000 1.0
C      1  0.6040540000000  0.3050330000000  0.5951370000000 1.0
C      1  0.6075420000000  0.6944250000000  0.5908930000000 1.0
C      1  0.4350560000000  0.3776500000000  0.6345370000000 1.0
C      1  0.4388390000000  0.6335460000000  0.6363260000000 1.0
C      1  0.1839640000000  0.5323430000000  0.5617940000000 1.0
C      1  0.1893610000000  0.4201880000000  0.5557020000000 1.0
C      1  0.1331520000000  0.4378060000000  0.6392710000000 1.0
C      1  0.1254360000000  0.5385140000000  0.6495640000000 1.0
C      1  0.3859050000000  0.6610280000000  0.5396000000000 1.0
C      1  0.3854940000000  0.3524900000000  0.5357120000000 1.0
C      1  0.5744250000000  0.6997660000000  0.3388940000000 1.0
C      1  0.5765960000000  0.2954240000000  0.3417770000000 1.0
C      1  0.7539650000000  0.5412460000000  0.5013110000000 1.0
C      1  0.7538020000000  0.4518220000000  0.5024580000000 1.0
C      1  0.2890390000000  0.4547270000000  0.3622700000000 1.0
C      1  0.2781460000000  0.5498350000000  0.3787540000000 1.0
C      1  0.4203160000000  0.4554390000000  0.5282940000000 1.0
C      1  0.4107820000000  0.5560020000000  0.5328050000000 1.0
C      1  0.5198800000000  0.4483050000000  0.5599010000000 1.0
C      1  0.5092010000000  0.5476460000000  0.5622970000000 1.0
C      1  0.2431080000000  0.5674810000000  0.4837680000000 1.0
C      1  0.2509350000000  0.4544210000000  0.4781740000000 1.0
C      1  0.5382330000000  0.4225030000000  0.7437510000000 1.0
C      1  0.5382220000000  0.5885230000000  0.7387270000000 1.0
C      1  0.4945650000000  0.3706680000000  0.3255710000000 1.0
C      1  0.4857590000000  0.6336550000000  0.3251880000000 1.0
C      1  0.3310760000000  0.6206660000000  0.4487630000000 1.0
C      1  0.3374340000000  0.3968130000000  0.4428800000000 1.0
C      1  0.6589110000000  0.3005570000000  0.5143550000000 1.0
C      1  0.6614160000000  0.6944680000000  0.5096310000000 1.0
C      1  0.4488620000000  0.4514770000000  0.6971410000000 1.0
C      1  0.4464790000000  0.5524660000000  0.6967450000000 1.0
C      1  0.5249690000000  0.2370020000000  0.4245010000000 1.0
C      1  0.5295190000000  0.7645130000000  0.4208910000000 1.0
C      1  0.4649980000000  0.2915770000000  0.4825410000000 1.0
C      1  0.4665440000000  0.7170850000000  0.4826490000000 1.0
C      1  0.5004040000000  0.5542360000000  0.2755840000000 1.0
C      1  0.5181690000000  0.4481700000000  0.2751970000000 1.0
END
