TITL C-3036480-97-1049 0.0679382487885484 3375 -328.034196281309 0 0 60 (Ci) n - 1
REM
REM in /home/bkarasulu/work/CARBON/AIRSS/Generating-Clusters/REBO/Higher-Symm/Only-C60
REM
REM
REM
REM
REM
REM ./C.cell (a2850807a9bf4ad07a5b6933b78d9264)
REM AIRSS Version 0.9.1 bugfix July 2018 build 013d7b7c2542+ Fri, 06 Jul 2018 19:26:36 +0100
REM compiler GCC version 9.2.1 20190827 (Red Hat 9.2.1-1)
REM options -cpp -mtune=generic -march=x86-64 -g -O0 -fpre-include=/usr/include/finclude/math-vector-fortran.h
REM seed 580367934 -1564425509 1827630074 1065966763 1818486210 -1987547550 -1346286067 223866689 -659476993 1796862544 -662037014 -833165308 326479782 671048780 146270455 -1447639650 -1254753144 848774136 2012883441 -1316035235 -1808416549 499004482 1115147034 1571833793 1553441032 -595610551 -1329938201 -1702877189 -1039484675 1387570025 -48317232 742992022 -1489495263
REM
CELL 1.54180   15.00000   15.00000   15.00000   90.00000   90.00000   90.00000
LATT -1
SFAC C  
C      1  0.5888670000000  0.4388100000000  0.5480600000000 1.0
C      1  0.4111060000000  0.5612440000000  0.4519620000000 1.0
C      1  0.5905180000000  0.4778200000000  0.6534160000000 1.0
C      1  0.4094680000000  0.5220780000000  0.3466900000000 1.0
C      1  0.6958000000000  0.4866730000000  0.6096450000000 1.0
C      1  0.3041250000000  0.5135480000000  0.3903290000000 1.0
C      1  0.5626740000000  0.4364070000000  0.3191280000000 1.0
C      1  0.4373850000000  0.5635130000000  0.6809030000000 1.0
C      1  0.6119170000000  0.6831910000000  0.6658360000000 1.0
C      1  0.3879570000000  0.3165080000000  0.3344020000000 1.0
C      1  0.3613820000000  0.3870840000000  0.7486660000000 1.0
C      1  0.6388000000000  0.6130770000000  0.2512550000000 1.0
C      1  0.3424740000000  0.4025560000000  0.6607320000000 1.0
C      1  0.6575220000000  0.5974500000000  0.3391930000000 1.0
C      1  0.3899730000000  0.4747050000000  0.5940870000000 1.0
C      1  0.6100270000000  0.5253160000000  0.4058720000000 1.0
C      1  0.5143290000000  0.2323790000000  0.5047110000000 1.0
C      1  0.4856910000000  0.7676440000000  0.4953270000000 1.0
C      1  0.6277800000000  0.3005750000000  0.6199820000000 1.0
C      1  0.3722410000000  0.6994620000000  0.3800290000000 1.0
C      1  0.3499610000000  0.6706860000000  0.5641790000000 1.0
C      1  0.6501320000000  0.3293540000000  0.4359650000000 1.0
C      1  0.3807680000000  0.3423110000000  0.5871110000000 1.0
C      1  0.6192180000000  0.6577210000000  0.4127760000000 1.0
C      1  0.4278830000000  0.7612410000000  0.4193210000000 1.0
C      1  0.5721330000000  0.2387900000000  0.5807070000000 1.0
C      1  0.4672180000000  0.6476170000000  0.6216340000000 1.0
C      1  0.5329160000000  0.3522640000000  0.3783610000000 1.0
C      1  0.4860900000000  0.4677740000000  0.5703880000000 1.0
C      1  0.5138460000000  0.5321860000000  0.4295890000000 1.0
C      1  0.5146530000000  0.6432500000000  0.4563100000000 1.0
C      1  0.4853680000000  0.3567350000000  0.5436190000000 1.0
C      1  0.7119380000000  0.5907160000000  0.5658960000000 1.0
C      1  0.2879150000000  0.4094690000000  0.4339260000000 1.0
C      1  0.3446240000000  0.5427160000000  0.5285300000000 1.0
C      1  0.6553640000000  0.4573600000000  0.4715060000000 1.0
C      1  0.4696700000000  0.4289960000000  0.4198640000000 1.0
C      1  0.5303050000000  0.5708000000000  0.5801140000000 1.0
C      1  0.5134490000000  0.5057210000000  0.6950640000000 1.0
C      1  0.4864960000000  0.4941260000000  0.3049540000000 1.0
C      1  0.4122970000000  0.6567970000000  0.4997120000000 1.0
C      1  0.5876940000000  0.3432510000000  0.5003220000000 1.0
C      1  0.5410890000000  0.2487770000000  0.4162590000000 1.0
C      1  0.4589070000000  0.7511380000000  0.5837690000000 1.0
C      1  0.7321720000000  0.5374660000000  0.3997690000000 1.0
C      1  0.2677910000000  0.4625360000000  0.6001730000000 1.0
C      1  0.6726310000000  0.3783310000000  0.6318530000000 1.0
C      1  0.3273430000000  0.6217390000000  0.3681760000000 1.0
C      1  0.7417270000000  0.5064680000000  0.5061750000000 1.0
C      1  0.2582310000000  0.4936810000000  0.4938000000000 1.0
C      1  0.6532080000000  0.4067550000000  0.3691240000000 1.0
C      1  0.3468780000000  0.5932470000000  0.6309680000000 1.0
C      1  0.3234060000000  0.3268290000000  0.4903950000000 1.0
C      1  0.6767360000000  0.6732750000000  0.5093850000000 1.0
C      1  0.5823720000000  0.7316950000000  0.4848560000000 1.0
C      1  0.4176280000000  0.2682610000000  0.5151600000000 1.0
C      1  0.6175440000000  0.6063520000000  0.6087690000000 1.0
C      1  0.3823940000000  0.3935580000000  0.3912160000000 1.0
C      1  0.5266940000000  0.7279790000000  0.6653560000000 1.0
C      1  0.4732740000000  0.2719910000000  0.3347210000000 1.0
END
