TITL C-3036479-9801-253 0.000736949228567291 3375 -350.050996073959 0 0 60 (C1) n - 1
REM
REM in /home/bkarasulu/work/CARBON/AIRSS/Generating-Clusters/REBO/Higher-Symm/Only-C60
REM
REM
REM
REM
REM
REM ./C.cell (a2850807a9bf4ad07a5b6933b78d9264)
REM AIRSS Version 0.9.1 bugfix July 2018 build 013d7b7c2542+ Fri, 06 Jul 2018 19:26:36 +0100
REM compiler GCC version 9.2.1 20190827 (Red Hat 9.2.1-1)
REM options -cpp -mtune=generic -march=x86-64 -g -O0 -fpre-include=/usr/include/finclude/math-vector-fortran.h
REM seed 424028779 409516529 836972325 -469618577 301917913 -1567752226 -2000647732 -821779268 -1162222406 -197623393 -909154988 458345514 -848625507 1393064315 888475635 -413243892 1278646164 1742807850 928342129 -834706676 1996637835 1951311255 1718803411 -52118825 620072775 2075106113 946566456 1263389969 1918159768 609072505 538758910 876420246 -1948805278
REM
CELL 1.54180   15.00000   15.00000   15.00000   90.00000   90.00000   90.00000
LATT -1
SFAC C  
C      1  0.4580900000000  0.5722330000000  0.4533310000000 1.0
C      1  0.4574580000000  0.5720240000000  0.5472750000000 1.0
C      1  0.2789280000000  0.4033470000000  0.5480720000000 1.0
C      1  0.2751580000000  0.4121140000000  0.4455370000000 1.0
C      1  0.4099900000000  0.4253760000000  0.5426020000000 1.0
C      1  0.4087080000000  0.4256690000000  0.4542950000000 1.0
C      1  0.3250580000000  0.5780260000000  0.4498890000000 1.0
C      1  0.3242200000000  0.5759130000000  0.5495920000000 1.0
C      1  0.3789800000000  0.6471800000000  0.3774580000000 1.0
C      1  0.3767310000000  0.6461580000000  0.6220270000000 1.0
C      1  0.4300940000000  0.5900100000000  0.2993640000000 1.0
C      1  0.4286010000000  0.5886370000000  0.6986440000000 1.0
C      1  0.7519370000000  0.5314820000000  0.5469170000000 1.0
C      1  0.7526990000000  0.5312040000000  0.4544510000000 1.0
C      1  0.5764070000000  0.3876360000000  0.4457930000000 1.0
C      1  0.5758270000000  0.3870480000000  0.5525440000000 1.0
C      1  0.2755920000000  0.6610140000000  0.3998160000000 1.0
C      1  0.2725890000000  0.6565230000000  0.6014550000000 1.0
C      1  0.5832810000000  0.4869910000000  0.4156550000000 1.0
C      1  0.5823850000000  0.4862170000000  0.5830450000000 1.0
C      1  0.3172850000000  0.3056590000000  0.5583340000000 1.0
C      1  0.3159880000000  0.3173600000000  0.4541040000000 1.0
C      1  0.5465770000000  0.7220430000000  0.5456600000000 1.0
C      1  0.5478630000000  0.7222210000000  0.4529120000000 1.0
C      1  0.7188080000000  0.5414800000000  0.6364440000000 1.0
C      1  0.7203860000000  0.5406350000000  0.3645410000000 1.0
C      1  0.6510000000000  0.3262050000000  0.4084980000000 1.0
C      1  0.6497280000000  0.3253610000000  0.5906410000000 1.0
C      1  0.6176370000000  0.6630190000000  0.4154180000000 1.0
C      1  0.6155600000000  0.6628420000000  0.5841270000000 1.0
C      1  0.6741070000000  0.4924250000000  0.2880420000000 1.0
C      1  0.6728670000000  0.4945660000000  0.7141430000000 1.0
C      1  0.4895200000000  0.4958460000000  0.2768650000000 1.0
C      1  0.4900500000000  0.4960820000000  0.7218610000000 1.0
C      1  0.6518230000000  0.6165950000000  0.6659510000000 1.0
C      1  0.6535370000000  0.6155210000000  0.3337320000000 1.0
C      1  0.4838250000000  0.6624960000000  0.6037730000000 1.0
C      1  0.4859560000000  0.6616440000000  0.3954880000000 1.0
C      1  0.7077490000000  0.2713300000000  0.4538120000000 1.0
C      1  0.7071310000000  0.2708580000000  0.5457320000000 1.0
C      1  0.3952970000000  0.2920420000000  0.6074440000000 1.0
C      1  0.3899260000000  0.2998670000000  0.3996810000000 1.0
C      1  0.4822870000000  0.3624680000000  0.5872640000000 1.0
C      1  0.4837890000000  0.3631600000000  0.4103110000000 1.0
C      1  0.5401500000000  0.6142730000000  0.6898250000000 1.0
C      1  0.5419740000000  0.6129170000000  0.3096450000000 1.0
C      1  0.4162720000000  0.4195190000000  0.2632150000000 1.0
C      1  0.4194020000000  0.4183670000000  0.7364840000000 1.0
C      1  0.3627940000000  0.4963380000000  0.6907460000000 1.0
C      1  0.3621770000000  0.4994330000000  0.3074850000000 1.0
C      1  0.3358000000000  0.4866890000000  0.4045110000000 1.0
C      1  0.3356490000000  0.4830010000000  0.5934770000000 1.0
C      1  0.6230370000000  0.5649200000000  0.5467430000000 1.0
C      1  0.6239510000000  0.5650680000000  0.4531950000000 1.0
C      1  0.4327150000000  0.3426540000000  0.3124270000000 1.0
C      1  0.4396550000000  0.3414500000000  0.6890940000000 1.0
C      1  0.5919830000000  0.5214440000000  0.2630520000000 1.0
C      1  0.5906640000000  0.5242100000000  0.7389490000000 1.0
C      1  0.4967030000000  0.5123920000000  0.3847130000000 1.0
C      1  0.4956430000000  0.5107960000000  0.6138990000000 1.0
END
