TITL C-3036479-9801-499 -0.0142661522449741 3375 -321.788054207726 0 0 60 (Ci) n - 1
REM
REM in /home/bkarasulu/work/CARBON/AIRSS/Generating-Clusters/REBO/Higher-Symm/Only-C60
REM
REM
REM
REM
REM
REM ./C.cell (a2850807a9bf4ad07a5b6933b78d9264)
REM AIRSS Version 0.9.1 bugfix July 2018 build 013d7b7c2542+ Fri, 06 Jul 2018 19:26:36 +0100
REM compiler GCC version 9.2.1 20190827 (Red Hat 9.2.1-1)
REM options -cpp -mtune=generic -march=x86-64 -g -O0 -fpre-include=/usr/include/finclude/math-vector-fortran.h
REM seed 1442815944 -399443975 -1433693581 400491815 -1602604643 -436841957 -1012336747 -925866705 1205443541 354686471 336273219 -210089644 -19519088 -1409634679 -2138506190 -1325581445 -362294094 237325441 1576996009 -1162961022 690440783 -1021299382 -1555866072 -2037669178 519065248 1315712864 292796610 -2128259391 -605235645 191033643 -30860693 -680902700 189633968
REM
CELL 1.54180   15.00000   15.00000   15.00000   90.00000   90.00000   90.00000
LATT -1
SFAC C  
C      1  0.5785670000000  0.5528100000000  0.4440640000000 1.0
C      1  0.5713370000000  0.4997500000000  0.5747690000000 1.0
C      1  0.5819250000000  0.4550980000000  0.4475100000000 1.0
C      1  0.5163520000000  0.4169190000000  0.5640270000000 1.0
C      1  0.4879500000000  0.4172640000000  0.4342550000000 1.0
C      1  0.4214140000000  0.4471970000000  0.5559380000000 1.0
C      1  0.4286360000000  0.5002850000000  0.4252240000000 1.0
C      1  0.4180830000000  0.5449280000000  0.5525230000000 1.0
C      1  0.4836580000000  0.5830800000000  0.4359580000000 1.0
C      1  0.5120230000000  0.5827700000000  0.5657400000000 1.0
C      1  0.5744470000000  0.4564440000000  0.7190480000000 1.0
C      1  0.5184170000000  0.4234800000000  0.2881320000000 1.0
C      1  0.4867760000000  0.4238250000000  0.7084140000000 1.0
C      1  0.4288590000000  0.4498900000000  0.2778060000000 1.0
C      1  0.4288480000000  0.4984700000000  0.7044880000000 1.0
C      1  0.4255440000000  0.5435650000000  0.2809350000000 1.0
C      1  0.4816000000000  0.5765040000000  0.7118570000000 1.0
C      1  0.5132200000000  0.5761700000000  0.2915840000000 1.0
C      1  0.5711340000000  0.5501130000000  0.7221740000000 1.0
C      1  0.5711570000000  0.5015170000000  0.2955210000000 1.0
C      1  0.3405180000000  0.5916680000000  0.3293030000000 1.0
C      1  0.4559200000000  0.6669740000000  0.6561850000000 1.0
C      1  0.5350470000000  0.6683360000000  0.3476430000000 1.0
C      1  0.6534280000000  0.6090820000000  0.6814060000000 1.0
C      1  0.6642590000000  0.5036540000000  0.3549750000000 1.0
C      1  0.6594430000000  0.4083740000000  0.6706760000000 1.0
C      1  0.5441010000000  0.3329780000000  0.3438290000000 1.0
C      1  0.4649540000000  0.3316580000000  0.6523310000000 1.0
C      1  0.3465860000000  0.3909510000000  0.3186310000000 1.0
C      1  0.3357280000000  0.4963400000000  0.6450390000000 1.0
C      1  0.6327000000000  0.6112850000000  0.3372240000000 1.0
C      1  0.6963520000000  0.5080490000000  0.7090810000000 1.0
C      1  0.6389740000000  0.3947390000000  0.3353770000000 1.0
C      1  0.5761170000000  0.3314150000000  0.6750480000000 1.0
C      1  0.4361390000000  0.3217610000000  0.3111690000000 1.0
C      1  0.3672990000000  0.3887100000000  0.6627690000000 1.0
C      1  0.3036380000000  0.4919660000000  0.2908770000000 1.0
C      1  0.3610370000000  0.6052480000000  0.6646320000000 1.0
C      1  0.4238800000000  0.6685880000000  0.3249440000000 1.0
C      1  0.5638660000000  0.6782550000000  0.6888620000000 1.0
C      1  0.6548450000000  0.3903450000000  0.5000470000000 1.0
C      1  0.5676710000000  0.3412540000000  0.5142070000000 1.0
C      1  0.4383630000000  0.3380540000000  0.4832310000000 1.0
C      1  0.3451500000000  0.3829120000000  0.4990570000000 1.0
C      1  0.3387010000000  0.4836420000000  0.4586090000000 1.0
C      1  0.3451670000000  0.6096580000000  0.4999530000000 1.0
C      1  0.4323620000000  0.6587300000000  0.4857600000000 1.0
C      1  0.5616500000000  0.6619370000000  0.5168120000000 1.0
C      1  0.6548480000000  0.6170670000000  0.5009420000000 1.0
C      1  0.6612800000000  0.5163640000000  0.5413890000000 1.0
C      1  0.4485220000000  0.7139500000000  0.5627450000000 1.0
C      1  0.5445720000000  0.7150050000000  0.4421940000000 1.0
C      1  0.7055200000000  0.6345670000000  0.5941550000000 1.0
C      1  0.7057150000000  0.5039140000000  0.4530300000000 1.0
C      1  0.7071420000000  0.3968340000000  0.5782740000000 1.0
C      1  0.5514590000000  0.2860070000000  0.4372550000000 1.0
C      1  0.4554860000000  0.2849580000000  0.5578140000000 1.0
C      1  0.2944680000000  0.3654340000000  0.4058370000000 1.0
C      1  0.2943080000000  0.4960740000000  0.5469740000000 1.0
C      1  0.2928350000000  0.6031800000000  0.4217480000000 1.0
END
