TITL C-3036481-494-496 -0.0938567139742162 3375 -318.81042986782 0 0 60 (C12) n - 1
REM
REM in /home/bkarasulu/work/CARBON/AIRSS/Generating-Clusters/REBO/Higher-Symm/Only-C60
REM
REM
REM
REM
REM
REM ./C.cell (a2850807a9bf4ad07a5b6933b78d9264)
REM AIRSS Version 0.9.1 bugfix July 2018 build 013d7b7c2542+ Fri, 06 Jul 2018 19:26:36 +0100
REM compiler GCC version 9.2.1 20190827 (Red Hat 9.2.1-1)
REM options -cpp -mtune=generic -march=x86-64 -g -O0 -fpre-include=/usr/include/finclude/math-vector-fortran.h
REM seed 321259172 -385866564 -1478395009 -1152248387 1007339667 -451773437 -948598964 1245393648 178609322 -427430127 -413222914 753113953 1509783453 1622045688 796609010 -2031993135 1940364003 470509317 2060981341 1327705368 697742016 -1712162486 -380441422 674412388 -962367139 955263699 -559565384 -1354517300 2018935749 -876548573 752304359 666827355 1589119307
REM
CELL 1.54180   15.00000   15.00000   15.00000   90.00000   90.00000   90.00000
LATT -1
SFAC C  
C      1  0.3140930000000  0.3909420000000  0.4056570000000 1.0
C      1  0.3935390000000  0.3126030000000  0.4056670000000 1.0
C      1  0.5014900000000  0.2844600000000  0.4056780000000 1.0
C      1  0.6090580000000  0.3140930000000  0.4056570000000 1.0
C      1  0.6873970000000  0.3935390000000  0.4056670000000 1.0
C      1  0.7155400000000  0.5014900000000  0.4056780000000 1.0
C      1  0.6859070000000  0.6090580000000  0.4056570000000 1.0
C      1  0.6064610000000  0.6873970000000  0.4056670000000 1.0
C      1  0.4985100000000  0.7155400000000  0.4056780000000 1.0
C      1  0.3909420000000  0.6859070000000  0.4056570000000 1.0
C      1  0.3126030000000  0.6064610000000  0.4056670000000 1.0
C      1  0.2844600000000  0.4985100000000  0.4056780000000 1.0
C      1  0.7244380000000  0.6374970000000  0.5005040000000 1.0
C      1  0.6256400000000  0.7312670000000  0.5004940000000 1.0
C      1  0.4931630000000  0.7631000000000  0.5004890000000 1.0
C      1  0.3625030000000  0.7244380000000  0.5005040000000 1.0
C      1  0.2687330000000  0.6256400000000  0.5004940000000 1.0
C      1  0.2369000000000  0.4931630000000  0.5004890000000 1.0
C      1  0.2755620000000  0.3625030000000  0.5005040000000 1.0
C      1  0.3743600000000  0.2687330000000  0.5004940000000 1.0
C      1  0.5068370000000  0.2369000000000  0.5004890000000 1.0
C      1  0.6374970000000  0.2755620000000  0.5005040000000 1.0
C      1  0.7312670000000  0.3743600000000  0.5004940000000 1.0
C      1  0.7631000000000  0.5068370000000  0.5004890000000 1.0
C      1  0.6699670000000  0.5867610000000  0.7006520000000 1.0
C      1  0.6038130000000  0.6601230000000  0.7006360000000 1.0
C      1  0.5098280000000  0.6905790000000  0.7006450000000 1.0
C      1  0.4132390000000  0.6699670000000  0.7006520000000 1.0
C      1  0.3398770000000  0.6038130000000  0.7006360000000 1.0
C      1  0.3094210000000  0.5098280000000  0.7006450000000 1.0
C      1  0.3300330000000  0.4132390000000  0.7006520000000 1.0
C      1  0.3961870000000  0.3398770000000  0.7006360000000 1.0
C      1  0.4901720000000  0.3094210000000  0.7006450000000 1.0
C      1  0.5867610000000  0.3300330000000  0.7006520000000 1.0
C      1  0.6601230000000  0.3961870000000  0.7006360000000 1.0
C      1  0.6905790000000  0.4901720000000  0.7006450000000 1.0
C      1  0.3248930000000  0.3739930000000  0.5939790000000 1.0
C      1  0.4113510000000  0.3033310000000  0.5939950000000 1.0
C      1  0.5215660000000  0.2853540000000  0.5939950000000 1.0
C      1  0.6260070000000  0.3248930000000  0.5939790000000 1.0
C      1  0.6966690000000  0.4113510000000  0.5939950000000 1.0
C      1  0.7146460000000  0.5215660000000  0.5939950000000 1.0
C      1  0.6751070000000  0.6260070000000  0.5939790000000 1.0
C      1  0.5886490000000  0.6966690000000  0.5939950000000 1.0
C      1  0.4784340000000  0.7146460000000  0.5939950000000 1.0
C      1  0.3739930000000  0.6751070000000  0.5939790000000 1.0
C      1  0.3033310000000  0.5886490000000  0.5939950000000 1.0
C      1  0.2853540000000  0.4784340000000  0.5939950000000 1.0
C      1  0.3230660000000  0.4293740000000  0.2992000000000 1.0
C      1  0.3820770000000  0.3503660000000  0.2992130000000 1.0
C      1  0.4726800000000  0.3114620000000  0.2991960000000 1.0
C      1  0.5706260000000  0.3230660000000  0.2992000000000 1.0
C      1  0.6496340000000  0.3820770000000  0.2992130000000 1.0
C      1  0.6885380000000  0.4726800000000  0.2991970000000 1.0
C      1  0.6769340000000  0.5706260000000  0.2992000000000 1.0
C      1  0.6179230000000  0.6496340000000  0.2992130000000 1.0
C      1  0.5273200000000  0.6885380000000  0.2991960000000 1.0
C      1  0.4293740000000  0.6769340000000  0.2992000000000 1.0
C      1  0.3503660000000  0.6179230000000  0.2992130000000 1.0
C      1  0.3114620000000  0.5273200000000  0.2991970000000 1.0
END
