TITL C-3036479-9801-665 -0.00046668461164986 3375 -365.814305803467 0 0 60 (C1) n - 1
REM
REM in /home/bkarasulu/work/CARBON/AIRSS/Generating-Clusters/REBO/Higher-Symm/Only-C60
REM
REM
REM
REM
REM
REM ./C.cell (a2850807a9bf4ad07a5b6933b78d9264)
REM AIRSS Version 0.9.1 bugfix July 2018 build 013d7b7c2542+ Fri, 06 Jul 2018 19:26:36 +0100
REM compiler GCC version 9.2.1 20190827 (Red Hat 9.2.1-1)
REM options -cpp -mtune=generic -march=x86-64 -g -O0 -fpre-include=/usr/include/finclude/math-vector-fortran.h
REM seed 911333052 597815683 -149420914 -343031280 -2094221604 1055037913 340603411 -1491213280 -1520361032 -2008442581 2056379576 -944770822 -441764980 -342462114 -1635782004 -1341693616 1667567782 609476856 -1127551338 -1944013068 392411123 -1514291502 677378601 1315613084 -631936764 -2114119617 -380856423 1143627749 1294572565 -954611965 1781035325 360625840 1182369879
REM
CELL 1.54180   15.00000   15.00000   15.00000   90.00000   90.00000   90.00000
LATT -1
SFAC C  
C      1  0.4626030000000  0.5448820000000  0.5458450000000 1.0
C      1  0.4879130000000  0.5540360000000  0.4350100000000 1.0
C      1  0.5701860000000  0.5616260000000  0.5131030000000 1.0
C      1  0.4488670000000  0.4379590000000  0.5505940000000 1.0
C      1  0.4704000000000  0.4470160000000  0.4394700000000 1.0
C      1  0.5556620000000  0.4546780000000  0.5147140000000 1.0
C      1  0.2968600000000  0.4160850000000  0.3144210000000 1.0
C      1  0.7601280000000  0.4160660000000  0.4167490000000 1.0
C      1  0.4422710000000  0.4179380000000  0.7713880000000 1.0
C      1  0.2956720000000  0.5826770000000  0.3157590000000 1.0
C      1  0.7637580000000  0.5826600000000  0.4156310000000 1.0
C      1  0.4412840000000  0.5844910000000  0.7673540000000 1.0
C      1  0.5292880000000  0.2372460000000  0.4407830000000 1.0
C      1  0.5353860000000  0.2395540000000  0.5540010000000 1.0
C      1  0.4345550000000  0.2313860000000  0.5028690000000 1.0
C      1  0.5302770000000  0.7649760000000  0.4424680000000 1.0
C      1  0.5366410000000  0.7674140000000  0.5556470000000 1.0
C      1  0.4356240000000  0.7594920000000  0.5045870000000 1.0
C      1  0.5409580000000  0.6701610000000  0.6122210000000 1.0
C      1  0.3847920000000  0.6646210000000  0.4747970000000 1.0
C      1  0.5809690000000  0.6694820000000  0.4123150000000 1.0
C      1  0.5334690000000  0.3343400000000  0.6133710000000 1.0
C      1  0.3822390000000  0.3277200000000  0.4771210000000 1.0
C      1  0.5773280000000  0.3334330000000  0.4095500000000 1.0
C      1  0.5964130000000  0.3282420000000  0.5174980000000 1.0
C      1  0.4267320000000  0.3120680000000  0.5822780000000 1.0
C      1  0.4633800000000  0.3206500000000  0.4006630000000 1.0
C      1  0.6090090000000  0.6872330000000  0.5207530000000 1.0
C      1  0.4371630000000  0.6716330000000  0.5767190000000 1.0
C      1  0.4669510000000  0.6801920000000  0.4012120000000 1.0
C      1  0.6154910000000  0.4053050000000  0.3490780000000 1.0
C      1  0.5690470000000  0.4073790000000  0.6750830000000 1.0
C      1  0.3127090000000  0.4020930000000  0.4740500000000 1.0
C      1  0.6171940000000  0.5952830000000  0.3521320000000 1.0
C      1  0.5727650000000  0.5974460000000  0.6757610000000 1.0
C      1  0.3136430000000  0.5922090000000  0.4739290000000 1.0
C      1  0.5289940000000  0.5519820000000  0.7469660000000 1.0
C      1  0.2717700000000  0.5479480000000  0.4017090000000 1.0
C      1  0.7002420000000  0.5497600000000  0.3519610000000 1.0
C      1  0.5286060000000  0.4520910000000  0.7478620000000 1.0
C      1  0.2723380000000  0.4481370000000  0.4012790000000 1.0
C      1  0.6991230000000  0.4499740000000  0.3512430000000 1.0
C      1  0.7403780000000  0.4526100000000  0.5022820000000 1.0
C      1  0.3756860000000  0.4506040000000  0.7117470000000 1.0
C      1  0.3806620000000  0.4525850000000  0.2879010000000 1.0
C      1  0.7451720000000  0.5486650000000  0.5025420000000 1.0
C      1  0.3776390000000  0.5467230000000  0.7076040000000 1.0
C      1  0.3802100000000  0.5488340000000  0.2882340000000 1.0
C      1  0.4560910000000  0.4110380000000  0.3379590000000 1.0
C      1  0.6573820000000  0.4136830000000  0.5416360000000 1.0
C      1  0.3757800000000  0.4033530000000  0.6234620000000 1.0
C      1  0.4568850000000  0.5928490000000  0.3353260000000 1.0
C      1  0.6679040000000  0.5947360000000  0.5458190000000 1.0
C      1  0.3860310000000  0.5851330000000  0.6161850000000 1.0
C      1  0.3161350000000  0.4503260000000  0.5532160000000 1.0
C      1  0.5454770000000  0.4545100000000  0.3136490000000 1.0
C      1  0.6344110000000  0.4563670000000  0.6315040000000 1.0
C      1  0.3192200000000  0.5426610000000  0.5518030000000 1.0
C      1  0.5468800000000  0.5470680000000  0.3156430000000 1.0
C      1  0.6393570000000  0.5486920000000  0.6335440000000 1.0
END
