TITL C-3036482-790-1134 -1.4557893900905e-06 3375 -347.961354631856 0 0 60 (D5) n - 1
REM
REM in /home/bkarasulu/work/CARBON/AIRSS/Generating-Clusters/REBO/Higher-Symm/Only-C60
REM
REM
REM
REM
REM
REM ./C.cell (a2850807a9bf4ad07a5b6933b78d9264)
REM AIRSS Version 0.9.1 bugfix July 2018 build 013d7b7c2542+ Fri, 06 Jul 2018 19:26:36 +0100
REM compiler GCC version 9.2.1 20190827 (Red Hat 9.2.1-1)
REM options -cpp -mtune=generic -march=x86-64 -g -O0 -fpre-include=/usr/include/finclude/math-vector-fortran.h
REM seed -1750527620 1206192047 -532624467 746256202 -1101314863 -291287447 657778918 1065931394 982535459 -1062592460 -501450219 1460045459 -1159676822 -814653159 390016153 -340896810 54196594 -1812649511 528031746 1578328413 -1764398732 1538163453 -976643174 -1320853119 -107199146 1306860968 -1134247649 -1050304073 261794350 1130129295 1934284080 1917518866 950454249
REM
CELL 1.54180   15.00000   15.00000   15.00000   90.00000   90.00000   90.00000
LATT -1
SFAC C  
C      1  0.3144430000000  0.3701920000000  0.4433290000000 1.0
C      1  0.3192040000000  0.6363630000000  0.4433330000000 1.0
C      1  0.5738190000000  0.7140860000000  0.4433340000000 1.0
C      1  0.7264190000000  0.4959510000000  0.4433310000000 1.0
C      1  0.5661150000000  0.2834120000000  0.4433280000000 1.0
C      1  0.3144430000000  0.6298080000000  0.5566710000000 1.0
C      1  0.3192040000000  0.3636370000000  0.5566670000000 1.0
C      1  0.5738190000000  0.2859140000000  0.5566660000000 1.0
C      1  0.7264190000000  0.5040490000000  0.5566690000000 1.0
C      1  0.5661150000000  0.7165880000000  0.5566720000000 1.0
C      1  0.4642570000000  0.5773920000000  0.6084630000000 1.0
C      1  0.5625600000000  0.5579070000000  0.6084620000000 1.0
C      1  0.5744070000000  0.4583950000000  0.6084610000000 1.0
C      1  0.4834260000000  0.4163770000000  0.6084600000000 1.0
C      1  0.4153490000000  0.4899210000000  0.6084610000000 1.0
C      1  0.4642570000000  0.4226080000000  0.3915370000000 1.0
C      1  0.5625600000000  0.4420930000000  0.3915380000000 1.0
C      1  0.5744070000000  0.5416050000000  0.3915390000000 1.0
C      1  0.4834260000000  0.5836230000000  0.3915400000000 1.0
C      1  0.4153490000000  0.5100790000000  0.3915390000000 1.0
C      1  0.4392260000000  0.6346150000000  0.6944740000000 1.0
C      1  0.6092500000000  0.5993960000000  0.6944730000000 1.0
C      1  0.6282940000000  0.4268100000000  0.6944710000000 1.0
C      1  0.4700410000000  0.3553660000000  0.6944700000000 1.0
C      1  0.3531900000000  0.4837970000000  0.6944720000000 1.0
C      1  0.4392260000000  0.3653850000000  0.3055260000000 1.0
C      1  0.6092500000000  0.4006040000000  0.3055270000000 1.0
C      1  0.6282940000000  0.5731900000000  0.3055290000000 1.0
C      1  0.4700410000000  0.6446340000000  0.3055300000000 1.0
C      1  0.3531900000000  0.5162030000000  0.3055280000000 1.0
C      1  0.5753200000000  0.6664630000000  0.3448100000000 1.0
C      1  0.6815890000000  0.4798080000000  0.3448070000000 1.0
C      1  0.5369080000000  0.3210610000000  0.3448040000000 1.0
C      1  0.3412220000000  0.4096050000000  0.3448060000000 1.0
C      1  0.3649620000000  0.6230750000000  0.3448090000000 1.0
C      1  0.5753200000000  0.3335370000000  0.6551900000000 1.0
C      1  0.6815890000000  0.5201920000000  0.6551930000000 1.0
C      1  0.5369080000000  0.6789390000000  0.6551960000000 1.0
C      1  0.3412220000000  0.5903950000000  0.6551940000000 1.0
C      1  0.3649620000000  0.3769250000000  0.6551910000000 1.0
C      1  0.6343540000000  0.5488250000000  0.4721670000000 1.0
C      1  0.5879520000000  0.3873100000000  0.4721650000000 1.0
C      1  0.4200040000000  0.3815300000000  0.4721640000000 1.0
C      1  0.3626080000000  0.5394720000000  0.4721670000000 1.0
C      1  0.4950830000000  0.6428660000000  0.4721690000000 1.0
C      1  0.6343540000000  0.4511760000000  0.5278330000000 1.0
C      1  0.5879520000000  0.6126900000000  0.5278350000000 1.0
C      1  0.4200040000000  0.6184700000000  0.5278360000000 1.0
C      1  0.3626080000000  0.4605280000000  0.5278330000000 1.0
C      1  0.4950830000000  0.3571340000000  0.5278310000000 1.0
C      1  0.4659070000000  0.4244660000000  0.2235080000000 1.0
C      1  0.4176230000000  0.5090860000000  0.2235090000000 1.0
C      1  0.4831810000000  0.5811560000000  0.2235110000000 1.0
C      1  0.5719820000000  0.5410770000000  0.2235100000000 1.0
C      1  0.5613060000000  0.4442370000000  0.2235080000000 1.0
C      1  0.4659070000000  0.5755340000000  0.7764920000000 1.0
C      1  0.4176230000000  0.4909140000000  0.7764910000000 1.0
C      1  0.4831810000000  0.4188440000000  0.7764890000000 1.0
C      1  0.5719820000000  0.4589230000000  0.7764900000000 1.0
C      1  0.5613060000000  0.5557630000000  0.7764920000000 1.0
END
