TITL C-3036485-3770-655 0.00179968481891796 3375 -335.320731675527 0 0 60 (C3) n - 1
REM
REM in /home/bkarasulu/work/CARBON/AIRSS/Generating-Clusters/REBO/Higher-Symm/Only-C60
REM
REM
REM
REM
REM
REM ./C.cell (a2850807a9bf4ad07a5b6933b78d9264)
REM AIRSS Version 0.9.1 bugfix July 2018 build 013d7b7c2542+ Fri, 06 Jul 2018 19:26:36 +0100
REM compiler GCC version 9.2.1 20190827 (Red Hat 9.2.1-1)
REM options -cpp -mtune=generic -march=x86-64 -g -O0 -fpre-include=/usr/include/finclude/math-vector-fortran.h
REM seed 117624477 -620862564 -1315255288 532836781 -211316202 -787039595 1111818583 1051551110 729804775 1246027407 910617542 -655932645 1016385163 -1493367201 1583548675 -1858617479 569433360 -1357096484 2099639733 -1060650184 -242248988 -1426370921 -1615840199 776713390 -405888771 1521386479 -681063374 2127058724 1159196578 -1681305088 -231528133 -1330084130 -1754612047
REM
CELL 1.54180   15.00000   15.00000   15.00000   90.00000   90.00000   90.00000
LATT -1
SFAC C  
C      1  0.6209320000000  0.4023060000000  0.5407300000000 1.0
C      1  0.4042190000000  0.4022580000000  0.5844550000000 1.0
C      1  0.4747450000000  0.4022450000000  0.3748090000000 1.0
C      1  0.7213190000000  0.4749130000000  0.4192450000000 1.0
C      1  0.4593150000000  0.4750090000000  0.7320710000000 1.0
C      1  0.3194040000000  0.4750510000000  0.3487370000000 1.0
C      1  0.5846270000000  0.2965470000000  0.6116710000000 1.0
C      1  0.3609920000000  0.2965620000000  0.5174060000000 1.0
C      1  0.5543950000000  0.2965230000000  0.3708290000000 1.0
C      1  0.4585320000000  0.6869380000000  0.3271450000000 1.0
C      1  0.6705510000000  0.6869170000000  0.5504340000000 1.0
C      1  0.3709570000000  0.6869100000000  0.6224910000000 1.0
C      1  0.5358850000000  0.2138740000000  0.4468750000000 1.0
C      1  0.5280900000000  0.2138700000000  0.5575880000000 1.0
C      1  0.4361030000000  0.2138920000000  0.4954780000000 1.0
C      1  0.4835510000000  0.2581540000000  0.6461220000000 1.0
C      1  0.3816650000000  0.2581490000000  0.4126490000000 1.0
C      1  0.6347990000000  0.2582160000000  0.4411470000000 1.0
C      1  0.3975080000000  0.6380990000000  0.3966870000000 1.0
C      1  0.6407750000000  0.6380350000000  0.4628570000000 1.0
C      1  0.4617060000000  0.6380730000000  0.6404640000000 1.0
C      1  0.6301440000000  0.6052710000000  0.2959100000000 1.0
C      1  0.6116850000000  0.6053040000000  0.7145470000000 1.0
C      1  0.2582880000000  0.6053140000000  0.4894320000000 1.0
C      1  0.3028850000000  0.6381880000000  0.5873490000000 1.0
C      1  0.5230190000000  0.6382250000000  0.2857910000000 1.0
C      1  0.6741700000000  0.6382070000000  0.6269730000000 1.0
C      1  0.2704720000000  0.4888510000000  0.5070680000000 1.0
C      1  0.6086830000000  0.4888000000000  0.2976810000000 1.0
C      1  0.6208880000000  0.4888730000000  0.6952000000000 1.0
C      1  0.5474360000000  0.5339530000000  0.7668320000000 1.0
C      1  0.2452000000000  0.5339690000000  0.4076340000000 1.0
C      1  0.7074540000000  0.5338700000000  0.3255510000000 1.0
C      1  0.4640540000000  0.5064740000000  0.3672050000000 1.0
C      1  0.6330300000000  0.5064990000000  0.5352000000000 1.0
C      1  0.4029460000000  0.5064810000000  0.5976030000000 1.0
C      1  0.5780410000000  0.4033670000000  0.6431090000000 1.0
C      1  0.3370400000000  0.4033780000000  0.4960450000000 1.0
C      1  0.5849010000000  0.4033420000000  0.3608210000000 1.0
C      1  0.3275610000000  0.5808440000000  0.3452790000000 1.0
C      1  0.7202290000000  0.5806970000000  0.4280780000000 1.0
C      1  0.4522180000000  0.5807960000000  0.7267300000000 1.0
C      1  0.5998840000000  0.7642410000000  0.3561550000000 1.0
C      1  0.5744200000000  0.7643670000000  0.6586010000000 1.0
C      1  0.3254320000000  0.7643410000000  0.4853000000000 1.0
C      1  0.3140060000000  0.5388930000000  0.5891060000000 1.0
C      1  0.5158910000000  0.5389160000000  0.2944660000000 1.0
C      1  0.6701500000000  0.5389210000000  0.6164860000000 1.0
C      1  0.4776710000000  0.4163700000000  0.6608920000000 1.0
C      1  0.3718440000000  0.4163980000000  0.4002310000000 1.0
C      1  0.6504470000000  0.4163190000000  0.4389030000000 1.0
C      1  0.5520110000000  0.6802230000000  0.6678290000000 1.0
C      1  0.3286370000000  0.6802150000000  0.4612140000000 1.0
C      1  0.6192740000000  0.6801440000000  0.3709650000000 1.0
C      1  0.3982060000000  0.3001180000000  0.6242650000000 1.0
C      1  0.4432490000000  0.3001220000000  0.3496510000000 1.0
C      1  0.6585330000000  0.3002030000000  0.5259740000000 1.0
C      1  0.4722460000000  0.5723210000000  0.5585900000000 1.0
C      1  0.4631190000000  0.5723100000000  0.4467100000000 1.0
C      1  0.5645630000000  0.5723380000000  0.4947320000000 1.0
END
