TITL C-3036482-790-749 -5.15487066475079e-06 3375 -347.288535602826 0 0 60 (Ci) n - 1
REM
REM in /home/bkarasulu/work/CARBON/AIRSS/Generating-Clusters/REBO/Higher-Symm/Only-C60
REM
REM
REM
REM
REM
REM ./C.cell (a2850807a9bf4ad07a5b6933b78d9264)
REM AIRSS Version 0.9.1 bugfix July 2018 build 013d7b7c2542+ Fri, 06 Jul 2018 19:26:36 +0100
REM compiler GCC version 9.2.1 20190827 (Red Hat 9.2.1-1)
REM options -cpp -mtune=generic -march=x86-64 -g -O0 -fpre-include=/usr/include/finclude/math-vector-fortran.h
REM seed -935970255 -725217706 -1489055163 1040781017 1305406143 38170568 -868876341 2121019905 468009809 1079321043 -2021649236 -2107593618 -1532693883 440793701 446269567 1856071659 -418653215 104686646 -81224433 900106767 741658549 292176341 888564601 1048901976 -1135742610 -2060485410 -1093178735 -2084532760 -1610764830 -2008248747 -550234305 330765879 906961071
REM
CELL 1.54180   15.00000   15.00000   15.00000   90.00000   90.00000   90.00000
LATT -1
SFAC C  
C      1  0.5846540000000  0.2939150000000  0.5283090000000 1.0
C      1  0.4153460000000  0.7060850000000  0.4716910000000 1.0
C      1  0.7057010000000  0.4534350000000  0.5860230000000 1.0
C      1  0.2942990000000  0.5465650000000  0.4139770000000 1.0
C      1  0.5967330000000  0.5992880000000  0.3146390000000 1.0
C      1  0.4032670000000  0.4007120000000  0.6853610000000 1.0
C      1  0.3437710000000  0.3357170000000  0.5136850000000 1.0
C      1  0.6562290000000  0.6642830000000  0.4863150000000 1.0
C      1  0.6029680000000  0.5990740000000  0.5528180000000 1.0
C      1  0.3970320000000  0.4009260000000  0.4471820000000 1.0
C      1  0.3362600000000  0.6271030000000  0.4713470000000 1.0
C      1  0.6637400000000  0.3728970000000  0.5286530000000 1.0
C      1  0.4795940000000  0.4368590000000  0.4998710000000 1.0
C      1  0.5204060000000  0.5631410000000  0.5001290000000 1.0
C      1  0.5907290000000  0.7182160000000  0.4425670000000 1.0
C      1  0.4092710000000  0.2817840000000  0.5574330000000 1.0
C      1  0.5332580000000  0.5556360000000  0.2535400000000 1.0
C      1  0.4667420000000  0.4443640000000  0.7464600000000 1.0
C      1  0.4184870000000  0.7472730000000  0.5737460000000 1.0
C      1  0.5815130000000  0.2527270000000  0.4262540000000 1.0
C      1  0.4817010000000  0.2526880000000  0.5019960000000 1.0
C      1  0.5182990000000  0.7473120000000  0.4980040000000 1.0
C      1  0.4359280000000  0.5196840000000  0.5611060000000 1.0
C      1  0.5640710000000  0.4803160000000  0.4388940000000 1.0
C      1  0.3563740000000  0.5949000000000  0.5674450000000 1.0
C      1  0.6436260000000  0.4051000000000  0.4325550000000 1.0
C      1  0.2959490000000  0.4500500000000  0.4648510000000 1.0
C      1  0.7040510000000  0.5499500000000  0.5351490000000 1.0
C      1  0.4405370000000  0.3250090000000  0.6412510000000 1.0
C      1  0.5594630000000  0.6749910000000  0.3587490000000 1.0
C      1  0.5682940000000  0.5158660000000  0.7022370000000 1.0
C      1  0.4317060000000  0.4841340000000  0.2977630000000 1.0
C      1  0.3748500000000  0.6821960000000  0.6372390000000 1.0
C      1  0.6251500000000  0.3178040000000  0.3627610000000 1.0
C      1  0.6197320000000  0.4231320000000  0.3228570000000 1.0
C      1  0.3802680000000  0.5768680000000  0.6771430000000 1.0
C      1  0.4846670000000  0.6346990000000  0.4310570000000 1.0
C      1  0.5153330000000  0.3653010000000  0.5689430000000 1.0
C      1  0.6839160000000  0.5503180000000  0.6460050000000 1.0
C      1  0.3160850000000  0.4496820000000  0.3539950000000 1.0
C      1  0.3005040000000  0.4154340000000  0.5641880000000 1.0
C      1  0.6994960000000  0.5845660000000  0.4358120000000 1.0
C      1  0.4507690000000  0.6568020000000  0.7179570000000 1.0
C      1  0.5492310000000  0.3431980000000  0.2820430000000 1.0
C      1  0.4798490000000  0.2469870000000  0.3945650000000 1.0
C      1  0.5201510000000  0.7530130000000  0.6054350000000 1.0
C      1  0.4625760000000  0.3083130000000  0.3238920000000 1.0
C      1  0.5374240000000  0.6916870000000  0.6761080000000 1.0
C      1  0.3379860000000  0.5482390000000  0.3084250000000 1.0
C      1  0.6620140000000  0.4517610000000  0.6915750000000 1.0
C      1  0.5329340000000  0.4513030000000  0.2581460000000 1.0
C      1  0.4670660000000  0.5486970000000  0.7418540000000 1.0
C      1  0.6301950000000  0.3580760000000  0.6359110000000 1.0
C      1  0.3698050000000  0.6419240000000  0.3640890000000 1.0
C      1  0.4613260000000  0.5895810000000  0.3304000000000 1.0
C      1  0.5386740000000  0.4104190000000  0.6696000000000 1.0
C      1  0.6373230000000  0.5406650000000  0.3794010000000 1.0
C      1  0.3626770000000  0.4593350000000  0.6205990000000 1.0
C      1  0.4050720000000  0.3869310000000  0.3440930000000 1.0
C      1  0.5949280000000  0.6130690000000  0.6559070000000 1.0
END
