TITL C-3036479-9801-873 -6.73884765971787e-06 3375 -333.471295569134 0 0 60 (C3) n - 1
REM
REM in /home/bkarasulu/work/CARBON/AIRSS/Generating-Clusters/REBO/Higher-Symm/Only-C60
REM
REM
REM
REM
REM
REM ./C.cell (a2850807a9bf4ad07a5b6933b78d9264)
REM AIRSS Version 0.9.1 bugfix July 2018 build 013d7b7c2542+ Fri, 06 Jul 2018 19:26:36 +0100
REM compiler GCC version 9.2.1 20190827 (Red Hat 9.2.1-1)
REM options -cpp -mtune=generic -march=x86-64 -g -O0 -fpre-include=/usr/include/finclude/math-vector-fortran.h
REM seed 951316471 -1879380444 -937595566 -728278769 174364815 959218697 -1535874627 698343818 707452633 -645286085 -1060528199 2066315076 613806531 1573289275 1333070017 1732236181 -2027072828 2143918062 -529149967 1852601857 755697009 -1819783671 -1607511926 -65501002 1756651454 -1183063429 -1088089863 -279002406 819551960 972174818 1491360216 -1903946280 -1852612213
REM
CELL 1.54180   15.00000   15.00000   15.00000   90.00000   90.00000   90.00000
LATT -1
SFAC C  
C      1  0.6488150000000  0.6971180000000  0.5297410000000 1.0
C      1  0.4513450000000  0.6971190000000  0.3562550000000 1.0
C      1  0.3998370000000  0.6971150000000  0.6140120000000 1.0
C      1  0.4312000000000  0.3351290000000  0.6640740000000 1.0
C      1  0.6764960000000  0.3351330000000  0.4775420000000 1.0
C      1  0.3923070000000  0.3351330000000  0.3583770000000 1.0
C      1  0.4434730000000  0.7536630000000  0.5283120000000 1.0
C      1  0.5527770000000  0.7536630000000  0.5348020000000 1.0
C      1  0.5037460000000  0.7536640000000  0.4368970000000 1.0
C      1  0.6079340000000  0.5401850000000  0.4717520000000 1.0
C      1  0.4215690000000  0.5401850000000  0.4206510000000 1.0
C      1  0.4704970000000  0.5401830000000  0.6075990000000 1.0
C      1  0.4159130000000  0.4095090000000  0.4389870000000 1.0
C      1  0.4892070000000  0.4095070000000  0.6033270000000 1.0
C      1  0.5948820000000  0.4095100000000  0.4576820000000 1.0
C      1  0.6591810000000  0.6999110000000  0.4283170000000 1.0
C      1  0.3583260000000  0.6999090000000  0.3979900000000 1.0
C      1  0.4824900000000  0.6999060000000  0.6737010000000 1.0
C      1  0.3527230000000  0.6018960000000  0.6102160000000 1.0
C      1  0.6690870000000  0.6018980000000  0.5724390000000 1.0
C      1  0.4781890000000  0.6019010000000  0.3173490000000 1.0
C      1  0.7185440000000  0.5475450000000  0.3677100000000 1.0
C      1  0.2761610000000  0.5475420000000  0.3768810000000 1.0
C      1  0.5052940000000  0.5475390000000  0.7554110000000 1.0
C      1  0.6438720000000  0.6177810000000  0.3555350000000 1.0
C      1  0.3029510000000  0.6177780000000  0.4476370000000 1.0
C      1  0.5531740000000  0.6177760000000  0.6968320000000 1.0
C      1  0.3501010000000  0.2384740000000  0.5161240000000 1.0
C      1  0.5889180000000  0.2384740000000  0.6217500000000 1.0
C      1  0.5609850000000  0.2384770000000  0.3621160000000 1.0
C      1  0.5796700000000  0.5662930000000  0.6006470000000 1.0
C      1  0.5473270000000  0.5662960000000  0.3806810000000 1.0
C      1  0.3730020000000  0.5662930000000  0.5186750000000 1.0
C      1  0.4415490000000  0.5351840000000  0.2631230000000 1.0
C      1  0.3240830000000  0.5351780000000  0.6690600000000 1.0
C      1  0.7343680000000  0.5351820000000  0.5678190000000 1.0
C      1  0.3353500000000  0.3051210000000  0.4460110000000 1.0
C      1  0.5355730000000  0.3051190000000  0.6695820000000 1.0
C      1  0.6290800000000  0.3051230000000  0.3843990000000 1.0
C      1  0.5651770000000  0.6991880000000  0.3647760000000 1.0
C      1  0.3503000000000  0.6991850000000  0.5111700000000 1.0
C      1  0.5845190000000  0.6991850000000  0.6240620000000 1.0
C      1  0.5902640000000  0.3931800000000  0.6514400000000 1.0
C      1  0.5860210000000  0.3931840000000  0.3461070000000 1.0
C      1  0.3237170000000  0.3931810000000  0.5024490000000 1.0
C      1  0.7172970000000  0.4327780000000  0.5216840000000 1.0
C      1  0.4101320000000  0.4327790000000  0.3009730000000 1.0
C      1  0.3725730000000  0.4327740000000  0.6773410000000 1.0
C      1  0.4499060000000  0.5040560000000  0.6960680000000 1.0
C      1  0.6948470000000  0.5040610000000  0.4453490000000 1.0
C      1  0.3552480000000  0.5040600000000  0.3585830000000 1.0
C      1  0.5083360000000  0.4688840000000  0.4235560000000 1.0
C      1  0.4296300000000  0.4688820000000  0.5310020000000 1.0
C      1  0.5620340000000  0.4688820000000  0.5454410000000 1.0
C      1  0.4810350000000  0.2780240000000  0.3253200000000 1.0
C      1  0.3582090000000  0.2780190000000  0.6037610000000 1.0
C      1  0.6607590000000  0.2780210000000  0.5709100000000 1.0
C      1  0.6699770000000  0.3760880000000  0.6026570000000 1.0
C      1  0.5039170000000  0.3760910000000  0.3014650000000 1.0
C      1  0.3261080000000  0.3760860000000  0.5958730000000 1.0
END
