TITL C-3036482-790-44 -5.54389858491371e-06 3375 -355.948705561974 0 0 60 (Ci) n - 1
REM
REM in /home/bkarasulu/work/CARBON/AIRSS/Generating-Clusters/REBO/Higher-Symm/Only-C60
REM
REM
REM
REM
REM
REM ./C.cell (a2850807a9bf4ad07a5b6933b78d9264)
REM AIRSS Version 0.9.1 bugfix July 2018 build 013d7b7c2542+ Fri, 06 Jul 2018 19:26:36 +0100
REM compiler GCC version 9.2.1 20190827 (Red Hat 9.2.1-1)
REM options -cpp -mtune=generic -march=x86-64 -g -O0 -fpre-include=/usr/include/finclude/math-vector-fortran.h
REM seed 1661811507 1066581060 -1655836922 -147009291 1712295749 -1523737696 2123362900 -631962619 -1279885653 1291961410 -439858810 -590677556 -780966554 730111888 -1521558508 -785886514 1991707678 -784937640 -1028257363 130276234 -1556830725 1249726397 -831323633 1414016211 -1429390731 538948116 -35443056 1067258995 -913008948 -1485012385 111929150 -594676671 -508999895
REM
CELL 1.54180   15.00000   15.00000   15.00000   90.00000   90.00000   90.00000
LATT -1
SFAC C  
C      1  0.3625480000000  0.6433420000000  0.6010160000000 1.0
C      1  0.6374520000000  0.3566580000000  0.3989830000000 1.0
C      1  0.4341160000000  0.6218320000000  0.4257870000000 1.0
C      1  0.5658840000000  0.3781680000000  0.5742130000000 1.0
C      1  0.4393270000000  0.2998130000000  0.6416790000000 1.0
C      1  0.5606730000000  0.7001870000000  0.3583210000000 1.0
C      1  0.3058530000000  0.6203880000000  0.3387720000000 1.0
C      1  0.6941470000000  0.3796120000000  0.6612280000000 1.0
C      1  0.6314030000000  0.4412770000000  0.3525530000000 1.0
C      1  0.3685970000000  0.5587230000000  0.6474470000000 1.0
C      1  0.5921820000000  0.5289020000000  0.7387550000000 1.0
C      1  0.4078180000000  0.4710980000000  0.2612450000000 1.0
C      1  0.5135620000000  0.6037930000000  0.5815720000000 1.0
C      1  0.4864380000000  0.3962070000000  0.4184280000000 1.0
C      1  0.3175860000000  0.4803770000000  0.6613290000000 1.0
C      1  0.6824140000000  0.5196230000000  0.3386710000000 1.0
C      1  0.2888060000000  0.6375230000000  0.4344430000000 1.0
C      1  0.7111940000000  0.3624770000000  0.5655570000000 1.0
C      1  0.6363150000000  0.5931520000000  0.6584600000000 1.0
C      1  0.3636850000000  0.4068480000000  0.3415400000000 1.0
C      1  0.4935580000000  0.5083010000000  0.2743730000000 1.0
C      1  0.5064420000000  0.4916990000000  0.7256270000000 1.0
C      1  0.7465350000000  0.5390240000000  0.4850920000000 1.0
C      1  0.2534650000000  0.4609760000000  0.5149080000000 1.0
C      1  0.5397080000000  0.3325680000000  0.6669650000000 1.0
C      1  0.4602920000000  0.6674320000000  0.3330350000000 1.0
C      1  0.6299410000000  0.3205230000000  0.5059970000000 1.0
C      1  0.3700590000000  0.6794770000000  0.4940030000000 1.0
C      1  0.5258110000000  0.5997350000000  0.4729360000000 1.0
C      1  0.4741890000000  0.4002650000000  0.5270640000000 1.0
C      1  0.6351910000000  0.3227910000000  0.7030420000000 1.0
C      1  0.3648090000000  0.6772090000000  0.2969580000000 1.0
C      1  0.4575620000000  0.6957030000000  0.5652510000000 1.0
C      1  0.5424380000000  0.3042970000000  0.4347490000000 1.0
C      1  0.6725950000000  0.4864460000000  0.6790700000000 1.0
C      1  0.3274050000000  0.5135540000000  0.3209300000000 1.0
C      1  0.4746060000000  0.4004140000000  0.7196430000000 1.0
C      1  0.5253940000000  0.5995860000000  0.2803570000000 1.0
C      1  0.5656950000000  0.7160180000000  0.5374050000000 1.0
C      1  0.4343050000000  0.2839820000000  0.4625950000000 1.0
C      1  0.6377040000000  0.6508790000000  0.5818790000000 1.0
C      1  0.3622960000000  0.3491210000000  0.4181210000000 1.0
C      1  0.3713440000000  0.5360880000000  0.4182230000000 1.0
C      1  0.6286560000000  0.4639120000000  0.5817770000000 1.0
C      1  0.3817430000000  0.3890670000000  0.5631990000000 1.0
C      1  0.6182570000000  0.6109330000000  0.4368010000000 1.0
C      1  0.4258840000000  0.2636470000000  0.5572020000000 1.0
C      1  0.5741160000000  0.7363530000000  0.4427980000000 1.0
C      1  0.6845120000000  0.6107390000000  0.5041180000000 1.0
C      1  0.3154880000000  0.3892610000000  0.4958820000000 1.0
C      1  0.2756390000000  0.5402100000000  0.4692410000000 1.0
C      1  0.7243610000000  0.4597900000000  0.5307590000000 1.0
C      1  0.6232060000000  0.6094960000000  0.3284070000000 1.0
C      1  0.3767940000000  0.3905040000000  0.6715930000000 1.0
C      1  0.2388210000000  0.4711450000000  0.6088880000000 1.0
C      1  0.7611790000000  0.5288550000000  0.3911120000000 1.0
C      1  0.5086430000000  0.4971140000000  0.5556340000000 1.0
C      1  0.4913570000000  0.5028860000000  0.4443660000000 1.0
C      1  0.5347420000000  0.4625900000000  0.3510900000000 1.0
C      1  0.4652580000000  0.5374100000000  0.6489100000000 1.0
END
