TITL C-3036479-9801-956 3.46482585334497e-06 3375 -354.087832254632 0 0 60 (C3) n - 1
REM
REM in /home/bkarasulu/work/CARBON/AIRSS/Generating-Clusters/REBO/Higher-Symm/Only-C60
REM
REM
REM
REM
REM
REM ./C.cell (a2850807a9bf4ad07a5b6933b78d9264)
REM AIRSS Version 0.9.1 bugfix July 2018 build 013d7b7c2542+ Fri, 06 Jul 2018 19:26:36 +0100
REM compiler GCC version 9.2.1 20190827 (Red Hat 9.2.1-1)
REM options -cpp -mtune=generic -march=x86-64 -g -O0 -fpre-include=/usr/include/finclude/math-vector-fortran.h
REM seed -534732202 -1230454851 -348562534 140268919 1520235430 -1447946267 -1981205752 -1679116044 846973588 243586320 1689464248 -301290514 784819261 -891470833 1979148474 353539438 -1835258208 1425774979 1072898571 295461438 -1192264825 -275446596 1258481247 -1397464242 614334236 -394546269 791373714 -1748071684 1407763806 221943557 -1480475476 -31256633 -1558423494
REM
CELL 1.54180   15.00000   15.00000   15.00000   90.00000   90.00000   90.00000
LATT -1
SFAC C  
C      1  0.5170610000000  0.2954000000000  0.5453270000000 1.0
C      1  0.5169480000000  0.5630510000000  0.3001460000000 1.0
C      1  0.5170200000000  0.6415560000000  0.6545230000000 1.0
C      1  0.4531620000000  0.1782960000000  0.4111430000000 1.0
C      1  0.4530160000000  0.7378080000000  0.2658520000000 1.0
C      1  0.4531790000000  0.5838710000000  0.8230450000000 1.0
C      1  0.4743790000000  0.6426040000000  0.4054790000000 1.0
C      1  0.4744680000000  0.5105560000000  0.6707700000000 1.0
C      1  0.4744380000000  0.3468280000000  0.4237650000000 1.0
C      1  0.6397470000000  0.5240410000000  0.7101640000000 1.0
C      1  0.6397110000000  0.3059710000000  0.4156470000000 1.0
C      1  0.6396380000000  0.6700620000000  0.3740720000000 1.0
C      1  0.7188230000000  0.3521190000000  0.4006810000000 1.0
C      1  0.7187740000000  0.6599550000000  0.4214800000000 1.0
C      1  0.7188690000000  0.4880410000000  0.6776690000000 1.0
C      1  0.4527670000000  0.6549030000000  0.3042190000000 1.0
C      1  0.4528820000000  0.5920980000000  0.7320640000000 1.0
C      1  0.4528840000000  0.2529770000000  0.4637550000000 1.0
C      1  0.3940780000000  0.4441740000000  0.6559690000000 1.0
C      1  0.3940170000000  0.3928320000000  0.3737230000000 1.0
C      1  0.3939920000000  0.6629360000000  0.4703840000000 1.0
C      1  0.4141770000000  0.7278550000000  0.5352430000000 1.0
C      1  0.4142820000000  0.3555470000000  0.6797530000000 1.0
C      1  0.4141720000000  0.4165530000000  0.2850680000000 1.0
C      1  0.3118850000000  0.5636550000000  0.3218590000000 1.0
C      1  0.3119530000000  0.6224360000000  0.6442950000000 1.0
C      1  0.3119850000000  0.3138070000000  0.5339840000000 1.0
C      1  0.5916930000000  0.3539100000000  0.5490250000000 1.0
C      1  0.5916090000000  0.5305960000000  0.3489260000000 1.0
C      1  0.5916560000000  0.6155420000000  0.6019890000000 1.0
C      1  0.4475560000000  0.2884530000000  0.6237760000000 1.0
C      1  0.4474270000000  0.4985810000000  0.2549370000000 1.0
C      1  0.4474770000000  0.7129380000000  0.6213290000000 1.0
C      1  0.3303240000000  0.5927890000000  0.4826390000000 1.0
C      1  0.3303730000000  0.4686300000000  0.5891270000000 1.0
C      1  0.3303390000000  0.4384880000000  0.4283580000000 1.0
C      1  0.6373270000000  0.3552390000000  0.6338920000000 1.0
C      1  0.6372240000000  0.4564390000000  0.3076160000000 1.0
C      1  0.6372450000000  0.6883970000000  0.5583960000000 1.0
C      1  0.3887470000000  0.6594270000000  0.6833420000000 1.0
C      1  0.3887890000000  0.2615020000000  0.5464570000000 1.0
C      1  0.3886610000000  0.5790120000000  0.2702850000000 1.0
C      1  0.5763440000000  0.3792600000000  0.7037170000000 1.0
C      1  0.5762380000000  0.3839570000000  0.2935320000000 1.0
C      1  0.5762270000000  0.7368290000000  0.5026950000000 1.0
C      1  0.7202520000000  0.6702630000000  0.5137510000000 1.0
C      1  0.7203350000000  0.4029750000000  0.6404640000000 1.0
C      1  0.7202540000000  0.4268800000000  0.3456230000000 1.0
C      1  0.5948380000000  0.4366680000000  0.5022440000000 1.0
C      1  0.5948060000000  0.5297280000000  0.4439860000000 1.0
C      1  0.5948320000000  0.5336510000000  0.5537070000000 1.0
C      1  0.4646970000000  0.5503530000000  0.4624420000000 1.0
C      1  0.4647300000000  0.5073460000000  0.5624020000000 1.0
C      1  0.4647220000000  0.4422810000000  0.4751770000000 1.0
C      1  0.5597220000000  0.6945900000000  0.4196310000000 1.0
C      1  0.5598350000000  0.4723150000000  0.7086710000000 1.0
C      1  0.5597740000000  0.3331300000000  0.3716450000000 1.0
C      1  0.3125190000000  0.5314850000000  0.4106130000000 1.0
C      1  0.3125530000000  0.5616570000000  0.5720590000000 1.0
C      1  0.3125690000000  0.4067550000000  0.5174650000000 1.0
END
