TITL C-3036483-1610-141 2.33185940411004e-06 3375 -342.801248369112 0 0 60 (C2) n - 1
REM
REM in /home/bkarasulu/work/CARBON/AIRSS/Generating-Clusters/REBO/Higher-Symm/Only-C60
REM
REM
REM
REM
REM
REM ./C.cell (a2850807a9bf4ad07a5b6933b78d9264)
REM AIRSS Version 0.9.1 bugfix July 2018 build 013d7b7c2542+ Fri, 06 Jul 2018 19:26:36 +0100
REM compiler GCC version 9.2.1 20190827 (Red Hat 9.2.1-1)
REM options -cpp -mtune=generic -march=x86-64 -g -O0 -fpre-include=/usr/include/finclude/math-vector-fortran.h
REM seed -918199058 -1072270410 693427680 -1609702149 135043338 -299650216 -1238050113 -1774781153 574673707 -774094813 745893314 -722532184 -1186208359 916194686 1371562577 -524233076 2139928017 -1237477348 -1700283309 2096901721 1783790993 361932687 1603567670 -530130479 1835157395 -788845010 -908193268 -1636752154 -1303725755 1492557088 2108394680 -484790361 1905565116
REM
CELL 1.54180   15.00000   15.00000   15.00000   90.00000   90.00000   90.00000
LATT -1
SFAC C  
C      1  0.2654800000000  0.5363840000000  0.6198240000000 1.0
C      1  0.2654800000000  0.4636160000000  0.3801760000000 1.0
C      1  0.3479320000000  0.3557990000000  0.5872360000000 1.0
C      1  0.3479320000000  0.6442010000000  0.4127640000000 1.0
C      1  0.4902660000000  0.6445010000000  0.5104100000000 1.0
C      1  0.4902660000000  0.3554990000000  0.4895900000000 1.0
C      1  0.5278990000000  0.7170580000000  0.6143490000000 1.0
C      1  0.5278990000000  0.2829420000000  0.3856510000000 1.0
C      1  0.4485690000000  0.6880050000000  0.4143420000000 1.0
C      1  0.4485690000000  0.3119950000000  0.5856580000000 1.0
C      1  0.5660550000000  0.2703000000000  0.4866680000000 1.0
C      1  0.5660550000000  0.7297000000000  0.5133320000000 1.0
C      1  0.4423010000000  0.3484870000000  0.3868040000000 1.0
C      1  0.4423010000000  0.6515130000000  0.6131960000000 1.0
C      1  0.5943000000000  0.3821210000000  0.6688660000000 1.0
C      1  0.5943000000000  0.6178790000000  0.3311340000000 1.0
C      1  0.5387370000000  0.4458030000000  0.5162300000000 1.0
C      1  0.5387370000000  0.5541970000000  0.4837700000000 1.0
C      1  0.7247690000000  0.5457450000000  0.4879450000000 1.0
C      1  0.7247690000000  0.4542550000000  0.5120550000000 1.0
C      1  0.6991660000000  0.4009860000000  0.4383530000000 1.0
C      1  0.6991660000000  0.5990140000000  0.5616470000000 1.0
C      1  0.5541790000000  0.3056060000000  0.5951070000000 1.0
C      1  0.5541790000000  0.6943940000000  0.4048930000000 1.0
C      1  0.6179840000000  0.6207980000000  0.4591700000000 1.0
C      1  0.6179840000000  0.3792020000000  0.5408300000000 1.0
C      1  0.5887900000000  0.3057280000000  0.3208370000000 1.0
C      1  0.5887900000000  0.6942720000000  0.6791630000000 1.0
C      1  0.4019870000000  0.3408980000000  0.6833110000000 1.0
C      1  0.4019870000000  0.6591020000000  0.3166890000000 1.0
C      1  0.5248090000000  0.5479570000000  0.2931390000000 1.0
C      1  0.5248090000000  0.4520430000000  0.7068610000000 1.0
C      1  0.4296550000000  0.4188960000000  0.7288230000000 1.0
C      1  0.4296550000000  0.5811040000000  0.2711770000000 1.0
C      1  0.6734590000000  0.5598210000000  0.3879690000000 1.0
C      1  0.6734590000000  0.4401790000000  0.6120310000000 1.0
C      1  0.6384060000000  0.4557640000000  0.3773360000000 1.0
C      1  0.6384060000000  0.5442360000000  0.6226640000000 1.0
C      1  0.3463380000000  0.6885630000000  0.5924950000000 1.0
C      1  0.3463380000000  0.3114370000000  0.4075050000000 1.0
C      1  0.3688610000000  0.4542990000000  0.6158840000000 1.0
C      1  0.3688610000000  0.5457010000000  0.3841160000000 1.0
C      1  0.4307550000000  0.5149740000000  0.5512750000000 1.0
C      1  0.4307550000000  0.4850260000000  0.4487250000000 1.0
C      1  0.3045290000000  0.6526800000000  0.4983000000000 1.0
C      1  0.3045290000000  0.3473200000000  0.5017000000000 1.0
C      1  0.4382190000000  0.4155190000000  0.3054560000000 1.0
C      1  0.4382190000000  0.5844810000000  0.6945440000000 1.0
C      1  0.5304080000000  0.4927900000000  0.3929690000000 1.0
C      1  0.5304080000000  0.5072100000000  0.6070310000000 1.0
C      1  0.3790910000000  0.5065980000000  0.7020740000000 1.0
C      1  0.3790910000000  0.4934020000000  0.2979260000000 1.0
C      1  0.5238530000000  0.4426080000000  0.2700540000000 1.0
C      1  0.5238530000000  0.5573920000000  0.7299460000000 1.0
C      1  0.3377850000000  0.4235000000000  0.4255930000000 1.0
C      1  0.3377850000000  0.5765000000000  0.5744070000000 1.0
C      1  0.6663070000000  0.6896690000000  0.5347140000000 1.0
C      1  0.6663070000000  0.3103310000000  0.4652860000000 1.0
C      1  0.5991120000000  0.6022600000000  0.6984630000000 1.0
C      1  0.5991120000000  0.3977400000000  0.3015370000000 1.0
END
