TITL C-3036486-2224-258 1.85044105224959e-05 3375 -344.353224159768 0 0 60 (C1) n - 1
REM
REM in /home/bkarasulu/work/CARBON/AIRSS/Generating-Clusters/REBO/Higher-Symm/Only-C60
REM
REM
REM
REM
REM
REM ./C.cell (a2850807a9bf4ad07a5b6933b78d9264)
REM AIRSS Version 0.9.1 bugfix July 2018 build 013d7b7c2542+ Fri, 06 Jul 2018 19:26:36 +0100
REM compiler GCC version 9.2.1 20190827 (Red Hat 9.2.1-1)
REM options -cpp -mtune=generic -march=x86-64 -g -O0 -fpre-include=/usr/include/finclude/math-vector-fortran.h
REM seed 1933587067 -921058253 708385062 1563086255 1748322794 -1509457489 -2062580131 -1434513136 -1616030216 482577783 -1053794325 104434279 -650998334 998537187 -1416345644 1062886204 -1369465248 220195467 -784825411 1038857522 -901374325 1658857390 -1015673734 -1194831659 1536764810 651356699 -1533101864 1231585904 -1436543357 1847547737 -799883551 -1435046448 -1322407720
REM
CELL 1.54180   15.00000   15.00000   15.00000   90.00000   90.00000   90.00000
LATT -1
SFAC C  
C      1  0.7482280000000  0.4698760000000  0.3390890000000 1.0
C      1  0.3047370000000  0.5978670000000  0.3848470000000 1.0
C      1  0.4840320000000  0.7461910000000  0.4590740000000 1.0
C      1  0.6086970000000  0.4528820000000  0.4790690000000 1.0
C      1  0.5417860000000  0.2945510000000  0.5777120000000 1.0
C      1  0.2766110000000  0.4624730000000  0.5106350000000 1.0
C      1  0.4783810000000  0.5547680000000  0.4323770000000 1.0
C      1  0.3123280000000  0.3380980000000  0.3507930000000 1.0
C      1  0.5300990000000  0.2917560000000  0.4649390000000 1.0
C      1  0.7058970000000  0.3479720000000  0.4407440000000 1.0
C      1  0.5292370000000  0.3823380000000  0.7097050000000 1.0
C      1  0.5362870000000  0.6826410000000  0.3963200000000 1.0
C      1  0.6486250000000  0.5933780000000  0.5932400000000 1.0
C      1  0.5283730000000  0.6267900000000  0.3216180000000 1.0
C      1  0.3648590000000  0.4906660000000  0.4563260000000 1.0
C      1  0.6111520000000  0.5565170000000  0.3073870000000 1.0
C      1  0.3680780000000  0.3244860000000  0.4385660000000 1.0
C      1  0.4787690000000  0.4365510000000  0.3582100000000 1.0
C      1  0.5315660000000  0.5299760000000  0.5989880000000 1.0
C      1  0.3182210000000  0.6869790000000  0.5305100000000 1.0
C      1  0.3802660000000  0.6195500000000  0.5888070000000 1.0
C      1  0.7048860000000  0.3704570000000  0.5449300000000 1.0
C      1  0.6876050000000  0.4227920000000  0.6149730000000 1.0
C      1  0.4367300000000  0.4800740000000  0.7208030000000 1.0
C      1  0.2468170000000  0.5508620000000  0.4460250000000 1.0
C      1  0.3109290000000  0.3078140000000  0.5917790000000 1.0
C      1  0.3915980000000  0.4437960000000  0.6360180000000 1.0
C      1  0.4718880000000  0.6482940000000  0.5878570000000 1.0
C      1  0.5674400000000  0.4044270000000  0.5602310000000 1.0
C      1  0.2641430000000  0.3635740000000  0.5358110000000 1.0
C      1  0.4331220000000  0.3140300000000  0.5041920000000 1.0
C      1  0.5629220000000  0.5059470000000  0.3938000000000 1.0
C      1  0.4611580000000  0.4001640000000  0.5565090000000 1.0
C      1  0.6998960000000  0.5908500000000  0.4361620000000 1.0
C      1  0.5918530000000  0.4513160000000  0.6541930000000 1.0
C      1  0.6217380000000  0.6525480000000  0.4598200000000 1.0
C      1  0.7001240000000  0.3889450000000  0.3560770000000 1.0
C      1  0.3951610000000  0.5482400000000  0.3617230000000 1.0
C      1  0.6642370000000  0.5384390000000  0.5132920000000 1.0
C      1  0.4480770000000  0.5030150000000  0.5267020000000 1.0
C      1  0.6006200000000  0.6809560000000  0.5966400000000 1.0
C      1  0.6722720000000  0.5567800000000  0.6736950000000 1.0
C      1  0.7041170000000  0.5533750000000  0.3505050000000 1.0
C      1  0.5703180000000  0.7313900000000  0.5147330000000 1.0
C      1  0.6086100000000  0.3889730000000  0.3193410000000 1.0
C      1  0.3863510000000  0.4174690000000  0.3848040000000 1.0
C      1  0.5264260000000  0.6849320000000  0.6662350000000 1.0
C      1  0.2647160000000  0.5904830000000  0.5409200000000 1.0
C      1  0.3922760000000  0.7439360000000  0.4661270000000 1.0
C      1  0.6325180000000  0.2951460000000  0.5090860000000 1.0
C      1  0.3333520000000  0.5162210000000  0.5930980000000 1.0
C      1  0.5043200000000  0.5376940000000  0.7039140000000 1.0
C      1  0.3190260000000  0.6852010000000  0.4176670000000 1.0
C      1  0.4823240000000  0.3181010000000  0.6593110000000 1.0
C      1  0.5239190000000  0.6231920000000  0.7378130000000 1.0
C      1  0.5727910000000  0.4623980000000  0.2683600000000 1.0
C      1  0.4821800000000  0.5281700000000  0.2910730000000 1.0
C      1  0.3857990000000  0.3350090000000  0.6434560000000 1.0
C      1  0.5335420000000  0.6033850000000  0.5118280000000 1.0
C      1  0.5579680000000  0.3752970000000  0.4115410000000 1.0
END
