TITL C-3036483-1610-1086 2.90473181241415e-07 3375 -353.47963696241 0 0 60 (C1) n - 1
REM
REM in /home/bkarasulu/work/CARBON/AIRSS/Generating-Clusters/REBO/Higher-Symm/Only-C60
REM
REM
REM
REM
REM
REM ./C.cell (a2850807a9bf4ad07a5b6933b78d9264)
REM AIRSS Version 0.9.1 bugfix July 2018 build 013d7b7c2542+ Fri, 06 Jul 2018 19:26:36 +0100
REM compiler GCC version 9.2.1 20190827 (Red Hat 9.2.1-1)
REM options -cpp -mtune=generic -march=x86-64 -g -O0 -fpre-include=/usr/include/finclude/math-vector-fortran.h
REM seed -117493758 -1851303592 -136176613 -1363383147 -2147094400 -1276102372 990232710 864047396 116024034 1326639366 921038906 -52092687 -875108217 -471226486 -1436097133 -943581797 -1185169000 -138030648 883250031 -683164466 1934816556 -1991045104 -1177954168 -613292152 -77979513 112644819 -870797238 1605446567 -1658224621 1459702684 110398479 -422300037 -49168602
REM
CELL 1.54180   15.00000   15.00000   15.00000   90.00000   90.00000   90.00000
LATT -1
SFAC C  
C      1  0.7171260000000  0.4647560000000  0.4343140000000 1.0
C      1  0.4318450000000  0.7142780000000  0.4615210000000 1.0
C      1  0.4601850000000  0.4348910000000  0.7042530000000 1.0
C      1  0.2822190000000  0.4666520000000  0.5650990000000 1.0
C      1  0.7151720000000  0.5476560000000  0.5676480000000 1.0
C      1  0.2765340000000  0.5494540000000  0.4330920000000 1.0
C      1  0.5659470000000  0.7139330000000  0.5430800000000 1.0
C      1  0.4341450000000  0.2839380000000  0.5147410000000 1.0
C      1  0.6009770000000  0.2275720000000  0.4590180000000 1.0
C      1  0.5351270000000  0.4278870000000  0.2998470000000 1.0
C      1  0.4551580000000  0.5638010000000  0.2970770000000 1.0
C      1  0.5421940000000  0.5681120000000  0.7086830000000 1.0
C      1  0.7164970000000  0.5470520000000  0.4345330000000 1.0
C      1  0.4392880000000  0.2722640000000  0.4244260000000 1.0
C      1  0.4599010000000  0.5679350000000  0.7074340000000 1.0
C      1  0.2836800000000  0.5489090000000  0.5660250000000 1.0
C      1  0.7155620000000  0.4655220000000  0.5673930000000 1.0
C      1  0.2737740000000  0.4672320000000  0.4322720000000 1.0
C      1  0.5907600000000  0.2337040000000  0.5499900000000 1.0
C      1  0.4328720000000  0.7156980000000  0.5437540000000 1.0
C      1  0.5649150000000  0.7126700000000  0.4608560000000 1.0
C      1  0.5372280000000  0.5610210000000  0.2980250000000 1.0
C      1  0.4526250000000  0.4307130000000  0.2981740000000 1.0
C      1  0.5421670000000  0.4350590000000  0.7062610000000 1.0
C      1  0.3615870000000  0.3911790000000  0.6880170000000 1.0
C      1  0.7055910000000  0.3626590000000  0.3952450000000 1.0
C      1  0.3871900000000  0.7013130000000  0.3623110000000 1.0
C      1  0.6351260000000  0.3840610000000  0.3131070000000 1.0
C      1  0.3558940000000  0.6099060000000  0.3069750000000 1.0
C      1  0.6425580000000  0.6119840000000  0.6990970000000 1.0
C      1  0.2969800000000  0.3639260000000  0.6030130000000 1.0
C      1  0.7007500000000  0.6478050000000  0.6102850000000 1.0
C      1  0.2926870000000  0.6499650000000  0.3906240000000 1.0
C      1  0.6100560000000  0.7032880000000  0.6432960000000 1.0
C      1  0.3956520000000  0.3142200000000  0.6132450000000 1.0
C      1  0.6279360000000  0.2900160000000  0.3712460000000 1.0
C      1  0.3601290000000  0.6115610000000  0.6951110000000 1.0
C      1  0.7021660000000  0.6477860000000  0.3915830000000 1.0
C      1  0.3690840000000  0.3020030000000  0.3724330000000 1.0
C      1  0.6375760000000  0.6035170000000  0.3108750000000 1.0
C      1  0.3502330000000  0.3910490000000  0.3081310000000 1.0
C      1  0.6410220000000  0.3911750000000  0.6950830000000 1.0
C      1  0.3015820000000  0.6490050000000  0.6077860000000 1.0
C      1  0.7021270000000  0.3643800000000  0.6076970000000 1.0
C      1  0.2815350000000  0.3647900000000  0.3924820000000 1.0
C      1  0.6118890000000  0.3054250000000  0.6297500000000 1.0
C      1  0.3901160000000  0.7059980000000  0.6447870000000 1.0
C      1  0.6081260000000  0.6985010000000  0.3611620000000 1.0
C      1  0.7324840000000  0.3747070000000  0.5016610000000 1.0
C      1  0.4980130000000  0.7239190000000  0.3698170000000 1.0
C      1  0.3686800000000  0.5008210000000  0.7161250000000 1.0
C      1  0.2585520000000  0.3771400000000  0.4996700000000 1.0
C      1  0.7294830000000  0.6383530000000  0.5010160000000 1.0
C      1  0.2671350000000  0.6402730000000  0.5006380000000 1.0
C      1  0.5001570000000  0.7283950000000  0.6343950000000 1.0
C      1  0.5042350000000  0.2836420000000  0.6018010000000 1.0
C      1  0.5242800000000  0.2526320000000  0.3907570000000 1.0
C      1  0.6272670000000  0.4932590000000  0.2879570000000 1.0
C      1  0.3631350000000  0.4994230000000  0.2839620000000 1.0
C      1  0.6330890000000  0.5012180000000  0.7213430000000 1.0
END
