TITL C-3036484-3770-584 0.039443100271474 3375 -334.1823844524 0 0 60 (C1) n - 1
REM
REM in /home/bkarasulu/work/CARBON/AIRSS/Generating-Clusters/REBO/Higher-Symm/Only-C60
REM
REM
REM
REM
REM
REM ./C.cell (a2850807a9bf4ad07a5b6933b78d9264)
REM AIRSS Version 0.9.1 bugfix July 2018 build 013d7b7c2542+ Fri, 06 Jul 2018 19:26:36 +0100
REM compiler GCC version 9.2.1 20190827 (Red Hat 9.2.1-1)
REM options -cpp -mtune=generic -march=x86-64 -g -O0 -fpre-include=/usr/include/finclude/math-vector-fortran.h
REM seed -79907425 -1176807808 -1888035704 2014071340 -433588643 -111820514 -1639176707 940792610 -493442841 1176264174 1883923318 -2049501721 -1632962477 -602057668 -1011326476 1185281889 -1128991652 -262264212 1230970251 -804089486 -598344466 -1486666034 251040158 910225006 -443149137 -505173597 -340798846 339791235 -1576133472 -2120698292 -1095250205 668642231 -625719635
REM
CELL 1.54180   15.00000   15.00000   15.00000   90.00000   90.00000   90.00000
LATT -1
SFAC C  
C      1  0.5616240000000  0.4044700000000  0.2433200000000 1.0
C      1  0.5280760000000  0.5833640000000  0.5391230000000 1.0
C      1  0.3117930000000  0.5298020000000  0.3773480000000 1.0
C      1  0.7671470000000  0.6170840000000  0.3936400000000 1.0
C      1  0.3977490000000  0.4616170000000  0.3446320000000 1.0
C      1  0.5623350000000  0.7189690000000  0.4647720000000 1.0
C      1  0.4751330000000  0.3923880000000  0.1849120000000 1.0
C      1  0.6504300000000  0.6267470000000  0.5679350000000 1.0
C      1  0.6453340000000  0.4295380000000  0.2779640000000 1.0
C      1  0.3472900000000  0.7149020000000  0.5149750000000 1.0
C      1  0.8350330000000  0.4542270000000  0.4323440000000 1.0
C      1  0.7191680000000  0.5933100000000  0.7185100000000 1.0
C      1  0.2924940000000  0.6484630000000  0.5728180000000 1.0
C      1  0.2838780000000  0.5583110000000  0.5426050000000 1.0
C      1  0.5595660000000  0.4281640000000  0.6943510000000 1.0
C      1  0.5346980000000  0.3144950000000  0.4786890000000 1.0
C      1  0.4881740000000  0.3196560000000  0.3747710000000 1.0
C      1  0.4396940000000  0.5717660000000  0.6497860000000 1.0
C      1  0.3786510000000  0.5263280000000  0.5760170000000 1.0
C      1  0.7337060000000  0.4546300000000  0.4332940000000 1.0
C      1  0.3037260000000  0.4150860000000  0.3857730000000 1.0
C      1  0.6194320000000  0.5868960000000  0.4715580000000 1.0
C      1  0.5862170000000  0.7018360000000  0.5536720000000 1.0
C      1  0.6587320000000  0.5648430000000  0.6550030000000 1.0
C      1  0.5518050000000  0.4846220000000  0.3546910000000 1.0
C      1  0.5221470000000  0.6094570000000  0.7605130000000 1.0
C      1  0.2905610000000  0.3757750000000  0.5680730000000 1.0
C      1  0.4977390000000  0.5088590000000  0.7251890000000 1.0
C      1  0.5313950000000  0.6251630000000  0.4120250000000 1.0
C      1  0.5285020000000  0.6734070000000  0.7071330000000 1.0
C      1  0.4079290000000  0.5990550000000  0.3165480000000 1.0
C      1  0.3690430000000  0.3157700000000  0.5610910000000 1.0
C      1  0.6381490000000  0.4588830000000  0.6548430000000 1.0
C      1  0.6341800000000  0.3195830000000  0.4636550000000 1.0
C      1  0.5049300000000  0.6802020000000  0.6095690000000 1.0
C      1  0.5100660000000  0.3439710000000  0.6870340000000 1.0
C      1  0.3756330000000  0.3346350000000  0.3783510000000 1.0
C      1  0.4028080000000  0.4342570000000  0.6691350000000 1.0
C      1  0.4215910000000  0.3602870000000  0.7364570000000 1.0
C      1  0.6747260000000  0.3780530000000  0.3749710000000 1.0
C      1  0.3995110000000  0.6674920000000  0.6036980000000 1.0
C      1  0.6397130000000  0.5239900000000  0.3257610000000 1.0
C      1  0.4684210000000  0.7174110000000  0.4142000000000 1.0
C      1  0.4053220000000  0.3429520000000  0.4745910000000 1.0
C      1  0.2576090000000  0.5077430000000  0.4686830000000 1.0
C      1  0.2546540000000  0.4075890000000  0.4838150000000 1.0
C      1  0.4826700000000  0.3182140000000  0.5797090000000 1.0
C      1  0.6876350000000  0.4084750000000  0.5954440000000 1.0
C      1  0.3136220000000  0.4485310000000  0.6263970000000 1.0
C      1  0.4818410000000  0.4150880000000  0.4891210000000 1.0
C      1  0.4694740000000  0.5389500000000  0.3879340000000 1.0
C      1  0.4604250000000  0.3962310000000  0.2973080000000 1.0
C      1  0.6935400000000  0.3886030000000  0.5059320000000 1.0
C      1  0.4682250000000  0.4308920000000  0.5973290000000 1.0
C      1  0.4529630000000  0.5191170000000  0.4986790000000 1.0
C      1  0.5529090000000  0.5602380000000  0.6405420000000 1.0
C      1  0.5659040000000  0.3944180000000  0.3779990000000 1.0
C      1  0.6930040000000  0.5489900000000  0.4107310000000 1.0
C      1  0.3366220000000  0.6390140000000  0.3690700000000 1.0
C      1  0.3746510000000  0.7071910000000  0.4259660000000 1.0
END
