TITL C-3036479-9801-1048 0.00910286277739602 3375 -355.154056936454 0 0 60 (C1) n - 1
REM
REM in /home/bkarasulu/work/CARBON/AIRSS/Generating-Clusters/REBO/Higher-Symm/Only-C60
REM
REM
REM
REM
REM
REM ./C.cell (a2850807a9bf4ad07a5b6933b78d9264)
REM AIRSS Version 0.9.1 bugfix July 2018 build 013d7b7c2542+ Fri, 06 Jul 2018 19:26:36 +0100
REM compiler GCC version 9.2.1 20190827 (Red Hat 9.2.1-1)
REM options -cpp -mtune=generic -march=x86-64 -g -O0 -fpre-include=/usr/include/finclude/math-vector-fortran.h
REM seed 1676563778 110036158 -1427036706 365677100 -491498941 1444803323 -632200107 2109534818 2056096643 -613309717 -272627215 1863695311 -188913916 -1027538935 586369575 -1726977750 -980069006 1234761850 -411147796 273052489 -1753628827 -643237218 -1730974899 1921594859 1207896509 1462935133 -1249471731 -497638730 -1464780505 -8099515 87060997 1871044592 378900223
REM
CELL 1.54180   15.00000   15.00000   15.00000   90.00000   90.00000   90.00000
LATT -1
SFAC C  
C      1  0.6934550000000  0.4229520000000  0.4940570000000 1.0
C      1  0.5723070000000  0.4221480000000  0.6764480000000 1.0
C      1  0.3551450000000  0.4242550000000  0.6203860000000 1.0
C      1  0.3346350000000  0.4238270000000  0.3905580000000 1.0
C      1  0.5434670000000  0.4180740000000  0.3160400000000 1.0
C      1  0.5887310000000  0.6626840000000  0.6403660000000 1.0
C      1  0.3952620000000  0.6604300000000  0.6299010000000 1.0
C      1  0.3447100000000  0.6625020000000  0.4406480000000 1.0
C      1  0.5114140000000  0.6623020000000  0.3336760000000 1.0
C      1  0.6605750000000  0.6615310000000  0.4558480000000 1.0
C      1  0.3614390000000  0.5732870000000  0.3762950000000 1.0
C      1  0.5736230000000  0.5687320000000  0.3300960000000 1.0
C      1  0.6852000000000  0.5728590000000  0.5186010000000 1.0
C      1  0.5416060000000  0.5693310000000  0.6801950000000 1.0
C      1  0.3422890000000  0.5678950000000  0.5950220000000 1.0
C      1  0.4352110000000  0.4371730000000  0.5554650000000 1.0
C      1  0.4193990000000  0.4172920000000  0.4589690000000 1.0
C      1  0.5138250000000  0.4284260000000  0.4188070000000 1.0
C      1  0.5846040000000  0.4193280000000  0.4886900000000 1.0
C      1  0.5316880000000  0.4306240000000  0.5765230000000 1.0
C      1  0.6915700000000  0.3332700000000  0.5647530000000 1.0
C      1  0.4981030000000  0.3341330000000  0.6609630000000 1.0
C      1  0.3512890000000  0.3340450000000  0.5465010000000 1.0
C      1  0.3785590000000  0.3331480000000  0.3377040000000 1.0
C      1  0.5916490000000  0.3306220000000  0.3752690000000 1.0
C      1  0.4758290000000  0.4659400000000  0.2633300000000 1.0
C      1  0.7179580000000  0.4621750000000  0.4074680000000 1.0
C      1  0.6584210000000  0.4680140000000  0.6782150000000 1.0
C      1  0.3811640000000  0.4624570000000  0.7060710000000 1.0
C      1  0.2650530000000  0.4645550000000  0.4467150000000 1.0
C      1  0.7200700000000  0.5754520000000  0.4113940000000 1.0
C      1  0.6531580000000  0.5810030000000  0.6855090000000 1.0
C      1  0.3750660000000  0.5756250000000  0.7028360000000 1.0
C      1  0.2697140000000  0.5772760000000  0.4425650000000 1.0
C      1  0.4862560000000  0.5788970000000  0.2609140000000 1.0
C      1  0.4160650000000  0.3058970000000  0.6200920000000 1.0
C      1  0.3850210000000  0.3104500000000  0.4489710000000 1.0
C      1  0.4786420000000  0.3242460000000  0.3844320000000 1.0
C      1  0.6215980000000  0.3119800000000  0.4779580000000 1.0
C      1  0.5814530000000  0.3268900000000  0.5843030000000 1.0
C      1  0.4485060000000  0.7058830000000  0.5668370000000 1.0
C      1  0.4209600000000  0.7068150000000  0.4720510000000 1.0
C      1  0.5025490000000  0.7065430000000  0.4158910000000 1.0
C      1  0.5805730000000  0.7065950000000  0.4761410000000 1.0
C      1  0.5471220000000  0.7063430000000  0.5691700000000 1.0
C      1  0.5177900000000  0.5687740000000  0.5778310000000 1.0
C      1  0.4317530000000  0.5693270000000  0.5398630000000 1.0
C      1  0.4406170000000  0.5701600000000  0.4463130000000 1.0
C      1  0.5324830000000  0.5691500000000  0.4265230000000 1.0
C      1  0.5801890000000  0.5688300000000  0.5076450000000 1.0
C      1  0.4711620000000  0.5288550000000  0.7316140000000 1.0
C      1  0.2724710000000  0.5279850000000  0.5420770000000 1.0
C      1  0.3892060000000  0.5371440000000  0.2914860000000 1.0
C      1  0.6601370000000  0.5263610000000  0.3321570000000 1.0
C      1  0.7128160000000  0.5378620000000  0.6038160000000 1.0
C      1  0.3722820000000  0.4284160000000  0.2835290000000 1.0
C      1  0.6545160000000  0.4132420000000  0.3288780000000 1.0
C      1  0.7294350000000  0.4289340000000  0.6016080000000 1.0
C      1  0.4790270000000  0.4163650000000  0.7370780000000 1.0
C      1  0.2711810000000  0.4146880000000  0.5469390000000 1.0
END
