TITL C-3036482-790-451 -9.66734568937486e-06 3375 -352.593907644736 0 0 60 (C2) n - 1
REM
REM in /home/bkarasulu/work/CARBON/AIRSS/Generating-Clusters/REBO/Higher-Symm/Only-C60
REM
REM
REM
REM
REM
REM ./C.cell (a2850807a9bf4ad07a5b6933b78d9264)
REM AIRSS Version 0.9.1 bugfix July 2018 build 013d7b7c2542+ Fri, 06 Jul 2018 19:26:36 +0100
REM compiler GCC version 9.2.1 20190827 (Red Hat 9.2.1-1)
REM options -cpp -mtune=generic -march=x86-64 -g -O0 -fpre-include=/usr/include/finclude/math-vector-fortran.h
REM seed 1794047061 -434892138 989112881 869839333 -340915731 799485636 -459976657 -1597242510 780476543 598784799 1077741669 -1345412947 -2036145336 -840442545 -1712179498 439311423 -1455935708 -112808805 -1329178113 701049251 -2107662514 -186604732 -175725933 418369320 2076990475 -32136683 72470025 -1987921257 46821655 -1816877781 80445149 48685024 736768891
REM
CELL 1.54180   15.00000   15.00000   15.00000   90.00000   90.00000   90.00000
LATT -1
SFAC C  
C      1  0.5935620000000  0.6029120000000  0.7475360000000 1.0
C      1  0.5935230000000  0.3971030000000  0.2524430000000 1.0
C      1  0.6066610000000  0.4136580000000  0.7424760000000 1.0
C      1  0.6065930000000  0.5863590000000  0.2575000000000 1.0
C      1  0.7164360000000  0.4546980000000  0.4058590000000 1.0
C      1  0.7164500000000  0.5453360000000  0.5940930000000 1.0
C      1  0.7243190000000  0.5628920000000  0.4102450000000 1.0
C      1  0.7243490000000  0.4371440000000  0.5897050000000 1.0
C      1  0.5259150000000  0.5460840000000  0.5805730000000 1.0
C      1  0.5259040000000  0.4539200000000  0.4194210000000 1.0
C      1  0.5265690000000  0.4516900000000  0.5826870000000 1.0
C      1  0.5265430000000  0.5483140000000  0.4173070000000 1.0
C      1  0.3823700000000  0.6166660000000  0.6126170000000 1.0
C      1  0.3823630000000  0.3833150000000  0.3874100000000 1.0
C      1  0.3849790000000  0.3762930000000  0.6140210000000 1.0
C      1  0.3849330000000  0.6236890000000  0.3860050000000 1.0
C      1  0.4072670000000  0.2196370000000  0.2071110000000 1.0
C      1  0.4072880000000  0.7803480000000  0.7929100000000 1.0
C      1  0.4157590000000  0.7862450000000  0.2054710000000 1.0
C      1  0.4158700000000  0.2137410000000  0.7945480000000 1.0
C      1  0.6296040000000  0.4328590000000  0.3388830000000 1.0
C      1  0.6296290000000  0.5671620000000  0.6610880000000 1.0
C      1  0.6374200000000  0.5421530000000  0.3439060000000 1.0
C      1  0.6374620000000  0.4578690000000  0.6560640000000 1.0
C      1  0.7986720000000  0.5998990000000  0.4669790000000 1.0
C      1  0.7986960000000  0.4001490000000  0.5329540000000 1.0
C      1  0.7960000000000  0.4079940000000  0.4492030000000 1.0
C      1  0.7959960000000  0.5920540000000  0.5507310000000 1.0
C      1  0.4153130000000  0.2899030000000  0.7517640000000 1.0
C      1  0.4152240000000  0.7100840000000  0.2482550000000 1.0
C      1  0.4090630000000  0.7040580000000  0.7503880000000 1.0
C      1  0.4090390000000  0.2959270000000  0.2496320000000 1.0
C      1  0.5690360000000  0.4495640000000  0.1818550000000 1.0
C      1  0.5690990000000  0.5504470000000  0.8181290000000 1.0
C      1  0.5755100000000  0.5412480000000  0.1845170000000 1.0
C      1  0.5755870000000  0.4587640000000  0.8154660000000 1.0
C      1  0.6200910000000  0.5850050000000  0.5489650000000 1.0
C      1  0.6200940000000  0.4150140000000  0.4510080000000 1.0
C      1  0.6213200000000  0.4138750000000  0.5514650000000 1.0
C      1  0.6212950000000  0.5861440000000  0.4485080000000 1.0
C      1  0.4477500000000  0.5923840000000  0.5472930000000 1.0
C      1  0.4477550000000  0.4076080000000  0.4527190000000 1.0
C      1  0.4486090000000  0.4051260000000  0.5487930000000 1.0
C      1  0.4485830000000  0.5948650000000  0.4512190000000 1.0
C      1  0.2912340000000  0.3967720000000  0.4054330000000 1.0
C      1  0.2912390000000  0.6031950000000  0.5946130000000 1.0
C      1  0.2927270000000  0.6154510000000  0.4024030000000 1.0
C      1  0.2927670000000  0.3845160000000  0.5976430000000 1.0
C      1  0.4109520000000  0.6229100000000  0.7051590000000 1.0
C      1  0.4109250000000  0.3770760000000  0.2948610000000 1.0
C      1  0.4147220000000  0.3709040000000  0.7062610000000 1.0
C      1  0.4146560000000  0.6290830000000  0.2937580000000 1.0
C      1  0.4352530000000  0.5421160000000  0.7457380000000 1.0
C      1  0.4352050000000  0.4578740000000  0.2542770000000 1.0
C      1  0.4368670000000  0.4525730000000  0.7463630000000 1.0
C      1  0.4368040000000  0.5474170000000  0.2536510000000 1.0
C      1  0.2323580000000  0.4422100000000  0.5565980000000 1.0
C      1  0.2323360000000  0.5577470000000  0.4434610000000 1.0
C      1  0.2337300000000  0.5467630000000  0.5471200000000 1.0
C      1  0.2337270000000  0.4531940000000  0.4529390000000 1.0
END
