TITL C-3036483-1610-639 7.93593454770765e-06 3375 -337.932940102754 0 0 60 (C1) n - 1
REM
REM in /home/bkarasulu/work/CARBON/AIRSS/Generating-Clusters/REBO/Higher-Symm/Only-C60
REM
REM
REM
REM
REM
REM ./C.cell (a2850807a9bf4ad07a5b6933b78d9264)
REM AIRSS Version 0.9.1 bugfix July 2018 build 013d7b7c2542+ Fri, 06 Jul 2018 19:26:36 +0100
REM compiler GCC version 9.2.1 20190827 (Red Hat 9.2.1-1)
REM options -cpp -mtune=generic -march=x86-64 -g -O0 -fpre-include=/usr/include/finclude/math-vector-fortran.h
REM seed 1694153302 -1107545456 -1164637125 1514158344 -1613457911 -1467573816 1659651928 -1613290579 308480543 -1481416648 352855390 -1844734325 1994306969 1900373637 931984393 -968758629 668524056 -1345084840 838945602 657784320 2051713031 -581665795 1006955152 -1388097362 -1503580203 1906205190 -1262802840 770947492 574862404 1947340126 -1596323102 -1520706663 -351780955
REM
CELL 1.54180   15.00000   15.00000   15.00000   90.00000   90.00000   90.00000
LATT -1
SFAC C  
C      1  0.5432650000000  0.7133620000000  0.3527000000000 1.0
C      1  0.6415510000000  0.4448210000000  0.6786670000000 1.0
C      1  0.5215690000000  0.6503720000000  0.6388830000000 1.0
C      1  0.5987060000000  0.3556240000000  0.3928290000000 1.0
C      1  0.4488500000000  0.7417270000000  0.3611240000000 1.0
C      1  0.4719860000000  0.3618070000000  0.3220750000000 1.0
C      1  0.4135600000000  0.5265440000000  0.7446090000000 1.0
C      1  0.5029000000000  0.3470940000000  0.6307120000000 1.0
C      1  0.7368030000000  0.3271610000000  0.6100240000000 1.0
C      1  0.6126590000000  0.7631850000000  0.4075800000000 1.0
C      1  0.5060150000000  0.4451730000000  0.2285320000000 1.0
C      1  0.2874610000000  0.5703310000000  0.6490400000000 1.0
C      1  0.6848470000000  0.7034800000000  0.4547610000000 1.0
C      1  0.3377190000000  0.2846150000000  0.4321720000000 1.0
C      1  0.5387050000000  0.2964280000000  0.4692720000000 1.0
C      1  0.2304110000000  0.5507890000000  0.5561690000000 1.0
C      1  0.6935730000000  0.4623040000000  0.5232360000000 1.0
C      1  0.4653600000000  0.4898170000000  0.6031410000000 1.0
C      1  0.5224160000000  0.5076950000000  0.5199460000000 1.0
C      1  0.6918450000000  0.4167000000000  0.4194560000000 1.0
C      1  0.5645730000000  0.5796820000000  0.5898920000000 1.0
C      1  0.5748320000000  0.4229620000000  0.4813280000000 1.0
C      1  0.6433170000000  0.6052390000000  0.4438070000000 1.0
C      1  0.3653850000000  0.5107690000000  0.4160110000000 1.0
C      1  0.5564350000000  0.6125910000000  0.3710740000000 1.0
C      1  0.4036170000000  0.3661240000000  0.5130780000000 1.0
C      1  0.5576060000000  0.6992200000000  0.4840700000000 1.0
C      1  0.3264700000000  0.5121500000000  0.5095970000000 1.0
C      1  0.6611710000000  0.4384350000000  0.3121320000000 1.0
C      1  0.5884210000000  0.5173980000000  0.7053430000000 1.0
C      1  0.3459500000000  0.2793960000000  0.5532840000000 1.0
C      1  0.3093960000000  0.3550370000000  0.3845230000000 1.0
C      1  0.4514120000000  0.5347470000000  0.2801550000000 1.0
C      1  0.5773180000000  0.3458540000000  0.5604870000000 1.0
C      1  0.6481020000000  0.5490000000000  0.5350500000000 1.0
C      1  0.5742080000000  0.3769410000000  0.2842320000000 1.0
C      1  0.4590750000000  0.4708900000000  0.4448580000000 1.0
C      1  0.4008860000000  0.6712800000000  0.5306480000000 1.0
C      1  0.3021610000000  0.3098500000000  0.6333910000000 1.0
C      1  0.5505000000000  0.5452780000000  0.2329880000000 1.0
C      1  0.3287160000000  0.5063200000000  0.7035930000000 1.0
C      1  0.3792160000000  0.4463040000000  0.5682060000000 1.0
C      1  0.6431100000000  0.6808980000000  0.5531920000000 1.0
C      1  0.4293580000000  0.3642340000000  0.6604280000000 1.0
C      1  0.4606200000000  0.6688930000000  0.4473880000000 1.0
C      1  0.6184990000000  0.5033060000000  0.4142070000000 1.0
C      1  0.6686970000000  0.3899100000000  0.5943940000000 1.0
C      1  0.6752540000000  0.6406840000000  0.6317180000000 1.0
C      1  0.4482910000000  0.5791950000000  0.3787840000000 1.0
C      1  0.6268560000000  0.6066630000000  0.7075880000000 1.0
C      1  0.4911800000000  0.5115490000000  0.6905720000000 1.0
C      1  0.6210450000000  0.5435710000000  0.3081580000000 1.0
C      1  0.4690610000000  0.3696210000000  0.4205780000000 1.0
C      1  0.5556260000000  0.6738350000000  0.7327810000000 1.0
C      1  0.4036680000000  0.4340930000000  0.2767460000000 1.0
C      1  0.3296070000000  0.4124130000000  0.6607430000000 1.0
C      1  0.4479270000000  0.6962110000000  0.6041620000000 1.0
C      1  0.4352300000000  0.2586360000000  0.4845710000000 1.0
C      1  0.3328920000000  0.4361150000000  0.3506840000000 1.0
C      1  0.3241100000000  0.6156790000000  0.5506300000000 1.0
END
