TITL C-3036482-790-747 -2.67726691597545e-07 3375 -340.643574204335 0 0 60 (C1) n - 1
REM
REM in /home/bkarasulu/work/CARBON/AIRSS/Generating-Clusters/REBO/Higher-Symm/Only-C60
REM
REM
REM
REM
REM
REM ./C.cell (a2850807a9bf4ad07a5b6933b78d9264)
REM AIRSS Version 0.9.1 bugfix July 2018 build 013d7b7c2542+ Fri, 06 Jul 2018 19:26:36 +0100
REM compiler GCC version 9.2.1 20190827 (Red Hat 9.2.1-1)
REM options -cpp -mtune=generic -march=x86-64 -g -O0 -fpre-include=/usr/include/finclude/math-vector-fortran.h
REM seed 1513143139 1723152938 282901183 -1338414789 1678243721 813650241 -1270615097 -1558763282 397414917 -1364029490 1935286171 1864665619 -427982845 -716975370 -184399154 -1874500963 -1706835614 1171408263 2011950385 407109060 -1690313190 1714477041 -1257802461 915052905 -1182225018 240834848 1282874039 -447879752 -1767859531 -119432590 -1186173021 -449351506 -676079580
REM
CELL 1.54180   15.00000   15.00000   15.00000   90.00000   90.00000   90.00000
LATT -1
SFAC C  
C      1  0.6993960000000  0.5992880000000  0.3893490000000 1.0
C      1  0.4862990000000  0.2754870000000  0.4040480000000 1.0
C      1  0.3090270000000  0.6257320000000  0.4041650000000 1.0
C      1  0.3027870000000  0.4928250000000  0.5949150000000 1.0
C      1  0.5721400000000  0.6702310000000  0.5772560000000 1.0
C      1  0.6253960000000  0.3313220000000  0.5797020000000 1.0
C      1  0.6645980000000  0.5410550000000  0.3095600000000 1.0
C      1  0.4622990000000  0.3391680000000  0.3274060000000 1.0
C      1  0.3836460000000  0.6166180000000  0.3310980000000 1.0
C      1  0.6796630000000  0.5093980000000  0.4384530000000 1.0
C      1  0.4034720000000  0.3061860000000  0.4556280000000 1.0
C      1  0.3841500000000  0.6708990000000  0.4587890000000 1.0
C      1  0.7293560000000  0.4254490000000  0.4172980000000 1.0
C      1  0.3175240000000  0.3165380000000  0.4017740000000 1.0
C      1  0.4445750000000  0.7416260000000  0.4228580000000 1.0
C      1  0.3761950000000  0.3791070000000  0.3479700000000 1.0
C      1  0.4601090000000  0.6747100000000  0.3499290000000 1.0
C      1  0.6825740000000  0.4437470000000  0.3237210000000 1.0
C      1  0.4906670000000  0.5796130000000  0.6789140000000 1.0
C      1  0.6103620000000  0.4205640000000  0.6768070000000 1.0
C      1  0.3957610000000  0.4470610000000  0.6773280000000 1.0
C      1  0.5205370000000  0.6473780000000  0.4782500000000 1.0
C      1  0.6199710000000  0.4011870000000  0.4889750000000 1.0
C      1  0.3529710000000  0.4624910000000  0.4968550000000 1.0
C      1  0.4977220000000  0.3159070000000  0.5482370000000 1.0
C      1  0.3380010000000  0.6179010000000  0.5703010000000 1.0
C      1  0.6662280000000  0.5818770000000  0.5465320000000 1.0
C      1  0.4349940000000  0.3531960000000  0.6350980000000 1.0
C      1  0.4186270000000  0.6508600000000  0.6430250000000 1.0
C      1  0.6487040000000  0.5131810000000  0.6299980000000 1.0
C      1  0.2610990000000  0.3976750000000  0.5163970000000 1.0
C      1  0.5175390000000  0.7604650000000  0.4971180000000 1.0
C      1  0.7266860000000  0.3632180000000  0.5017040000000 1.0
C      1  0.6258940000000  0.7266280000000  0.4943100000000 1.0
C      1  0.6569240000000  0.2739590000000  0.4884580000000 1.0
C      1  0.2281050000000  0.5053820000000  0.5101400000000 1.0
C      1  0.6947390000000  0.4151130000000  0.5984810000000 1.0
C      1  0.3335170000000  0.3849790000000  0.6035470000000 1.0
C      1  0.4767750000000  0.7235830000000  0.5966410000000 1.0
C      1  0.5339620000000  0.6069840000000  0.3809270000000 1.0
C      1  0.5927630000000  0.4223690000000  0.3872410000000 1.0
C      1  0.3996760000000  0.4670260000000  0.4001830000000 1.0
C      1  0.5703310000000  0.5885220000000  0.6377700000000 1.0
C      1  0.5444030000000  0.3374320000000  0.6470460000000 1.0
C      1  0.3611070000000  0.5539380000000  0.6612870000000 1.0
C      1  0.6805480000000  0.6463340000000  0.4773540000000 1.0
C      1  0.5564010000000  0.2722310000000  0.4734180000000 1.0
C      1  0.2734410000000  0.5924530000000  0.4934760000000 1.0
C      1  0.4374540000000  0.5946610000000  0.5236140000000 1.0
C      1  0.5919970000000  0.5029720000000  0.5103180000000 1.0
C      1  0.4362450000000  0.3977250000000  0.5098430000000 1.0
C      1  0.4150250000000  0.5272540000000  0.3136240000000 1.0
C      1  0.5715140000000  0.5585130000000  0.2960310000000 1.0
C      1  0.5245840000000  0.4074260000000  0.3067410000000 1.0
C      1  0.5101050000000  0.4983180000000  0.4044100000000 1.0
C      1  0.4245130000000  0.5276560000000  0.8198150000000 1.0
C      1  0.4815140000000  0.5006280000000  0.5099910000000 1.0
C      1  0.5513200000000  0.4463980000000  0.7508310000000 1.0
C      1  0.4997860000000  0.4961360000000  0.2720090000000 1.0
C      1  0.4630060000000  0.5015130000000  0.7379220000000 1.0
END
