TITL C-3036481-494-996 6.07793141435866e-07 3375 -342.21755457313 0 0 60 (C5) n - 1
REM
REM in /home/bkarasulu/work/CARBON/AIRSS/Generating-Clusters/REBO/Higher-Symm/Only-C60
REM
REM
REM
REM
REM
REM ./C.cell (a2850807a9bf4ad07a5b6933b78d9264)
REM AIRSS Version 0.9.1 bugfix July 2018 build 013d7b7c2542+ Fri, 06 Jul 2018 19:26:36 +0100
REM compiler GCC version 9.2.1 20190827 (Red Hat 9.2.1-1)
REM options -cpp -mtune=generic -march=x86-64 -g -O0 -fpre-include=/usr/include/finclude/math-vector-fortran.h
REM seed -1888096599 -1962716602 -1268320735 31905522 -695874693 1361063143 -503343963 488054418 -217238571 -128606207 -1813135322 230440169 2087044069 -1293656916 1362657504 -2028778 -392466320 1213945463 -1390620749 -1879567423 930376966 628254708 1314284917 -582915525 -662405680 -237004429 -354691993 1979675664 -1703838025 -604801546 649986331 -1888424852 -800347735
REM
CELL 1.54180   15.00000   15.00000   15.00000   90.00000   90.00000   90.00000
LATT -1
SFAC C  
C      1  0.4682700000000  0.2421470000000  0.4181920000000 1.0
C      1  0.5680630000000  0.2421600000000  0.4445600000000 1.0
C      1  0.5738240000000  0.2421810000000  0.5476170000000 1.0
C      1  0.4775900000000  0.2421810000000  0.5849410000000 1.0
C      1  0.4123550000000  0.2421600000000  0.5049520000000 1.0
C      1  0.5907150000000  0.5602770000000  0.5202390000000 1.0
C      1  0.5087690000000  0.5602850000000  0.5925250000000 1.0
C      1  0.4146980000000  0.5602670000000  0.5369280000000 1.0
C      1  0.4385050000000  0.5602470000000  0.4302810000000 1.0
C      1  0.5472890000000  0.5602530000000  0.4199660000000 1.0
C      1  0.7233920000000  0.4594030000000  0.4607830000000 1.0
C      1  0.6063400000000  0.4594430000000  0.7003420000000 1.0
C      1  0.3423340000000  0.4594130000000  0.6630470000000 1.0
C      1  0.2962220000000  0.4593550000000  0.4004380000000 1.0
C      1  0.5317290000000  0.4593490000000  0.2754320000000 1.0
C      1  0.2698000000000  0.4430450000000  0.5025220000000 1.0
C      1  0.4264810000000  0.4430130000000  0.2818500000000 1.0
C      1  0.6847690000000  0.4430500000000  0.3626700000000 1.0
C      1  0.6877200000000  0.4431060000000  0.6332920000000 1.0
C      1  0.4312550000000  0.4431030000000  0.7197250000000 1.0
C      1  0.3847530000000  0.5882040000000  0.3407690000000 1.0
C      1  0.6158020000000  0.5882220000000  0.3411830000000 1.0
C      1  0.6868070000000  0.5882730000000  0.5610510000000 1.0
C      1  0.4996410000000  0.5882860000000  0.6965240000000 1.0
C      1  0.3129610000000  0.5882430000000  0.5603820000000 1.0
C      1  0.6664490000000  0.6636850000000  0.4838540000000 1.0
C      1  0.5667500000000  0.6637120000000  0.6533020000000 1.0
C      1  0.3747860000000  0.6636880000000  0.6108450000000 1.0
C      1  0.3558450000000  0.6636460000000  0.4151570000000 1.0
C      1  0.5361030000000  0.6636440000000  0.3366730000000 1.0
C      1  0.7129480000000  0.4178770000000  0.5452890000000 1.0
C      1  0.5227520000000  0.4178960000000  0.7165260000000 1.0
C      1  0.3011240000000  0.4178520000000  0.5885540000000 1.0
C      1  0.3543450000000  0.4178040000000  0.3382280000000 1.0
C      1  0.6088660000000  0.4178200000000  0.3114880000000 1.0
C      1  0.5147780000000  0.7062560000000  0.4174440000000 1.0
C      1  0.5830300000000  0.7062760000000  0.4885300000000 1.0
C      1  0.5365140000000  0.7062910000000  0.5754090000000 1.0
C      1  0.4395130000000  0.7062790000000  0.5580160000000 1.0
C      1  0.4260800000000  0.7062580000000  0.4603890000000 1.0
C      1  0.5478460000000  0.3488160000000  0.4158230000000 1.0
C      1  0.5948800000000  0.3488400000000  0.5195020000000 1.0
C      1  0.5108090000000  0.3488490000000  0.5962730000000 1.0
C      1  0.4118170000000  0.3488300000000  0.5400400000000 1.0
C      1  0.4347070000000  0.3488090000000  0.4285160000000 1.0
C      1  0.4161470000000  0.4534460000000  0.4577260000000 1.0
C      1  0.5143050000000  0.4534440000000  0.4071910000000 1.0
C      1  0.5926990000000  0.4534660000000  0.4849280000000 1.0
C      1  0.5429920000000  0.4534820000000  0.5835070000000 1.0
C      1  0.4338770000000  0.4534700000000  0.5666960000000 1.0
C      1  0.2893660000000  0.5729200000000  0.3966740000000 1.0
C      1  0.5331610000000  0.5729140000000  0.2677400000000 1.0
C      1  0.7311210000000  0.5729700000000  0.4597610000000 1.0
C      1  0.6096720000000  0.5730110000000  0.7073700000000 1.0
C      1  0.3366510000000  0.5729800000000  0.6683800000000 1.0
C      1  0.4313290000000  0.5437670000000  0.2675070000000 1.0
C      1  0.6998820000000  0.5438080000000  0.3628430000000 1.0
C      1  0.6922000000000  0.5438660000000  0.6477130000000 1.0
C      1  0.4188990000000  0.5438610000000  0.7284360000000 1.0
C      1  0.2576720000000  0.5437990000000  0.4934560000000 1.0
END
