TITL C-3036482-790-409 0.000428519327853262 3375 -342.948297446269 0 0 60 (C1) n - 1
REM
REM in /home/bkarasulu/work/CARBON/AIRSS/Generating-Clusters/REBO/Higher-Symm/Only-C60
REM
REM
REM
REM
REM
REM ./C.cell (a2850807a9bf4ad07a5b6933b78d9264)
REM AIRSS Version 0.9.1 bugfix July 2018 build 013d7b7c2542+ Fri, 06 Jul 2018 19:26:36 +0100
REM compiler GCC version 9.2.1 20190827 (Red Hat 9.2.1-1)
REM options -cpp -mtune=generic -march=x86-64 -g -O0 -fpre-include=/usr/include/finclude/math-vector-fortran.h
REM seed 1458121760 1801406964 -2113772191 -1881993322 1766463650 -1941022878 -1234781230 2145625972 2046182732 1205652563 -2146093931 -791751113 1777826483 -301747616 -1602638894 1488467682 -1290330948 213347788 537317275 1959030421 -1788819250 -1423162528 -590938010 270350385 419368942 -166488991 1961266043 -1661576520 -935552865 1079616015 -1832467127 1061802667 143535705
REM
CELL 1.54180   15.00000   15.00000   15.00000   90.00000   90.00000   90.00000
LATT -1
SFAC C  
C      1  0.3268180000000  0.4046880000000  0.4413050000000 1.0
C      1  0.6761000000000  0.5975400000000  0.4399730000000 1.0
C      1  0.3235840000000  0.6057020000000  0.4429020000000 1.0
C      1  0.6822870000000  0.3921920000000  0.4297420000000 1.0
C      1  0.5770020000000  0.5518910000000  0.7737680000000 1.0
C      1  0.4100850000000  0.4535540000000  0.7569050000000 1.0
C      1  0.5871980000000  0.4606710000000  0.7623980000000 1.0
C      1  0.4034650000000  0.5449740000000  0.7544290000000 1.0
C      1  0.5451980000000  0.3346050000000  0.3000130000000 1.0
C      1  0.4531230000000  0.6629670000000  0.3016760000000 1.0
C      1  0.5447020000000  0.6624560000000  0.3044700000000 1.0
C      1  0.4528820000000  0.3365600000000  0.2988870000000 1.0
C      1  0.5873080000000  0.4461080000000  0.6030970000000 1.0
C      1  0.4557670000000  0.5760040000000  0.6015950000000 1.0
C      1  0.6292810000000  0.5614570000000  0.6520760000000 1.0
C      1  0.4543260000000  0.4447200000000  0.6089990000000 1.0
C      1  0.5533330000000  0.4066700000000  0.4662870000000 1.0
C      1  0.4551050000000  0.6131830000000  0.4596560000000 1.0
C      1  0.5486430000000  0.6125890000000  0.4739340000000 1.0
C      1  0.4590050000000  0.4032950000000  0.4520100000000 1.0
C      1  0.5517390000000  0.3850230000000  0.7160760000000 1.0
C      1  0.4419100000000  0.6269010000000  0.7229250000000 1.0
C      1  0.5391430000000  0.6266710000000  0.7253200000000 1.0
C      1  0.4544330000000  0.3759620000000  0.7215430000000 1.0
C      1  0.4307500000000  0.3089600000000  0.4561910000000 1.0
C      1  0.5868420000000  0.7060700000000  0.4603260000000 1.0
C      1  0.4219700000000  0.7081430000000  0.4544480000000 1.0
C      1  0.5818120000000  0.3113580000000  0.4622690000000 1.0
C      1  0.3222100000000  0.5416280000000  0.2783140000000 1.0
C      1  0.6736380000000  0.4580930000000  0.2685420000000 1.0
C      1  0.3229520000000  0.4596820000000  0.2763670000000 1.0
C      1  0.6728960000000  0.5398700000000  0.2738600000000 1.0
C      1  0.3528540000000  0.3814660000000  0.3327240000000 1.0
C      1  0.6459210000000  0.6172940000000  0.3324590000000 1.0
C      1  0.3515460000000  0.6206330000000  0.3333030000000 1.0
C      1  0.6492930000000  0.3765110000000  0.3223970000000 1.0
C      1  0.3936100000000  0.2873460000000  0.3719170000000 1.0
C      1  0.6116610000000  0.7144560000000  0.3699060000000 1.0
C      1  0.3896470000000  0.7185730000000  0.3663160000000 1.0
C      1  0.6077650000000  0.2895740000000  0.3745710000000 1.0
C      1  0.4040380000000  0.6661100000000  0.6229850000000 1.0
C      1  0.5929410000000  0.3401160000000  0.6201770000000 1.0
C      1  0.4181240000000  0.3459520000000  0.6176910000000 1.0
C      1  0.5853350000000  0.6588290000000  0.6263880000000 1.0
C      1  0.6562920000000  0.6069400000000  0.5513290000000 1.0
C      1  0.3548800000000  0.3987710000000  0.5376420000000 1.0
C      1  0.6616930000000  0.3903880000000  0.5415270000000 1.0
C      1  0.3466270000000  0.6129530000000  0.5393510000000 1.0
C      1  0.5000270000000  0.7095610000000  0.5945660000000 1.0
C      1  0.5041120000000  0.2871550000000  0.5951660000000 1.0
C      1  0.5861390000000  0.5112610000000  0.4849400000000 1.0
C      1  0.4164590000000  0.5073010000000  0.4468450000000 1.0
C      1  0.6807730000000  0.4918970000000  0.4438490000000 1.0
C      1  0.3143120000000  0.5050510000000  0.4142570000000 1.0
C      1  0.5049490000000  0.2626520000000  0.5036970000000 1.0
C      1  0.5027470000000  0.7380830000000  0.5054270000000 1.0
C      1  0.3660180000000  0.5064760000000  0.5734600000000 1.0
C      1  0.6824060000000  0.4977390000000  0.5756900000000 1.0
C      1  0.5288650000000  0.5142180000000  0.6554040000000 1.0
C      1  0.4909770000000  0.5060940000000  0.5282270000000 1.0
END
