TITL C-3036482-790-657 -0.0086332907788291 3375 -349.520220042518 0 0 60 (C1) n - 1
REM
REM in /home/bkarasulu/work/CARBON/AIRSS/Generating-Clusters/REBO/Higher-Symm/Only-C60
REM
REM
REM
REM
REM
REM ./C.cell (a2850807a9bf4ad07a5b6933b78d9264)
REM AIRSS Version 0.9.1 bugfix July 2018 build 013d7b7c2542+ Fri, 06 Jul 2018 19:26:36 +0100
REM compiler GCC version 9.2.1 20190827 (Red Hat 9.2.1-1)
REM options -cpp -mtune=generic -march=x86-64 -g -O0 -fpre-include=/usr/include/finclude/math-vector-fortran.h
REM seed -341309589 -78056678 2009084572 782031741 1038168516 -1700604693 -22299593 596700359 -1985162277 -1564697597 -1203693793 -1115492470 -1610502115 -330230609 -1515949649 18979376 -141402287 -558527957 274956523 -506971438 -125339207 1984034219 987940376 578521552 862992991 153433991 1833228991 -1773096504 -1414135482 653464002 -93249899 877100614 1364834858
REM
CELL 1.54180   15.00000   15.00000   15.00000   90.00000   90.00000   90.00000
LATT -1
SFAC C  
C      1  0.5994570000000  0.4418170000000  0.7102290000000 1.0
C      1  0.5134000000000  0.5406430000000  0.5060490000000 1.0
C      1  0.3599330000000  0.3755120000000  0.6346000000000 1.0
C      1  0.5519190000000  0.7679850000000  0.4968610000000 1.0
C      1  0.3424890000000  0.5544010000000  0.5150900000000 1.0
C      1  0.3950120000000  0.2901360000000  0.4148590000000 1.0
C      1  0.3666510000000  0.5178190000000  0.2551390000000 1.0
C      1  0.3411870000000  0.6596530000000  0.6535680000000 1.0
C      1  0.5554320000000  0.3030280000000  0.5981900000000 1.0
C      1  0.4885000000000  0.2624490000000  0.3980810000000 1.0
C      1  0.4536180000000  0.5126690000000  0.7245230000000 1.0
C      1  0.6016230000000  0.5604650000000  0.6034320000000 1.0
C      1  0.6739230000000  0.4426200000000  0.4498590000000 1.0
C      1  0.4574060000000  0.4611250000000  0.2411530000000 1.0
C      1  0.3195370000000  0.4414790000000  0.3912130000000 1.0
C      1  0.6500490000000  0.3919630000000  0.5702460000000 1.0
C      1  0.5879340000000  0.5442830000000  0.3299560000000 1.0
C      1  0.4269950000000  0.6227620000000  0.3123980000000 1.0
C      1  0.7091050000000  0.5117600000000  0.5056610000000 1.0
C      1  0.6893900000000  0.4615510000000  0.6769500000000 1.0
C      1  0.3895360000000  0.5716010000000  0.5997680000000 1.0
C      1  0.3604090000000  0.3620360000000  0.3515190000000 1.0
C      1  0.4512240000000  0.6271870000000  0.4918590000000 1.0
C      1  0.4089780000000  0.3740260000000  0.4750520000000 1.0
C      1  0.3422280000000  0.5245910000000  0.3423120000000 1.0
C      1  0.4966880000000  0.5969600000000  0.6304720000000 1.0
C      1  0.5470790000000  0.5215170000000  0.7394790000000 1.0
C      1  0.4707760000000  0.7217960000000  0.4324520000000 1.0
C      1  0.4080590000000  0.5447960000000  0.4256490000000 1.0
C      1  0.3310730000000  0.3857990000000  0.5468240000000 1.0
C      1  0.7044780000000  0.3533500000000  0.4809110000000 1.0
C      1  0.5836260000000  0.4515760000000  0.3952100000000 1.0
C      1  0.4415810000000  0.4440250000000  0.6561470000000 1.0
C      1  0.5478600000000  0.3595080000000  0.6862710000000 1.0
C      1  0.5443350000000  0.2702490000000  0.4863180000000 1.0
C      1  0.3072410000000  0.4591220000000  0.4848660000000 1.0
C      1  0.5484120000000  0.7295870000000  0.5861230000000 1.0
C      1  0.3932720000000  0.5876620000000  0.7136400000000 1.0
C      1  0.5987690000000  0.4702550000000  0.5800320000000 1.0
C      1  0.6084640000000  0.6687110000000  0.6308870000000 1.0
C      1  0.4881240000000  0.5605230000000  0.2881730000000 1.0
C      1  0.5835100000000  0.6197500000000  0.4857060000000 1.0
C      1  0.4978370000000  0.4507200000000  0.5726380000000 1.0
C      1  0.4321640000000  0.3669510000000  0.2850180000000 1.0
C      1  0.5848760000000  0.3728880000000  0.3170020000000 1.0
C      1  0.6864050000000  0.5951840000000  0.4722590000000 1.0
C      1  0.3261910000000  0.6487910000000  0.4536430000000 1.0
C      1  0.3440170000000  0.6853330000000  0.5479440000000 1.0
C      1  0.4437500000000  0.3434260000000  0.7007560000000 1.0
C      1  0.7281280000000  0.4957080000000  0.5992710000000 1.0
C      1  0.3900800000000  0.6734990000000  0.3839340000000 1.0
C      1  0.5711050000000  0.6168240000000  0.7180380000000 1.0
C      1  0.6354780000000  0.6181720000000  0.3747060000000 1.0
C      1  0.4786100000000  0.4567950000000  0.4389510000000 1.0
C      1  0.4941870000000  0.3598180000000  0.5285810000000 1.0
C      1  0.5098720000000  0.3147170000000  0.3173530000000 1.0
C      1  0.6442460000000  0.2823570000000  0.5355980000000 1.0
C      1  0.4512040000000  0.6880130000000  0.5839530000000 1.0
C      1  0.5772850000000  0.7039170000000  0.4085490000000 1.0
C      1  0.5652810000000  0.4581410000000  0.2640770000000 1.0
END
