TITL C-3036484-3770-504 3.49275019341498e-06 3375 -341.306563903104 0 0 60 (C4) n - 1
REM
REM in /home/bkarasulu/work/CARBON/AIRSS/Generating-Clusters/REBO/Higher-Symm/Only-C60
REM
REM
REM
REM
REM
REM ./C.cell (a2850807a9bf4ad07a5b6933b78d9264)
REM AIRSS Version 0.9.1 bugfix July 2018 build 013d7b7c2542+ Fri, 06 Jul 2018 19:26:36 +0100
REM compiler GCC version 9.2.1 20190827 (Red Hat 9.2.1-1)
REM options -cpp -mtune=generic -march=x86-64 -g -O0 -fpre-include=/usr/include/finclude/math-vector-fortran.h
REM seed 1408995625 -668680731 -149361651 -1022661055 1154516758 1913496876 -555378445 -1626543888 -934494868 -1131475356 -47080308 1876283662 -543216872 1691286334 -1062031421 -1445935516 2080743344 987870434 -84545817 1086508359 1213918596 -471146073 1187557240 1556727786 163677819 -1138976138 -374941401 -342426327 -34360510 891884849 -1467946594 1233639637 1802981087
REM
CELL 1.54180   15.00000   15.00000   15.00000   90.00000   90.00000   90.00000
LATT -1
SFAC C  
C      1  0.4622120000000  0.6083770000000  0.4348460000000 1.0
C      1  0.4348460000000  0.6083770000000  0.5377880000000 1.0
C      1  0.5377880000000  0.6083770000000  0.5651540000000 1.0
C      1  0.5651540000000  0.6083770000000  0.4622120000000 1.0
C      1  0.4360800000000  0.3333220000000  0.6532370000000 1.0
C      1  0.6532370000000  0.3333220000000  0.5639200000000 1.0
C      1  0.5639200000000  0.3333220000000  0.3467630000000 1.0
C      1  0.3467630000000  0.3333220000000  0.4360800000000 1.0
C      1  0.4219140000000  0.6084210000000  0.7069510000000 1.0
C      1  0.7069510000000  0.6084210000000  0.5780860000000 1.0
C      1  0.5780860000000  0.6084210000000  0.2930490000000 1.0
C      1  0.2930490000000  0.6084210000000  0.4219140000000 1.0
C      1  0.3770390000000  0.3454430000000  0.5345080000000 1.0
C      1  0.5345080000000  0.3454430000000  0.6229610000000 1.0
C      1  0.6229610000000  0.3454430000000  0.4654920000000 1.0
C      1  0.4654920000000  0.3454430000000  0.3770390000000 1.0
C      1  0.6139020000000  0.4061720000000  0.3133740000000 1.0
C      1  0.3133740000000  0.4061720000000  0.3860980000000 1.0
C      1  0.3860980000000  0.4061720000000  0.6866260000000 1.0
C      1  0.6866260000000  0.4061720000000  0.6139020000000 1.0
C      1  0.3630750000000  0.6889880000000  0.5720050000000 1.0
C      1  0.5720050000000  0.6889880000000  0.6369250000000 1.0
C      1  0.6369250000000  0.6889880000000  0.4279950000000 1.0
C      1  0.4279950000000  0.6889880000000  0.3630750000000 1.0
C      1  0.6275950000000  0.6947480000000  0.3343500000000 1.0
C      1  0.3343500000000  0.6947480000000  0.3724050000000 1.0
C      1  0.3724050000000  0.6947480000000  0.6656500000000 1.0
C      1  0.6656500000000  0.6947480000000  0.6275950000000 1.0
C      1  0.5573010000000  0.4971420000000  0.7283310000000 1.0
C      1  0.7283310000000  0.4971420000000  0.4426990000000 1.0
C      1  0.4426990000000  0.4971420000000  0.2716690000000 1.0
C      1  0.2716690000000  0.4971420000000  0.5573010000000 1.0
C      1  0.6465190000000  0.4701630000000  0.6807480000000 1.0
C      1  0.6807480000000  0.4701630000000  0.3534810000000 1.0
C      1  0.3534810000000  0.4701630000000  0.3192520000000 1.0
C      1  0.3192520000000  0.4701630000000  0.6465190000000 1.0
C      1  0.5973340000000  0.4358350000000  0.4506220000000 1.0
C      1  0.4506220000000  0.4358350000000  0.4026660000000 1.0
C      1  0.4026660000000  0.4358350000000  0.5493780000000 1.0
C      1  0.5493780000000  0.4358350000000  0.5973340000000 1.0
C      1  0.4653320000000  0.4764880000000  0.6064810000000 1.0
C      1  0.6064810000000  0.4764880000000  0.5346680000000 1.0
C      1  0.5346680000000  0.4764880000000  0.3935190000000 1.0
C      1  0.3935190000000  0.4764880000000  0.4653320000000 1.0
C      1  0.3024120000000  0.6030810000000  0.5296240000000 1.0
C      1  0.5296240000000  0.6030810000000  0.6975880000000 1.0
C      1  0.6975880000000  0.6030810000000  0.4703760000000 1.0
C      1  0.4703760000000  0.6030810000000  0.3024120000000 1.0
C      1  0.3818460000000  0.5650790000000  0.3666840000000 1.0
C      1  0.3666840000000  0.5650790000000  0.6181540000000 1.0
C      1  0.6181540000000  0.5650790000000  0.6333160000000 1.0
C      1  0.6333160000000  0.5650790000000  0.3818460000000 1.0
C      1  0.4382640000000  0.2661590000000  0.4483110000000 1.0
C      1  0.4483110000000  0.2661590000000  0.5617360000000 1.0
C      1  0.5617360000000  0.2661590000000  0.5516890000000 1.0
C      1  0.5516890000000  0.2661590000000  0.4382640000000 1.0
C      1  0.7083140000000  0.5005810000000  0.5543190000000 1.0
C      1  0.5543190000000  0.5005810000000  0.2916860000000 1.0
C      1  0.2916860000000  0.5005810000000  0.4456810000000 1.0
C      1  0.4456810000000  0.5005810000000  0.7083140000000 1.0
END
