TITL C-3036486-2224-620 1.54548141010534e-06 3375 -346.50611054249 0 0 60 (C5) n - 1
REM
REM in /home/bkarasulu/work/CARBON/AIRSS/Generating-Clusters/REBO/Higher-Symm/Only-C60
REM
REM
REM
REM
REM
REM ./C.cell (a2850807a9bf4ad07a5b6933b78d9264)
REM AIRSS Version 0.9.1 bugfix July 2018 build 013d7b7c2542+ Fri, 06 Jul 2018 19:26:36 +0100
REM compiler GCC version 9.2.1 20190827 (Red Hat 9.2.1-1)
REM options -cpp -mtune=generic -march=x86-64 -g -O0 -fpre-include=/usr/include/finclude/math-vector-fortran.h
REM seed 1147727194 -782450303 278076880 -949723518 981064646 1508616888 516531955 -2069226847 -421429151 -1217683331 -776409994 -1196963323 -262193338 -191310579 -1231673675 1263745887 -1296658971 -1427369399 363159536 -728879724 951007933 -688792534 -253584913 -977378381 -1513791200 -1147809368 2123295371 -1905656231 -1603719710 -1565024400 295271241 1924817630 -861340395
REM
CELL 1.54180   15.00000   15.00000   15.00000   90.00000   90.00000   90.00000
LATT -1
SFAC C  
C      1  0.6523930000000  0.4267340000000  0.5583370000000 1.0
C      1  0.6524140000000  0.4219080000000  0.4483620000000 1.0
C      1  0.6524180000000  0.5250100000000  0.4097890000000 1.0
C      1  0.6524000000000  0.5935550000000  0.4959240000000 1.0
C      1  0.6523840000000  0.5328170000000  0.5877320000000 1.0
C      1  0.5970140000000  0.2728370000000  0.3958360000000 1.0
C      1  0.5970330000000  0.5288880000000  0.2517770000000 1.0
C      1  0.5969890000000  0.7450210000000  0.4507790000000 1.0
C      1  0.5969420000000  0.6225470000000  0.7178280000000 1.0
C      1  0.5969580000000  0.3307220000000  0.6838720000000 1.0
C      1  0.3050130000000  0.5828080000000  0.5341630000000 1.0
C      1  0.3050050000000  0.4930590000000  0.5892930000000 1.0
C      1  0.3050210000000  0.4128940000000  0.5209720000000 1.0
C      1  0.3050380000000  0.4530980000000  0.4236180000000 1.0
C      1  0.3050330000000  0.5581110000000  0.4317710000000 1.0
C      1  0.5453450000000  0.4544480000000  0.5760750000000 1.0
C      1  0.5453640000000  0.4135810000000  0.4801900000000 1.0
C      1  0.5453750000000  0.4921440000000  0.4116940000000 1.0
C      1  0.5453620000000  0.5815660000000  0.4652450000000 1.0
C      1  0.5453440000000  0.5582680000000  0.5668380000000 1.0
C      1  0.3894240000000  0.5972310000000  0.6070210000000 1.0
C      1  0.3894260000000  0.4282410000000  0.6255320000000 1.0
C      1  0.3894580000000  0.3584150000000  0.4705340000000 1.0
C      1  0.3894750000000  0.4842500000000  0.3562280000000 1.0
C      1  0.3894550000000  0.6318460000000  0.4405820000000 1.0
C      1  0.5816150000000  0.7410990000000  0.3599150000000 1.0
C      1  0.5815550000000  0.7077490000000  0.6860190000000 1.0
C      1  0.5815520000000  0.3873000000000  0.7550720000000 1.0
C      1  0.5816100000000  0.2226020000000  0.4716460000000 1.0
C      1  0.5816490000000  0.4412630000000  0.2274250000000 1.0
C      1  0.4873280000000  0.4099950000000  0.6438150000000 1.0
C      1  0.4873650000000  0.3354080000000  0.4588400000000 1.0
C      1  0.4873840000000  0.4882810000000  0.3307430000000 1.0
C      1  0.4873590000000  0.6573490000000  0.4365500000000 1.0
C      1  0.4873240000000  0.6089660000000  0.6300390000000 1.0
C      1  0.5073190000000  0.6734970000000  0.3302330000000 1.0
C      1  0.5072650000000  0.7150740000000  0.6125450000000 1.0
C      1  0.5072490000000  0.4594260000000  0.7393260000000 1.0
C      1  0.5072940000000  0.2598510000000  0.5353690000000 1.0
C      1  0.5073370000000  0.3921540000000  0.2825350000000 1.0
C      1  0.6663990000000  0.3334960000000  0.3963840000000 1.0
C      1  0.6664080000000  0.5471260000000  0.3096430000000 1.0
C      1  0.6663710000000  0.6956360000000  0.4860120000000 1.0
C      1  0.6663380000000  0.5737910000000  0.6817550000000 1.0
C      1  0.6663550000000  0.3499770000000  0.6263620000000 1.0
C      1  0.5076080000000  0.3087670000000  0.3567350000000 1.0
C      1  0.5076150000000  0.5771610000000  0.2738560000000 1.0
C      1  0.5075670000000  0.7389210000000  0.5035020000000 1.0
C      1  0.5075300000000  0.5705010000000  0.7283110000000 1.0
C      1  0.5075550000000  0.3046510000000  0.6376030000000 1.0
C      1  0.4136840000000  0.3328770000000  0.3012570000000 1.0
C      1  0.4136780000000  0.6373550000000  0.2796330000000 1.0
C      1  0.4136220000000  0.7520090000000  0.5625260000000 1.0
C      1  0.4135920000000  0.5183910000000  0.7589880000000 1.0
C      1  0.4136310000000  0.2593540000000  0.5975140000000 1.0
C      1  0.3469850000000  0.3878000000000  0.3408470000000 1.0
C      1  0.3469780000000  0.6166610000000  0.3440960000000 1.0
C      1  0.3469350000000  0.6842940000000  0.5627590000000 1.0
C      1  0.3469160000000  0.4972320000000  0.6946520000000 1.0
C      1  0.3469470000000  0.3139890000000  0.5575030000000 1.0
END
