TITL C-3036486-2224-108 -0.000202350754707152 3375 -353.436474079953 0 0 60 (Ci) n - 1
REM
REM in /home/bkarasulu/work/CARBON/AIRSS/Generating-Clusters/REBO/Higher-Symm/Only-C60
REM
REM
REM
REM
REM
REM ./C.cell (a2850807a9bf4ad07a5b6933b78d9264)
REM AIRSS Version 0.9.1 bugfix July 2018 build 013d7b7c2542+ Fri, 06 Jul 2018 19:26:36 +0100
REM compiler GCC version 9.2.1 20190827 (Red Hat 9.2.1-1)
REM options -cpp -mtune=generic -march=x86-64 -g -O0 -fpre-include=/usr/include/finclude/math-vector-fortran.h
REM seed 1923136534 -2137807076 -1465403312 1574889912 1560120358 -771059499 -1297093382 74452834 -1924328794 1884778348 -365093484 -2087943940 675662022 381680660 1295206460 1768562725 482088531 234716306 67749762 774261656 -1508447641 -769211623 951247735 -1766889844 194308348 1278048633 -1001827918 424781651 1848649269 -1443258925 1806590115 -142322232 -1372782047
REM
CELL 1.54180   15.00000   15.00000   15.00000   90.00000   90.00000   90.00000
LATT -1
SFAC C  
C      1  0.4931870000000  0.2591260000000  0.4875050000000 1.0
C      1  0.5068120000000  0.7408760000000  0.5124940000000 1.0
C      1  0.5543670000000  0.3738170000000  0.7093700000000 1.0
C      1  0.4456340000000  0.6261840000000  0.2906290000000 1.0
C      1  0.3446220000000  0.5610420000000  0.4962970000000 1.0
C      1  0.6553810000000  0.4389570000000  0.5037040000000 1.0
C      1  0.5254380000000  0.6460580000000  0.2423770000000 1.0
C      1  0.4745660000000  0.3539400000000  0.7576250000000 1.0
C      1  0.7098190000000  0.3667420000000  0.5597390000000 1.0
C      1  0.2901810000000  0.6332480000000  0.4402530000000 1.0
C      1  0.4294700000000  0.4655670000000  0.6018340000000 1.0
C      1  0.5705300000000  0.5344330000000  0.3981660000000 1.0
C      1  0.7365880000000  0.5013370000000  0.3628930000000 1.0
C      1  0.2634140000000  0.4986670000000  0.6371070000000 1.0
C      1  0.6607020000000  0.6873130000000  0.5323610000000 1.0
C      1  0.3392960000000  0.3126870000000  0.4676410000000 1.0
C      1  0.4734090000000  0.5908020000000  0.6144380000000 1.0
C      1  0.5265950000000  0.4091990000000  0.3855630000000 1.0
C      1  0.4422030000000  0.7149230000000  0.5785940000000 1.0
C      1  0.5577980000000  0.2850730000000  0.4214070000000 1.0
C      1  0.6703120000000  0.6381220000000  0.4476040000000 1.0
C      1  0.3296890000000  0.3618800000000  0.5523980000000 1.0
C      1  0.4704130000000  0.7170500000000  0.6716760000000 1.0
C      1  0.5295870000000  0.2829510000000  0.3283250000000 1.0
C      1  0.5849680000000  0.5029120000000  0.3108180000000 1.0
C      1  0.4150330000000  0.4970860000000  0.6891840000000 1.0
C      1  0.6461810000000  0.6138050000000  0.5933670000000 1.0
C      1  0.3538130000000  0.3861950000000  0.4066320000000 1.0
C      1  0.5017010000000  0.5259860000000  0.7265920000000 1.0
C      1  0.4982990000000  0.4740130000000  0.2734130000000 1.0
C      1  0.5710490000000  0.3166200000000  0.6343210000000 1.0
C      1  0.4289490000000  0.6833850000000  0.3656740000000 1.0
C      1  0.2944660000000  0.4692700000000  0.5415800000000 1.0
C      1  0.7055340000000  0.5307310000000  0.4584210000000 1.0
C      1  0.4997020000000  0.6288560000000  0.7104530000000 1.0
C      1  0.5002960000000  0.3711450000000  0.2895500000000 1.0
C      1  0.5067190000000  0.6826510000000  0.4305930000000 1.0
C      1  0.4932800000000  0.3173550000000  0.5694040000000 1.0
C      1  0.4027320000000  0.2406170000000  0.4621010000000 1.0
C      1  0.5972670000000  0.7593850000000  0.5378960000000 1.0
C      1  0.3397110000000  0.6935440000000  0.3929680000000 1.0
C      1  0.6602840000000  0.3064520000000  0.6070260000000 1.0
C      1  0.5521410000000  0.5689030000000  0.5610300000000 1.0
C      1  0.4478580000000  0.4310960000000  0.4389690000000 1.0
C      1  0.3969510000000  0.3386640000000  0.7104420000000 1.0
C      1  0.6030540000000  0.6613350000000  0.2895590000000 1.0
C      1  0.3230410000000  0.5118060000000  0.7060220000000 1.0
C      1  0.6769610000000  0.4881910000000  0.2939790000000 1.0
C      1  0.2894420000000  0.4639980000000  0.4282480000000 1.0
C      1  0.7105530000000  0.5360050000000  0.5717540000000 1.0
C      1  0.5374550000000  0.5847280000000  0.4629530000000 1.0
C      1  0.4625440000000  0.4152760000000  0.5370450000000 1.0
C      1  0.4280540000000  0.5341820000000  0.3078350000000 1.0
C      1  0.5719470000000  0.4658190000000  0.6921670000000 1.0
C      1  0.3936300000000  0.3340780000000  0.6165820000000 1.0
C      1  0.6063730000000  0.6659260000000  0.3834190000000 1.0
C      1  0.6037400000000  0.3774460000000  0.4397950000000 1.0
C      1  0.3962630000000  0.6225470000000  0.5602090000000 1.0
C      1  0.3886500000000  0.5141050000000  0.4021720000000 1.0
C      1  0.6113470000000  0.4858940000000  0.5978260000000 1.0
END
