TITL C-3036480-97-1125 3.87948669553211e-06 3375 -326.833023740118 0 0 60 (Ci) n - 1
REM
REM in /home/bkarasulu/work/CARBON/AIRSS/Generating-Clusters/REBO/Higher-Symm/Only-C60
REM
REM
REM
REM
REM
REM ./C.cell (a2850807a9bf4ad07a5b6933b78d9264)
REM AIRSS Version 0.9.1 bugfix July 2018 build 013d7b7c2542+ Fri, 06 Jul 2018 19:26:36 +0100
REM compiler GCC version 9.2.1 20190827 (Red Hat 9.2.1-1)
REM options -cpp -mtune=generic -march=x86-64 -g -O0 -fpre-include=/usr/include/finclude/math-vector-fortran.h
REM seed -265905213 1158078616 944482905 -296413496 -1210047374 -37353102 721967957 -1180578621 1957952111 327136626 1682213193 -782543356 -1020081255 137690555 -497279099 -1383237180 1258828558 2036820932 -1666008413 -1314534459 -1995463074 1680987833 -45031245 2081284839 -2102935130 270010959 -21346294 515208710 -2139628836 -87833553 930273874 1718674716 -1817385962
REM
CELL 1.54180   15.00000   15.00000   15.00000   90.00000   90.00000   90.00000
LATT -1
SFAC C  
C      1  0.3708160000000  0.5160180000000  0.4851940000000 1.0
C      1  0.6291850000000  0.4839810000000  0.5148060000000 1.0
C      1  0.3669370000000  0.4266430000000  0.3585850000000 1.0
C      1  0.6330630000000  0.5733570000000  0.6414150000000 1.0
C      1  0.3219840000000  0.6085080000000  0.5046540000000 1.0
C      1  0.6780160000000  0.3914910000000  0.4953460000000 1.0
C      1  0.4427250000000  0.6037710000000  0.6273640000000 1.0
C      1  0.5572750000000  0.3962300000000  0.3726360000000 1.0
C      1  0.3799450000000  0.4337900000000  0.6120650000000 1.0
C      1  0.6200550000000  0.5662100000000  0.3879350000000 1.0
C      1  0.6666580000000  0.4844710000000  0.6425100000000 1.0
C      1  0.3333420000000  0.5155290000000  0.3574900000000 1.0
C      1  0.6670560000000  0.3953550000000  0.6056620000000 1.0
C      1  0.3329440000000  0.6046450000000  0.3943380000000 1.0
C      1  0.4173510000000  0.3045900000000  0.3458870000000 1.0
C      1  0.5826490000000  0.6954100000000  0.6541130000000 1.0
C      1  0.4061480000000  0.6559640000000  0.5493400000000 1.0
C      1  0.5938520000000  0.3440360000000  0.4506600000000 1.0
C      1  0.6503200000000  0.6632630000000  0.5745230000000 1.0
C      1  0.3496800000000  0.3367370000000  0.4254770000000 1.0
C      1  0.5925210000000  0.3300990000000  0.6335780000000 1.0
C      1  0.4074790000000  0.6699000000000  0.3664220000000 1.0
C      1  0.5525150000000  0.5974780000000  0.7027460000000 1.0
C      1  0.4474850000000  0.4025230000000  0.2972550000000 1.0
C      1  0.5529830000000  0.3774580000000  0.5391200000000 1.0
C      1  0.4470170000000  0.6225420000000  0.4608800000000 1.0
C      1  0.4248770000000  0.7537520000000  0.5612480000000 1.0
C      1  0.5751230000000  0.2462480000000  0.4387520000000 1.0
C      1  0.3410930000000  0.3549400000000  0.5370520000000 1.0
C      1  0.6589060000000  0.6450590000000  0.4629480000000 1.0
C      1  0.4662910000000  0.4947380000000  0.6207340000000 1.0
C      1  0.5337090000000  0.5052620000000  0.3792670000000 1.0
C      1  0.2980780000000  0.5927660000000  0.6089760000000 1.0
C      1  0.7019210000000  0.4072330000000  0.3910230000000 1.0
C      1  0.6176300000000  0.7568460000000  0.5208970000000 1.0
C      1  0.3823700000000  0.2431540000000  0.4791030000000 1.0
C      1  0.4973500000000  0.2929790000000  0.5841210000000 1.0
C      1  0.5026500000000  0.7070210000000  0.4158780000000 1.0
C      1  0.5108810000000  0.4713370000000  0.7133570000000 1.0
C      1  0.4891190000000  0.5286640000000  0.2866430000000 1.0
C      1  0.5909880000000  0.6742740000000  0.3830120000000 1.0
C      1  0.4090120000000  0.3257250000000  0.6169880000000 1.0
C      1  0.3438960000000  0.5717530000000  0.7093910000000 1.0
C      1  0.6561040000000  0.4282470000000  0.2906090000000 1.0
C      1  0.5498990000000  0.4348030000000  0.2673240000000 1.0
C      1  0.4501010000000  0.5651970000000  0.7326760000000 1.0
C      1  0.4011810000000  0.7802710000000  0.6628390000000 1.0
C      1  0.5988190000000  0.2197300000000  0.3371610000000 1.0
C      1  0.4708990000000  0.6974590000000  0.6727840000000 1.0
C      1  0.5291010000000  0.3025410000000  0.3272160000000 1.0
C      1  0.3141950000000  0.4460120000000  0.4913830000000 1.0
C      1  0.6858060000000  0.5539880000000  0.5086180000000 1.0
C      1  0.5173370000000  0.7696580000000  0.4974040000000 1.0
C      1  0.4826630000000  0.2303420000000  0.5025960000000 1.0
C      1  0.3078840000000  0.4932120000000  0.6475530000000 1.0
C      1  0.6921160000000  0.5067880000000  0.3524470000000 1.0
C      1  0.4764740000000  0.2213570000000  0.3888120000000 1.0
C      1  0.5235260000000  0.7786430000000  0.6111870000000 1.0
C      1  0.5250770000000  0.4784450000000  0.5394850000000 1.0
C      1  0.4749240000000  0.5215560000000  0.4605150000000 1.0
END
