TITL C-3036485-3770-642 -9.96596975883135e-06 3375 -345.884004710261 0 0 60 (C2) n - 1
REM
REM in /home/bkarasulu/work/CARBON/AIRSS/Generating-Clusters/REBO/Higher-Symm/Only-C60
REM
REM
REM
REM
REM
REM ./C.cell (a2850807a9bf4ad07a5b6933b78d9264)
REM AIRSS Version 0.9.1 bugfix July 2018 build 013d7b7c2542+ Fri, 06 Jul 2018 19:26:36 +0100
REM compiler GCC version 9.2.1 20190827 (Red Hat 9.2.1-1)
REM options -cpp -mtune=generic -march=x86-64 -g -O0 -fpre-include=/usr/include/finclude/math-vector-fortran.h
REM seed -1021711609 -1793549632 -335842341 1823026836 -945912164 1202261331 -1869838089 -445041702 -711180579 -528927833 -1716488602 -998004998 -1374721525 -326058395 -229366887 1113992857 599875847 -2137216781 -1786126055 373462703 1863457050 440725759 -1148284822 -1909674767 1260505283 1267920987 2048989130 -1674956164 -1296263619 1004653734 -449199624 471777627 -1868790193
REM
CELL 1.54180   15.00000   15.00000   15.00000   90.00000   90.00000   90.00000
LATT -1
SFAC C  
C      1  0.6781770000000  0.5684360000000  0.4139860000000 1.0
C      1  0.3218230000000  0.4315640000000  0.4139860000000 1.0
C      1  0.5718800000000  0.7063200000000  0.5715730000000 1.0
C      1  0.4281200000000  0.2936800000000  0.5715730000000 1.0
C      1  0.3497390000000  0.5266100000000  0.3678390000000 1.0
C      1  0.6502610000000  0.4733900000000  0.3678390000000 1.0
C      1  0.4285500000000  0.4747740000000  0.6078350000000 1.0
C      1  0.5714500000000  0.5252260000000  0.6078350000000 1.0
C      1  0.4610500000000  0.5383810000000  0.6970000000000 1.0
C      1  0.5389500000000  0.4616190000000  0.6970000000000 1.0
C      1  0.5469760000000  0.4455100000000  0.3902940000000 1.0
C      1  0.4530240000000  0.5544900000000  0.3902940000000 1.0
C      1  0.6454690000000  0.4962660000000  0.6881390000000 1.0
C      1  0.3545310000000  0.5037340000000  0.6881390000000 1.0
C      1  0.5491180000000  0.4291190000000  0.4950580000000 1.0
C      1  0.4508820000000  0.5708810000000  0.4950580000000 1.0
C      1  0.4389790000000  0.3346420000000  0.3334160000000 1.0
C      1  0.5610210000000  0.6653580000000  0.3334160000000 1.0
C      1  0.4235150000000  0.5979300000000  0.2849970000000 1.0
C      1  0.5764850000000  0.4020700000000  0.2849970000000 1.0
C      1  0.4236420000000  0.6772860000000  0.6218510000000 1.0
C      1  0.5763580000000  0.3227140000000  0.6218510000000 1.0
C      1  0.5177860000000  0.3620450000000  0.6895640000000 1.0
C      1  0.4822140000000  0.6379550000000  0.6895640000000 1.0
C      1  0.5788970000000  0.3201680000000  0.4248090000000 1.0
C      1  0.4211030000000  0.6798320000000  0.4248090000000 1.0
C      1  0.4789260000000  0.3950940000000  0.5671090000000 1.0
C      1  0.5210740000000  0.6049060000000  0.5671090000000 1.0
C      1  0.6504930000000  0.6069950000000  0.6799200000000 1.0
C      1  0.3495070000000  0.3930050000000  0.6799200000000 1.0
C      1  0.6464570000000  0.7081170000000  0.5012720000000 1.0
C      1  0.3535430000000  0.2918830000000  0.5012720000000 1.0
C      1  0.4056620000000  0.3105530000000  0.4232920000000 1.0
C      1  0.5943380000000  0.6894470000000  0.4232920000000 1.0
C      1  0.5299180000000  0.3002100000000  0.5203150000000 1.0
C      1  0.4700820000000  0.6997900000000  0.5203150000000 1.0
C      1  0.6099300000000  0.5708800000000  0.3217570000000 1.0
C      1  0.3900700000000  0.4291200000000  0.3217570000000 1.0
C      1  0.5348390000000  0.3255080000000  0.3350720000000 1.0
C      1  0.4651610000000  0.6744920000000  0.3350720000000 1.0
C      1  0.6209030000000  0.3907740000000  0.5557890000000 1.0
C      1  0.3790970000000  0.6092260000000  0.5557890000000 1.0
C      1  0.2794160000000  0.6097620000000  0.5083800000000 1.0
C      1  0.7205840000000  0.3902380000000  0.5083800000000 1.0
C      1  0.5750700000000  0.6647830000000  0.6723490000000 1.0
C      1  0.4249300000000  0.3352170000000  0.6723490000000 1.0
C      1  0.5489090000000  0.5862420000000  0.4391680000000 1.0
C      1  0.4510910000000  0.4137580000000  0.4391680000000 1.0
C      1  0.3432010000000  0.6195160000000  0.4278630000000 1.0
C      1  0.6567990000000  0.3804840000000  0.4278630000000 1.0
C      1  0.4525320000000  0.5047070000000  0.2672680000000 1.0
C      1  0.5474680000000  0.4952930000000  0.2672680000000 1.0
C      1  0.3801950000000  0.4613050000000  0.5075620000000 1.0
C      1  0.6198050000000  0.5386950000000  0.5075620000000 1.0
C      1  0.6988830000000  0.4575870000000  0.5969730000000 1.0
C      1  0.3011170000000  0.5424130000000  0.5969730000000 1.0
C      1  0.2892520000000  0.3666810000000  0.5013180000000 1.0
C      1  0.7107480000000  0.6333190000000  0.5013180000000 1.0
C      1  0.3040350000000  0.4320640000000  0.5882310000000 1.0
C      1  0.6959650000000  0.5679360000000  0.5882310000000 1.0
END
