TITL C-3036480-97-162 -0.0301506186809293 3375 -326.637508421614 0 0 60 (C2) n - 1
REM
REM in /home/bkarasulu/work/CARBON/AIRSS/Generating-Clusters/REBO/Higher-Symm/Only-C60
REM
REM
REM
REM
REM
REM ./C.cell (a2850807a9bf4ad07a5b6933b78d9264)
REM AIRSS Version 0.9.1 bugfix July 2018 build 013d7b7c2542+ Fri, 06 Jul 2018 19:26:36 +0100
REM compiler GCC version 9.2.1 20190827 (Red Hat 9.2.1-1)
REM options -cpp -mtune=generic -march=x86-64 -g -O0 -fpre-include=/usr/include/finclude/math-vector-fortran.h
REM seed -1108726352 -2032237756 -1197882532 -1096401016 196408511 523646758 1043497410 -5386700 1469759386 1389600117 385551835 2101554811 -1099448444 2020582116 266171896 -126492653 -584893747 -1838630826 1712610527 398832566 1789408638 -1392254972 450389231 304527744 -589689482 -1491978967 -1000434749 -1591112811 -1405737761 -1035532911 -1665114321 -1910396465 -949139954
REM
CELL 1.54180   15.00000   15.00000   15.00000   90.00000   90.00000   90.00000
LATT -1
SFAC C  
C      1  0.6097850000000  0.5020160000000  0.3079920000000 1.0
C      1  0.6109030000000  0.3239930000000  0.5884540000000 1.0
C      1  0.6088760000000  0.6647860000000  0.6060290000000 1.0
C      1  0.3902110000000  0.5020120000000  0.6920040000000 1.0
C      1  0.3891040000000  0.3239990000000  0.4115520000000 1.0
C      1  0.3911210000000  0.6647910000000  0.3940030000000 1.0
C      1  0.5182410000000  0.6773280000000  0.6430000000000 1.0
C      1  0.5216400000000  0.5343320000000  0.2757600000000 1.0
C      1  0.5190260000000  0.2881840000000  0.5829490000000 1.0
C      1  0.4817480000000  0.6773260000000  0.3570020000000 1.0
C      1  0.4783560000000  0.5343310000000  0.7242380000000 1.0
C      1  0.4809750000000  0.2881860000000  0.4170520000000 1.0
C      1  0.4504500000000  0.6909330000000  0.4856000000000 1.0
C      1  0.4400240000000  0.3879580000000  0.3390030000000 1.0
C      1  0.4616360000000  0.4171740000000  0.6637830000000 1.0
C      1  0.5496210000000  0.6909750000000  0.5144260000000 1.0
C      1  0.5599770000000  0.3879570000000  0.6609980000000 1.0
C      1  0.5383650000000  0.4171740000000  0.3362130000000 1.0
C      1  0.4219960000000  0.5011680000000  0.2694550000000 1.0
C      1  0.4198400000000  0.3011790000000  0.6139680000000 1.0
C      1  0.4193040000000  0.6990660000000  0.6148300000000 1.0
C      1  0.5780020000000  0.5011760000000  0.7305430000000 1.0
C      1  0.5801610000000  0.3011820000000  0.3860330000000 1.0
C      1  0.5806860000000  0.6990660000000  0.3851710000000 1.0
C      1  0.6527950000000  0.5656000000000  0.4701330000000 1.0
C      1  0.6533960000000  0.4395610000000  0.4594620000000 1.0
C      1  0.6514680000000  0.4934700000000  0.5740930000000 1.0
C      1  0.3471930000000  0.5655980000000  0.5298700000000 1.0
C      1  0.3466020000000  0.4395500000000  0.5405310000000 1.0
C      1  0.3485290000000  0.4934650000000  0.4259130000000 1.0
C      1  0.3022700000000  0.4063330000000  0.6262460000000 1.0
C      1  0.2995580000000  0.6554690000000  0.5195700000000 1.0
C      1  0.2985900000000  0.4430850000000  0.3522050000000 1.0
C      1  0.6977290000000  0.4063420000000  0.3737540000000 1.0
C      1  0.7004510000000  0.6554680000000  0.4804100000000 1.0
C      1  0.7014060000000  0.4430850000000  0.6477960000000 1.0
C      1  0.3599250000000  0.4268330000000  0.2811720000000 1.0
C      1  0.3670550000000  0.3586420000000  0.6745270000000 1.0
C      1  0.3617360000000  0.7236810000000  0.5392590000000 1.0
C      1  0.6400700000000  0.4268380000000  0.7188300000000 1.0
C      1  0.6329470000000  0.3586440000000  0.3254740000000 1.0
C      1  0.6382830000000  0.7236920000000  0.4607090000000 1.0
C      1  0.3324120000000  0.5360310000000  0.6304630000000 1.0
C      1  0.3337510000000  0.5947580000000  0.4010800000000 1.0
C      1  0.3314050000000  0.3680360000000  0.4666980000000 1.0
C      1  0.6675800000000  0.5360330000000  0.3695390000000 1.0
C      1  0.6662480000000  0.5947560000000  0.5989240000000 1.0
C      1  0.6686000000000  0.3680390000000  0.5333020000000 1.0
C      1  0.5522020000000  0.5765610000000  0.5238260000000 1.0
C      1  0.5527720000000  0.4840140000000  0.4271100000000 1.0
C      1  0.5517900000000  0.4393650000000  0.5578200000000 1.0
C      1  0.4477890000000  0.5765300000000  0.4761750000000 1.0
C      1  0.4472260000000  0.4840180000000  0.5728890000000 1.0
C      1  0.4482050000000  0.4393510000000  0.4421850000000 1.0
C      1  0.4508810000000  0.3601590000000  0.5239190000000 1.0
C      1  0.4505000000000  0.5921150000000  0.6081040000000 1.0
C      1  0.4530240000000  0.5481520000000  0.3662560000000 1.0
C      1  0.5491060000000  0.3601600000000  0.4760660000000 1.0
C      1  0.5494890000000  0.5921170000000  0.3918960000000 1.0
C      1  0.5469670000000  0.5481550000000  0.6337370000000 1.0
END
