TITL C-3036482-790-251 -5.68719796665607e-06 3375 -326.54967283556 0 0 60 (C1) n - 1
REM
REM in /home/bkarasulu/work/CARBON/AIRSS/Generating-Clusters/REBO/Higher-Symm/Only-C60
REM
REM
REM
REM
REM
REM ./C.cell (a2850807a9bf4ad07a5b6933b78d9264)
REM AIRSS Version 0.9.1 bugfix July 2018 build 013d7b7c2542+ Fri, 06 Jul 2018 19:26:36 +0100
REM compiler GCC version 9.2.1 20190827 (Red Hat 9.2.1-1)
REM options -cpp -mtune=generic -march=x86-64 -g -O0 -fpre-include=/usr/include/finclude/math-vector-fortran.h
REM seed 382280343 1506275872 -1438668960 621120230 1711570910 -370961756 -1717369385 -1409503357 -942854517 954829892 227022836 -35923394 158753723 -440201197 -1428458369 1686958461 1205303034 1856923190 1632680510 -154884638 1026690755 1714940128 1297995356 588090744 2018548283 1665851802 -1900673782 -1771562847 -1241844697 1728184172 955434240 -51990678 78837390
REM
CELL 1.54180   15.00000   15.00000   15.00000   90.00000   90.00000   90.00000
LATT -1
SFAC C  
C      1  0.4029160000000  0.4536200000000  0.6389070000000 1.0
C      1  0.4468800000000  0.6401910000000  0.4117700000000 1.0
C      1  0.6532250000000  0.3935330000000  0.4419610000000 1.0
C      1  0.4032670000000  0.5546790000000  0.3552740000000 1.0
C      1  0.6030660000000  0.4332100000000  0.3540510000000 1.0
C      1  0.5808720000000  0.5491880000000  0.6473500000000 1.0
C      1  0.4379440000000  0.3610510000000  0.5955350000000 1.0
C      1  0.5450490000000  0.6434400000000  0.5953290000000 1.0
C      1  0.5635190000000  0.3416320000000  0.3991200000000 1.0
C      1  0.6337010000000  0.5900230000000  0.5599960000000 1.0
C      1  0.3514860000000  0.4125120000000  0.5491470000000 1.0
C      1  0.3559360000000  0.5895830000000  0.4485950000000 1.0
C      1  0.5912830000000  0.4393840000000  0.6387770000000 1.0
C      1  0.5538800000000  0.6278430000000  0.4131540000000 1.0
C      1  0.3622590000000  0.3994390000000  0.4413650000000 1.0
C      1  0.5911710000000  0.5411060000000  0.3570750000000 1.0
C      1  0.4151460000000  0.4466530000000  0.3590710000000 1.0
C      1  0.3954600000000  0.5607300000000  0.6486600000000 1.0
C      1  0.5468880000000  0.3519240000000  0.5863060000000 1.0
C      1  0.4377800000000  0.6441250000000  0.5929590000000 1.0
C      1  0.4549420000000  0.3537760000000  0.4048000000000 1.0
C      1  0.3439160000000  0.5996740000000  0.5569530000000 1.0
C      1  0.6386350000000  0.4032830000000  0.5483940000000 1.0
C      1  0.6437550000000  0.5774350000000  0.4509130000000 1.0
C      1  0.5423190000000  0.7261410000000  0.4465250000000 1.0
C      1  0.7338040000000  0.4457430000000  0.5337410000000 1.0
C      1  0.4288000000000  0.5777690000000  0.7495910000000 1.0
C      1  0.5583860000000  0.2500740000000  0.5511280000000 1.0
C      1  0.4607580000000  0.7365810000000  0.5513310000000 1.0
C      1  0.4715030000000  0.2608420000000  0.4506920000000 1.0
C      1  0.7456000000000  0.5417890000000  0.4421200000000 1.0
C      1  0.2648570000000  0.4332850000000  0.4505370000000 1.0
C      1  0.2438980000000  0.5619720000000  0.5724710000000 1.0
C      1  0.4542830000000  0.4710370000000  0.2654150000000 1.0
C      1  0.5513910000000  0.5619050000000  0.2575060000000 1.0
C      1  0.5551210000000  0.4523970000000  0.7347320000000 1.0
C      1  0.4347690000000  0.7431800000000  0.4403060000000 1.0
C      1  0.2500130000000  0.4489480000000  0.5580950000000 1.0
C      1  0.5416020000000  0.5604080000000  0.7476620000000 1.0
C      1  0.4501770000000  0.2641330000000  0.5617320000000 1.0
C      1  0.5693060000000  0.7422160000000  0.5566920000000 1.0
C      1  0.5779700000000  0.2422840000000  0.4389760000000 1.0
C      1  0.2629490000000  0.5451090000000  0.4667720000000 1.0
C      1  0.7541370000000  0.4288220000000  0.4280150000000 1.0
C      1  0.7307090000000  0.5572200000000  0.5494630000000 1.0
C      1  0.5654600000000  0.4533880000000  0.2605040000000 1.0
C      1  0.4383640000000  0.5782950000000  0.2557670000000 1.0
C      1  0.4437940000000  0.4709990000000  0.7339180000000 1.0
C      1  0.7918260000000  0.4938660000000  0.6120640000000 1.0
C      1  0.6223230000000  0.7925940000000  0.4778470000000 1.0
C      1  0.8133670000000  0.4980380000000  0.3705350000000 1.0
C      1  0.5059030000000  0.6409560000000  0.2000050000000 1.0
C      1  0.4882030000000  0.3927130000000  0.7949470000000 1.0
C      1  0.6331660000000  0.1837930000000  0.5105970000000 1.0
C      1  0.3888680000000  0.8082610000000  0.5126190000000 1.0
C      1  0.1837620000000  0.4938970000000  0.6303350000000 1.0
C      1  0.2042400000000  0.4975500000000  0.3884790000000 1.0
C      1  0.3915160000000  0.2022730000000  0.4954690000000 1.0
C      1  0.4962840000000  0.6349980000000  0.8110060000000 1.0
C      1  0.4975950000000  0.3984900000000  0.1969400000000 1.0
END
