TITL C-3036482-790-27 -1.32050091659024e-07 3375 -337.252936992748 0 0 60 (C1) n - 1
REM
REM in /home/bkarasulu/work/CARBON/AIRSS/Generating-Clusters/REBO/Higher-Symm/Only-C60
REM
REM
REM
REM
REM
REM ./C.cell (a2850807a9bf4ad07a5b6933b78d9264)
REM AIRSS Version 0.9.1 bugfix July 2018 build 013d7b7c2542+ Fri, 06 Jul 2018 19:26:36 +0100
REM compiler GCC version 9.2.1 20190827 (Red Hat 9.2.1-1)
REM options -cpp -mtune=generic -march=x86-64 -g -O0 -fpre-include=/usr/include/finclude/math-vector-fortran.h
REM seed 651816761 1273142418 239816095 1019354957 1210394337 -873278384 -1978234892 310056114 1181839830 -568895726 -695354001 -1454342731 11082822 -791735351 -1625704370 1497293046 -1774596289 982824569 2144837922 -1709243 -1073519643 1224096216 769511030 724460315 862325860 507639952 1175730227 1479234848 -1069658827 -1682373364 723099105 -995902226 -361667996
REM
CELL 1.54180   15.00000   15.00000   15.00000   90.00000   90.00000   90.00000
LATT -1
SFAC C  
C      1  0.3967350000000  0.5550000000000  0.6488080000000 1.0
C      1  0.4242210000000  0.5495810000000  0.3326110000000 1.0
C      1  0.6926830000000  0.5587480000000  0.5212750000000 1.0
C      1  0.3257630000000  0.4694690000000  0.6402640000000 1.0
C      1  0.4658740000000  0.4657030000000  0.2758200000000 1.0
C      1  0.7205010000000  0.4755710000000  0.5885960000000 1.0
C      1  0.3993750000000  0.4345260000000  0.7034650000000 1.0
C      1  0.3690240000000  0.4343390000000  0.2986970000000 1.0
C      1  0.7403550000000  0.4382770000000  0.4937350000000 1.0
C      1  0.5370700000000  0.2914790000000  0.4082820000000 1.0
C      1  0.5520130000000  0.2694210000000  0.5760020000000 1.0
C      1  0.3919400000000  0.2802990000000  0.5027720000000 1.0
C      1  0.2625360000000  0.4698380000000  0.5719480000000 1.0
C      1  0.5583930000000  0.4645320000000  0.2615270000000 1.0
C      1  0.6893730000000  0.4760580000000  0.6770660000000 1.0
C      1  0.6052290000000  0.7415320000000  0.4136360000000 1.0
C      1  0.5208450000000  0.7418570000000  0.6291020000000 1.0
C      1  0.3746790000000  0.7370090000000  0.4504940000000 1.0
C      1  0.3517290000000  0.6434690000000  0.6061990000000 1.0
C      1  0.4852840000000  0.6371490000000  0.3226960000000 1.0
C      1  0.6686500000000  0.6468070000000  0.5792360000000 1.0
C      1  0.2353630000000  0.5589260000000  0.5177500000000 1.0
C      1  0.6212890000000  0.5519390000000  0.2655470000000 1.0
C      1  0.6474840000000  0.5624140000000  0.7262470000000 1.0
C      1  0.5351180000000  0.4690320000000  0.5634510000000 1.0
C      1  0.3868560000000  0.4579500000000  0.4861940000000 1.0
C      1  0.5523300000000  0.4641210000000  0.4569800000000 1.0
C      1  0.4321050000000  0.6542130000000  0.4126500000000 1.0
C      1  0.6206550000000  0.6642200000000  0.4865330000000 1.0
C      1  0.4559510000000  0.6619530000000  0.5983770000000 1.0
C      1  0.4891180000000  0.3892030000000  0.4084620000000 1.0
C      1  0.5947520000000  0.3720910000000  0.5539240000000 1.0
C      1  0.4165290000000  0.3805210000000  0.5388590000000 1.0
C      1  0.3269240000000  0.3738500000000  0.4410960000000 1.0
C      1  0.6189410000000  0.3959610000000  0.4036700000000 1.0
C      1  0.5453540000000  0.3962430000000  0.6470100000000 1.0
C      1  0.6016360000000  0.4390590000000  0.7154310000000 1.0
C      1  0.2561340000000  0.4356430000000  0.4747120000000 1.0
C      1  0.6389950000000  0.4321010000000  0.3185440000000 1.0
C      1  0.4270320000000  0.2938840000000  0.4053390000000 1.0
C      1  0.6078440000000  0.2880680000000  0.4804120000000 1.0
C      1  0.4531690000000  0.2889370000000  0.5960890000000 1.0
C      1  0.7340740000000  0.5189690000000  0.4232310000000 1.0
C      1  0.4572170000000  0.5167650000000  0.7370220000000 1.0
C      1  0.3159500000000  0.5168490000000  0.3423910000000 1.0
C      1  0.4985420000000  0.5554040000000  0.5974130000000 1.0
C      1  0.3968760000000  0.5484660000000  0.4434530000000 1.0
C      1  0.6009870000000  0.5561470000000  0.4534710000000 1.0
C      1  0.6914070000000  0.3622570000000  0.4634650000000 1.0
C      1  0.4518540000000  0.3630120000000  0.6729580000000 1.0
C      1  0.3579150000000  0.3540110000000  0.3475360000000 1.0
C      1  0.5709900000000  0.6317420000000  0.2597290000000 1.0
C      1  0.6744090000000  0.6431900000000  0.6854270000000 1.0
C      1  0.2521010000000  0.6368160000000  0.5686190000000 1.0
C      1  0.6992650000000  0.5158240000000  0.3345380000000 1.0
C      1  0.5500920000000  0.5187870000000  0.7552840000000 1.0
C      1  0.2554390000000  0.5209880000000  0.4152430000000 1.0
C      1  0.5668180000000  0.6455270000000  0.6069470000000 1.0
C      1  0.3668490000000  0.6411170000000  0.5015930000000 1.0
C      1  0.5633610000000  0.6431370000000  0.3921740000000 1.0
END
