TITL C-3036481-494-861 -4.0324333209563e-06 3375 -345.591098573394 0 0 60 (Ci) n - 1
REM
REM in /home/bkarasulu/work/CARBON/AIRSS/Generating-Clusters/REBO/Higher-Symm/Only-C60
REM
REM
REM
REM
REM
REM ./C.cell (a2850807a9bf4ad07a5b6933b78d9264)
REM AIRSS Version 0.9.1 bugfix July 2018 build 013d7b7c2542+ Fri, 06 Jul 2018 19:26:36 +0100
REM compiler GCC version 9.2.1 20190827 (Red Hat 9.2.1-1)
REM options -cpp -mtune=generic -march=x86-64 -g -O0 -fpre-include=/usr/include/finclude/math-vector-fortran.h
REM seed -1147242378 -544011921 401665412 -67402140 1195626077 1857155307 1099753934 -801919865 581034586 358699294 -744646553 -107254315 -2131421515 -2027986586 1042549482 -23551338 2089796486 -1359794106 602549827 -51908594 2019454733 -1824958441 -429334114 617547456 -199258895 498255745 1026723050 -1125051989 -462876958 120005755 -2056515974 972091405 1408709012
REM
CELL 1.54180   15.00000   15.00000   15.00000   90.00000   90.00000   90.00000
LATT -1
SFAC C  
C      1  0.2949140000000  0.4373210000000  0.6001150000000 1.0
C      1  0.3163380000000  0.5994980000000  0.5012020000000 1.0
C      1  0.3156220000000  0.4404750000000  0.4141090000000 1.0
C      1  0.6871100000000  0.4552440000000  0.3994840000000 1.0
C      1  0.6989920000000  0.6155860000000  0.5000860000000 1.0
C      1  0.6748230000000  0.4548980000000  0.5839450000000 1.0
C      1  0.7050860000000  0.5626790000000  0.3998850000000 1.0
C      1  0.6836620000000  0.4005020000000  0.4987980000000 1.0
C      1  0.6843780000000  0.5595250000000  0.5858910000000 1.0
C      1  0.3128910000000  0.5447560000000  0.6005160000000 1.0
C      1  0.3010080000000  0.3844140000000  0.4999140000000 1.0
C      1  0.3251770000000  0.5451020000000  0.4160550000000 1.0
C      1  0.5334170000000  0.4565670000000  0.5894120000000 1.0
C      1  0.5710620000000  0.5968510000000  0.5265590000000 1.0
C      1  0.5787250000000  0.4458680000000  0.4229620000000 1.0
C      1  0.4487840000000  0.4515080000000  0.3971070000000 1.0
C      1  0.4474650000000  0.5899050000000  0.4835360000000 1.0
C      1  0.4026600000000  0.4434430000000  0.5728550000000 1.0
C      1  0.4665830000000  0.5434330000000  0.4105880000000 1.0
C      1  0.4289380000000  0.4031490000000  0.4734410000000 1.0
C      1  0.4212750000000  0.5541320000000  0.5770380000000 1.0
C      1  0.5512160000000  0.5484920000000  0.6028930000000 1.0
C      1  0.5525350000000  0.4100950000000  0.5164640000000 1.0
C      1  0.5973400000000  0.5565570000000  0.4271450000000 1.0
C      1  0.6354620000000  0.3114690000000  0.4948900000000 1.0
C      1  0.6453270000000  0.6117560000000  0.6690550000000 1.0
C      1  0.6443420000000  0.5947500000000  0.3094560000000 1.0
C      1  0.3570550000000  0.2993510000000  0.5049950000000 1.0
C      1  0.3698390000000  0.5937200000000  0.3362710000000 1.0
C      1  0.3665730000000  0.5864370000000  0.6917990000000 1.0
C      1  0.3645380000000  0.6885310000000  0.5051110000000 1.0
C      1  0.3546730000000  0.3882440000000  0.3309450000000 1.0
C      1  0.3556580000000  0.4052500000000  0.6905440000000 1.0
C      1  0.6429450000000  0.7006490000000  0.4950050000000 1.0
C      1  0.6301610000000  0.4062800000000  0.6637290000000 1.0
C      1  0.6334270000000  0.4135630000000  0.3082010000000 1.0
C      1  0.4311170000000  0.2722640000000  0.4355110000000 1.0
C      1  0.4457960000000  0.5431080000000  0.7476790000000 1.0
C      1  0.4469210000000  0.6624980000000  0.3545170000000 1.0
C      1  0.5637280000000  0.2818530000000  0.5647480000000 1.0
C      1  0.5671720000000  0.5555830000000  0.2473480000000 1.0
C      1  0.5630080000000  0.6746870000000  0.6474980000000 1.0
C      1  0.5688830000000  0.7277360000000  0.5644890000000 1.0
C      1  0.5542040000000  0.4568920000000  0.2523210000000 1.0
C      1  0.5530790000000  0.3375020000000  0.6454830000000 1.0
C      1  0.4362720000000  0.7181460000000  0.4352520000000 1.0
C      1  0.4328280000000  0.4444170000000  0.7526520000000 1.0
C      1  0.4369920000000  0.3253130000000  0.3525020000000 1.0
C      1  0.4666060000000  0.6774430000000  0.5560470000000 1.0
C      1  0.4470250000000  0.4367100000000  0.2840220000000 1.0
C      1  0.4502800000000  0.3699680000000  0.6465480000000 1.0
C      1  0.5419870000000  0.6759970000000  0.4471990000000 1.0
C      1  0.5348930000000  0.4549960000000  0.7036620000000 1.0
C      1  0.5401490000000  0.3680080000000  0.3483260000000 1.0
C      1  0.5333940000000  0.3225570000000  0.4439530000000 1.0
C      1  0.5529750000000  0.5632900000000  0.7159780000000 1.0
C      1  0.5497200000000  0.6300320000000  0.3534520000000 1.0
C      1  0.4580130000000  0.3240030000000  0.5528010000000 1.0
C      1  0.4651070000000  0.5450040000000  0.2963380000000 1.0
C      1  0.4598510000000  0.6319920000000  0.6516740000000 1.0
END
