TITL C-3036481-494-374 4.86212847814124e-06 3375 -342.70709620764 0 0 60 (C5) n - 1
REM
REM in /home/bkarasulu/work/CARBON/AIRSS/Generating-Clusters/REBO/Higher-Symm/Only-C60
REM
REM
REM
REM
REM
REM ./C.cell (a2850807a9bf4ad07a5b6933b78d9264)
REM AIRSS Version 0.9.1 bugfix July 2018 build 013d7b7c2542+ Fri, 06 Jul 2018 19:26:36 +0100
REM compiler GCC version 9.2.1 20190827 (Red Hat 9.2.1-1)
REM options -cpp -mtune=generic -march=x86-64 -g -O0 -fpre-include=/usr/include/finclude/math-vector-fortran.h
REM seed -843680094 -1808522826 2098197074 -54994295 1009540737 -1992931258 -1099379002 334343509 645755832 -549991753 1566583803 -607597620 -1151102984 1530814094 1019344181 916062853 1869951548 -1510449311 -1793380873 -2024512782 -753252879 1190572739 -1784531484 -666442704 1278734887 1655950999 -1264325097 1209283205 1823709061 -329774846 2048946734 -1396910220 -1143090253
REM
CELL 1.54180   15.00000   15.00000   15.00000   90.00000   90.00000   90.00000
LATT -1
SFAC C  
C      1  0.5713630000000  0.7283850000000  0.6252750000000 1.0
C      1  0.3048450000000  0.6384450000000  0.6252750000000 1.0
C      1  0.3080250000000  0.3571780000000  0.6252760000000 1.0
C      1  0.5765070000000  0.2732870000000  0.6252760000000 1.0
C      1  0.7392590000000  0.5027050000000  0.6252750000000 1.0
C      1  0.5746720000000  0.5316810000000  0.5669410000000 1.0
C      1  0.4929440000000  0.5808070000000  0.5669410000000 1.0
C      1  0.4209680000000  0.5182600000000  0.5669410000000 1.0
C      1  0.4582110000000  0.4304780000000  0.5669410000000 1.0
C      1  0.5532060000000  0.4387730000000  0.5669410000000 1.0
C      1  0.5963610000000  0.3824070000000  0.3231990000000 1.0
C      1  0.6416150000000  0.5553060000000  0.3231990000000 1.0
C      1  0.4911620000000  0.6517750000000  0.3231990000000 1.0
C      1  0.3529230000000  0.5384950000000  0.3231990000000 1.0
C      1  0.4179390000000  0.3720170000000  0.3231990000000 1.0
C      1  0.6589080000000  0.4293510000000  0.6660980000000 1.0
C      1  0.6162960000000  0.6292990000000  0.6660970000000 1.0
C      1  0.4129670000000  0.6505600000000  0.6660980000000 1.0
C      1  0.3299140000000  0.4637520000000  0.6660980000000 1.0
C      1  0.4819140000000  0.3270380000000  0.6660980000000 1.0
C      1  0.5719700000000  0.7105590000000  0.5138320000000 1.0
C      1  0.3219860000000  0.6335140000000  0.5138320000000 1.0
C      1  0.3180120000000  0.3719570000000  0.5138320000000 1.0
C      1  0.5655390000000  0.2873510000000  0.5138320000000 1.0
C      1  0.7224940000000  0.4966190000000  0.5138320000000 1.0
C      1  0.3415620000000  0.4295320000000  0.2940400000000 1.0
C      1  0.5180590000000  0.3275410000000  0.2940400000000 1.0
C      1  0.6695990000000  0.4638820000000  0.2940400000000 1.0
C      1  0.5867590000000  0.6501370000000  0.2940400000000 1.0
C      1  0.3840210000000  0.6289080000000  0.2940400000000 1.0
C      1  0.4761220000000  0.2537830000000  0.5793820000000 1.0
C      1  0.7267870000000  0.4012050000000  0.5793820000000 1.0
C      1  0.6640400000000  0.6851590000000  0.5793820000000 1.0
C      1  0.3745940000000  0.7132290000000  0.5793830000000 1.0
C      1  0.2584550000000  0.4466240000000  0.5793820000000 1.0
C      1  0.5551890000000  0.4304820000000  0.4103670000000 1.0
C      1  0.5831700000000  0.5310050000000  0.4103670000000 1.0
C      1  0.4962140000000  0.5886810000000  0.4103670000000 1.0
C      1  0.4144900000000  0.5238020000000  0.4103670000000 1.0
C      1  0.4509380000000  0.4260300000000  0.4103670000000 1.0
C      1  0.6666570000000  0.6551070000000  0.3715580000000 1.0
C      1  0.4039850000000  0.7064310000000  0.3715580000000 1.0
C      1  0.2740020000000  0.4724740000000  0.3715580000000 1.0
C      1  0.4563410000000  0.2765570000000  0.3715580000000 1.0
C      1  0.6990150000000  0.3894300000000  0.3715580000000 1.0
C      1  0.5965820000000  0.3809820000000  0.4940690000000 1.0
C      1  0.6430380000000  0.5550770000000  0.4940690000000 1.0
C      1  0.4918200000000  0.6530570000000  0.4940690000000 1.0
C      1  0.3519070000000  0.5395180000000  0.4940690000000 1.0
C      1  0.4166530000000  0.3713660000000  0.4940690000000 1.0
C      1  0.2783160000000  0.4678530000000  0.4721450000000 1.0
C      1  0.4620690000000  0.2792320000000  0.4721440000000 1.0
C      1  0.6982420000000  0.3957050000000  0.4721440000000 1.0
C      1  0.6604510000000  0.6563100000000  0.4721450000000 1.0
C      1  0.4009230000000  0.7009000000000  0.4721450000000 1.0
C      1  0.3512810000000  0.5567170000000  0.6830940000000 1.0
C      1  0.4001020000000  0.3760870000000  0.6830940000000 1.0
C      1  0.5869780000000  0.3667000000000  0.6830940000000 1.0
C      1  0.6536530000000  0.5415300000000  0.6830930000000 1.0
C      1  0.5079840000000  0.6589670000000  0.6830930000000 1.0
END
