TITL C-3036481-494-605 0.191098951075434 3375 -330.27205153903 0 0 60 (C1) n - 1
REM
REM in /home/bkarasulu/work/CARBON/AIRSS/Generating-Clusters/REBO/Higher-Symm/Only-C60
REM
REM
REM
REM
REM
REM ./C.cell (a2850807a9bf4ad07a5b6933b78d9264)
REM AIRSS Version 0.9.1 bugfix July 2018 build 013d7b7c2542+ Fri, 06 Jul 2018 19:26:36 +0100
REM compiler GCC version 9.2.1 20190827 (Red Hat 9.2.1-1)
REM options -cpp -mtune=generic -march=x86-64 -g -O0 -fpre-include=/usr/include/finclude/math-vector-fortran.h
REM seed -67657998 -346527513 -1972407574 -63016416 -1819962181 -598851105 -546867369 997956962 -1529359596 896366266 1819705044 -2124310262 -720695689 477153308 2020033879 -994088321 -1739859959 30073613 1262640378 -30646459 991903167 168202715 680242815 1186735588 -214685869 1947982116 -832484315 762801595 1818634703 -126428892 136983339 -351114389 -858181199
REM
CELL 1.54180   15.00000   15.00000   15.00000   90.00000   90.00000   90.00000
LATT -1
SFAC C  
C      1  0.5622230000000  0.4250210000000  0.4876160000000 1.0
C      1  0.4438850000000  0.4617560000000  0.5621400000000 1.0
C      1  0.5482890000000  0.4758360000000  0.7560110000000 1.0
C      1  0.5317700000000  0.5069190000000  0.3455980000000 1.0
C      1  0.3823450000000  0.4520830000000  0.6505190000000 1.0
C      1  0.6330880000000  0.6551540000000  0.7057540000000 1.0
C      1  0.2848740000000  0.4720470000000  0.6048660000000 1.0
C      1  0.6700900000000  0.5520120000000  0.3456680000000 1.0
C      1  0.2599260000000  0.5602980000000  0.5464290000000 1.0
C      1  0.3385110000000  0.6681320000000  0.4495250000000 1.0
C      1  0.4002310000000  0.2820210000000  0.5863890000000 1.0
C      1  0.6727340000000  0.2402010000000  0.4182750000000 1.0
C      1  0.3308810000000  0.5731530000000  0.6334940000000 1.0
C      1  0.6092000000000  0.2745870000000  0.4943110000000 1.0
C      1  0.5536010000000  0.4605300000000  0.5907130000000 1.0
C      1  0.5498280000000  0.6854150000000  0.6713310000000 1.0
C      1  0.5008650000000  0.3949890000000  0.6622000000000 1.0
C      1  0.3535440000000  0.5236490000000  0.3642480000000 1.0
C      1  0.4810130000000  0.6633610000000  0.4015350000000 1.0
C      1  0.3915640000000  0.4801610000000  0.4623040000000 1.0
C      1  0.7069170000000  0.4398610000000  0.6288010000000 1.0
C      1  0.5937830000000  0.7280260000000  0.4213090000000 1.0
C      1  0.3420770000000  0.3768070000000  0.5815980000000 1.0
C      1  0.5542740000000  0.7203830000000  0.5853440000000 1.0
C      1  0.3173240000000  0.2963710000000  0.4508390000000 1.0
C      1  0.3974310000000  0.6989710000000  0.5190110000000 1.0
C      1  0.6885930000000  0.5068900000000  0.5779050000000 1.0
C      1  0.3892620000000  0.2434130000000  0.4877320000000 1.0
C      1  0.6574050000000  0.4372980000000  0.4356050000000 1.0
C      1  0.4480920000000  0.4959380000000  0.2744270000000 1.0
C      1  0.4339340000000  0.3656210000000  0.5142200000000 1.0
C      1  0.7875690000000  0.5467770000000  0.4225450000000 1.0
C      1  0.5639360000000  0.3636930000000  0.3151590000000 1.0
C      1  0.4622920000000  0.3952780000000  0.3247180000000 1.0
C      1  0.6227210000000  0.3405410000000  0.4029030000000 1.0
C      1  0.5000260000000  0.7293110000000  0.4896700000000 1.0
C      1  0.3861030000000  0.5903010000000  0.2864700000000 1.0
C      1  0.4997880000000  0.5978970000000  0.2871410000000 1.0
C      1  0.6236690000000  0.4539840000000  0.3330640000000 1.0
C      1  0.7073360000000  0.5134500000000  0.4717940000000 1.0
C      1  0.4451880000000  0.4664440000000  0.7322690000000 1.0
C      1  0.6385380000000  0.5872250000000  0.5158300000000 1.0
C      1  0.5417460000000  0.5903260000000  0.4574170000000 1.0
C      1  0.6229160000000  0.6892390000000  0.5179080000000 1.0
C      1  0.6243180000000  0.6230420000000  0.3862300000000 1.0
C      1  0.4930730000000  0.3598900000000  0.4261710000000 1.0
C      1  0.3623440000000  0.4240950000000  0.3463500000000 1.0
C      1  0.5549220000000  0.6852590000000  0.3220790000000 1.0
C      1  0.3880380000000  0.6515790000000  0.3726550000000 1.0
C      1  0.5667650000000  0.2755930000000  0.5745730000000 1.0
C      1  0.4684770000000  0.2559010000000  0.4406930000000 1.0
C      1  0.2652160000000  0.6154190000000  0.4767990000000 1.0
C      1  0.4727010000000  0.6383650000000  0.6999300000000 1.0
C      1  0.5987190000000  0.4966530000000  0.6815950000000 1.0
C      1  0.4980080000000  0.4971180000000  0.4449660000000 1.0
C      1  0.3303760000000  0.3875580000000  0.4339090000000 1.0
C      1  0.4945960000000  0.3062570000000  0.6264730000000 1.0
C      1  0.4132660000000  0.5700210000000  0.7015490000000 1.0
C      1  0.6581510000000  0.5682990000000  0.6920140000000 1.0
C      1  0.3816470000000  0.6635810000000  0.6014100000000 1.0
END
