TITL C-3036484-3770-1134 0.0129777427373897 3375 -336.53009527235 0 0 60 (C1) n - 1
REM
REM in /home/bkarasulu/work/CARBON/AIRSS/Generating-Clusters/REBO/Higher-Symm/Only-C60
REM
REM
REM
REM
REM
REM ./C.cell (a2850807a9bf4ad07a5b6933b78d9264)
REM AIRSS Version 0.9.1 bugfix July 2018 build 013d7b7c2542+ Fri, 06 Jul 2018 19:26:36 +0100
REM compiler GCC version 9.2.1 20190827 (Red Hat 9.2.1-1)
REM options -cpp -mtune=generic -march=x86-64 -g -O0 -fpre-include=/usr/include/finclude/math-vector-fortran.h
REM seed -1919024584 -1425841310 -785219959 -831428528 -1410241873 -780707675 1477288912 1509759270 -1870362887 -239242803 -1781514816 -356169273 1962171612 172186442 -1741430300 -2096001446 -1052285780 1775851187 -996686199 -2032272949 -183433839 1372871732 698498379 848673453 1431773036 1013208689 1713219005 -1417864271 -1268477488 -673927346 1894554017 1307118080 -624272095
REM
CELL 1.54180   15.00000   15.00000   15.00000   90.00000   90.00000   90.00000
LATT -1
SFAC C  
C      1  0.5154290000000  0.4582150000000  0.5828230000000 1.0
C      1  0.5056570000000  0.4314880000000  0.4348470000000 1.0
C      1  0.4739320000000  0.5877400000000  0.4881300000000 1.0
C      1  0.4275350000000  0.7145150000000  0.3458080000000 1.0
C      1  0.4320780000000  0.5281090000000  0.7518810000000 1.0
C      1  0.4292370000000  0.2809230000000  0.4012730000000 1.0
C      1  0.5351590000000  0.4597780000000  0.3083580000000 1.0
C      1  0.5313750000000  0.6881370000000  0.5544330000000 1.0
C      1  0.5385720000000  0.3419660000000  0.6425750000000 1.0
C      1  0.6598310000000  0.4841160000000  0.6829420000000 1.0
C      1  0.6600340000000  0.3549240000000  0.3954590000000 1.0
C      1  0.6597210000000  0.6726100000000  0.4255470000000 1.0
C      1  0.4661940000000  0.6065570000000  0.7080750000000 1.0
C      1  0.4434070000000  0.2771450000000  0.5045830000000 1.0
C      1  0.4730920000000  0.6273620000000  0.2988350000000 1.0
C      1  0.5298230000000  0.4489560000000  0.6821110000000 1.0
C      1  0.5296410000000  0.3617670000000  0.3653130000000 1.0
C      1  0.5106690000000  0.6845450000000  0.4444970000000 1.0
C      1  0.3563220000000  0.4946330000000  0.2807130000000 1.0
C      1  0.3650060000000  0.6861330000000  0.6064040000000 1.0
C      1  0.3620540000000  0.3136030000000  0.6213190000000 1.0
C      1  0.5744910000000  0.5647970000000  0.5302810000000 1.0
C      1  0.5870070000000  0.4033180000000  0.5361120000000 1.0
C      1  0.5696930000000  0.5114840000000  0.4353730000000 1.0
C      1  0.3816240000000  0.5223070000000  0.6244500000000 1.0
C      1  0.3472660000000  0.3618840000000  0.4683270000000 1.0
C      1  0.3282600000000  0.6063930000000  0.3877280000000 1.0
C      1  0.5757680000000  0.5313090000000  0.7069840000000 1.0
C      1  0.5803600000000  0.3004650000000  0.4279950000000 1.0
C      1  0.5765880000000  0.6664350000000  0.3780710000000 1.0
C      1  0.4229830000000  0.7936230000000  0.3080920000000 1.0
C      1  0.4197590000000  0.5250920000000  0.8418490000000 1.0
C      1  0.4470470000000  0.2104830000000  0.3450830000000 1.0
C      1  0.3401830000000  0.6052970000000  0.6401730000000 1.0
C      1  0.3117390000000  0.3176110000000  0.5440170000000 1.0
C      1  0.2966400000000  0.5539410000000  0.3193640000000 1.0
C      1  0.5548860000000  0.5674470000000  0.3378460000000 1.0
C      1  0.5416800000000  0.6055620000000  0.6315880000000 1.0
C      1  0.5407700000000  0.3052970000000  0.5342230000000 1.0
C      1  0.7160740000000  0.5421800000000  0.6329140000000 1.0
C      1  0.7275230000000  0.3618260000000  0.4633380000000 1.0
C      1  0.7172090000000  0.6007660000000  0.4004350000000 1.0
C      1  0.4444300000000  0.3925970000000  0.4917170000000 1.0
C      1  0.4327630000000  0.5904690000000  0.3923420000000 1.0
C      1  0.4491160000000  0.5181600000000  0.5591280000000 1.0
C      1  0.6379010000000  0.4364500000000  0.3488220000000 1.0
C      1  0.6398330000000  0.6797850000000  0.5211790000000 1.0
C      1  0.6424400000000  0.3914220000000  0.6424510000000 1.0
C      1  0.3979630000000  0.4514200000000  0.6948130000000 1.0
C      1  0.3966190000000  0.3695990000000  0.3696830000000 1.0
C      1  0.3825610000000  0.6902390000000  0.4429020000000 1.0
C      1  0.4023110000000  0.2087680000000  0.5497130000000 1.0
C      1  0.4520410000000  0.6135640000000  0.2100110000000 1.0
C      1  0.4404270000000  0.6900790000000  0.7389810000000 1.0
C      1  0.6756480000000  0.5975740000000  0.5696970000000 1.0
C      1  0.6939350000000  0.3840720000000  0.5441870000000 1.0
C      1  0.6746680000000  0.5182850000000  0.3908050000000 1.0
C      1  0.4253260000000  0.4372870000000  0.3108630000000 1.0
C      1  0.4205140000000  0.7053810000000  0.5370810000000 1.0
C      1  0.4291850000000  0.3641090000000  0.6654570000000 1.0
END
