TITL C-3036479-9801-206 1.53994449930294e-05 3375 -334.594705360272 0 0 60 (C1) n - 1
REM
REM in /home/bkarasulu/work/CARBON/AIRSS/Generating-Clusters/REBO/Higher-Symm/Only-C60
REM
REM
REM
REM
REM
REM ./C.cell (a2850807a9bf4ad07a5b6933b78d9264)
REM AIRSS Version 0.9.1 bugfix July 2018 build 013d7b7c2542+ Fri, 06 Jul 2018 19:26:36 +0100
REM compiler GCC version 9.2.1 20190827 (Red Hat 9.2.1-1)
REM options -cpp -mtune=generic -march=x86-64 -g -O0 -fpre-include=/usr/include/finclude/math-vector-fortran.h
REM seed -1652757947 1127541032 -754192493 -1958343838 -208606763 -1953402147 -106848640 -52384110 -1067549968 -1241070186 1400364939 -665134031 -1793720535 1193597687 -1283111077 1281886624 -173688606 -1355318783 -1076532145 -107968705 6666222 216725014 351406866 698305468 2087206614 -1000757640 1129050540 -1178982509 73082880 346276610 1782976061 -1912118589 1761160133
REM
CELL 1.54180   15.00000   15.00000   15.00000   90.00000   90.00000   90.00000
LATT -1
SFAC C  
C      1  0.3064930000000  0.4996180000000  0.4050510000000 1.0
C      1  0.3144740000000  0.4142700000000  0.4735340000000 1.0
C      1  0.3109600000000  0.4471510000000  0.5735800000000 1.0
C      1  0.3106550000000  0.5609490000000  0.5699350000000 1.0
C      1  0.3175600000000  0.5862490000000  0.4662660000000 1.0
C      1  0.6746230000000  0.4883680000000  0.4257890000000 1.0
C      1  0.6753460000000  0.4221710000000  0.4931240000000 1.0
C      1  0.6735030000000  0.4658860000000  0.5765800000000 1.0
C      1  0.6724420000000  0.5591330000000  0.5601350000000 1.0
C      1  0.6765060000000  0.5738730000000  0.4666190000000 1.0
C      1  0.3735560000000  0.6527390000000  0.3955280000000 1.0
C      1  0.3502630000000  0.4496360000000  0.3121120000000 1.0
C      1  0.3743440000000  0.3195860000000  0.4909880000000 1.0
C      1  0.3640910000000  0.4319400000000  0.6739870000000 1.0
C      1  0.3671470000000  0.6522240000000  0.6118480000000 1.0
C      1  0.5036870000000  0.5635670000000  0.6119940000000 1.0
C      1  0.5074950000000  0.6014670000000  0.4493040000000 1.0
C      1  0.5063290000000  0.4979370000000  0.4170890000000 1.0
C      1  0.5068380000000  0.3889850000000  0.4493360000000 1.0
C      1  0.5058390000000  0.4500050000000  0.6115790000000 1.0
C      1  0.5762350000000  0.2348570000000  0.4163820000000 1.0
C      1  0.5588270000000  0.3406750000000  0.7295460000000 1.0
C      1  0.5688210000000  0.6706790000000  0.7262860000000 1.0
C      1  0.5596470000000  0.7619010000000  0.4114600000000 1.0
C      1  0.5568880000000  0.4483140000000  0.2425700000000 1.0
C      1  0.5955870000000  0.5462580000000  0.2838380000000 1.0
C      1  0.6191970000000  0.3112250000000  0.3716060000000 1.0
C      1  0.6086510000000  0.3251480000000  0.6476230000000 1.0
C      1  0.6201700000000  0.5870530000000  0.7191350000000 1.0
C      1  0.6092790000000  0.7292230000000  0.4883730000000 1.0
C      1  0.4972370000000  0.2767210000000  0.4690270000000 1.0
C      1  0.4875870000000  0.4203830000000  0.7202980000000 1.0
C      1  0.4912150000000  0.6681640000000  0.6558550000000 1.0
C      1  0.4989960000000  0.6836530000000  0.3700090000000 1.0
C      1  0.4616200000000  0.4408650000000  0.2411300000000 1.0
C      1  0.4348790000000  0.3455130000000  0.6531390000000 1.0
C      1  0.4136130000000  0.6024690000000  0.7039740000000 1.0
C      1  0.4406740000000  0.7153650000000  0.4629630000000 1.0
C      1  0.4118950000000  0.5340440000000  0.2676150000000 1.0
C      1  0.4229140000000  0.3052460000000  0.3886780000000 1.0
C      1  0.4055290000000  0.4139240000000  0.4049380000000 1.0
C      1  0.4172490000000  0.4038880000000  0.5565090000000 1.0
C      1  0.4000440000000  0.5263640000000  0.6254590000000 1.0
C      1  0.4168800000000  0.6167780000000  0.5149440000000 1.0
C      1  0.4095150000000  0.5447240000000  0.3807800000000 1.0
C      1  0.6092550000000  0.3480690000000  0.4777940000000 1.0
C      1  0.6097300000000  0.4325900000000  0.6476070000000 1.0
C      1  0.6059730000000  0.6125210000000  0.6127290000000 1.0
C      1  0.6108550000000  0.6400680000000  0.4272940000000 1.0
C      1  0.5979940000000  0.4763610000000  0.3645220000000 1.0
C      1  0.6096050000000  0.6304050000000  0.3184810000000 1.0
C      1  0.6027090000000  0.3809370000000  0.3125450000000 1.0
C      1  0.6080340000000  0.2890910000000  0.5641070000000 1.0
C      1  0.6248030000000  0.4963730000000  0.7313980000000 1.0
C      1  0.6068170000000  0.7107510000000  0.5773610000000 1.0
C      1  0.4141280000000  0.4993220000000  0.7520370000000 1.0
C      1  0.4417010000000  0.7301250000000  0.5753890000000 1.0
C      1  0.4268780000000  0.6418720000000  0.2954930000000 1.0
C      1  0.4121100000000  0.3568990000000  0.2879710000000 1.0
C      1  0.4441070000000  0.2754270000000  0.5687580000000 1.0
END
