TITL C-3036479-9801-875 2.95848783950044e-05 3375 -339.996638405164 0 0 60 (C1) n - 1
REM
REM in /home/bkarasulu/work/CARBON/AIRSS/Generating-Clusters/REBO/Higher-Symm/Only-C60
REM
REM
REM
REM
REM
REM ./C.cell (a2850807a9bf4ad07a5b6933b78d9264)
REM AIRSS Version 0.9.1 bugfix July 2018 build 013d7b7c2542+ Fri, 06 Jul 2018 19:26:36 +0100
REM compiler GCC version 9.2.1 20190827 (Red Hat 9.2.1-1)
REM options -cpp -mtune=generic -march=x86-64 -g -O0 -fpre-include=/usr/include/finclude/math-vector-fortran.h
REM seed -584564702 -462097526 1161079303 -309781041 -345599767 -1367652680 796247464 325097506 -202022308 -400654540 1512934952 -1211120003 -1881731389 -1148411068 1794762046 -1870103762 -169494858 952728859 -281319469 1367584014 -665857767 188918542 -927632112 -1425507912 828502474 -2108644899 270475695 -1988447288 1713714688 386607430 -480008422 -476354284 -551575769
REM
CELL 1.54180   15.00000   15.00000   15.00000   90.00000   90.00000   90.00000
LATT -1
SFAC C  
C      1  0.3081830000000  0.5904140000000  0.5873120000000 1.0
C      1  0.3339990000000  0.5068400000000  0.4134710000000 1.0
C      1  0.5659110000000  0.4057900000000  0.4840410000000 1.0
C      1  0.3695440000000  0.4546720000000  0.3235890000000 1.0
C      1  0.3619960000000  0.6415900000000  0.5270310000000 1.0
C      1  0.7028770000000  0.4773270000000  0.4236020000000 1.0
C      1  0.4769750000000  0.4834760000000  0.7419320000000 1.0
C      1  0.5371480000000  0.2689900000000  0.4822980000000 1.0
C      1  0.5046080000000  0.6311110000000  0.3606690000000 1.0
C      1  0.4065650000000  0.5426240000000  0.7120250000000 1.0
C      1  0.6944880000000  0.6451030000000  0.5386150000000 1.0
C      1  0.2988980000000  0.4221560000000  0.5936010000000 1.0
C      1  0.4620770000000  0.3914070000000  0.7243540000000 1.0
C      1  0.4292680000000  0.4645660000000  0.4421830000000 1.0
C      1  0.6638060000000  0.6696100000000  0.4119370000000 1.0
C      1  0.7212280000000  0.5331300000000  0.3336930000000 1.0
C      1  0.4390130000000  0.6997940000000  0.5542430000000 1.0
C      1  0.4806090000000  0.5598030000000  0.4454970000000 1.0
C      1  0.3844960000000  0.6854030000000  0.3779170000000 1.0
C      1  0.6164300000000  0.4535280000000  0.6603080000000 1.0
C      1  0.3481830000000  0.2750180000000  0.4734880000000 1.0
C      1  0.6316190000000  0.3924060000000  0.3893490000000 1.0
C      1  0.6009870000000  0.5038930000000  0.4529250000000 1.0
C      1  0.4771410000000  0.7238400000000  0.4005640000000 1.0
C      1  0.3434570000000  0.5111880000000  0.6478420000000 1.0
C      1  0.5332630000000  0.3363940000000  0.4004620000000 1.0
C      1  0.5578720000000  0.6397910000000  0.6358610000000 1.0
C      1  0.3508910000000  0.6160100000000  0.4341080000000 1.0
C      1  0.2986000000000  0.3492980000000  0.5081610000000 1.0
C      1  0.3692140000000  0.3628330000000  0.3235030000000 1.0
C      1  0.6200500000000  0.2849580000000  0.5259570000000 1.0
C      1  0.7287700000000  0.4524820000000  0.6770920000000 1.0
C      1  0.5074800000000  0.7374480000000  0.4912830000000 1.0
C      1  0.5822490000000  0.5104640000000  0.2630760000000 1.0
C      1  0.4230600000000  0.3120050000000  0.3969110000000 1.0
C      1  0.4784770000000  0.3630590000000  0.6397250000000 1.0
C      1  0.2450260000000  0.5149440000000  0.5596010000000 1.0
C      1  0.5604170000000  0.5873230000000  0.5536500000000 1.0
C      1  0.4498230000000  0.2490400000000  0.5112740000000 1.0
C      1  0.4284670000000  0.3778400000000  0.4879740000000 1.0
C      1  0.5890330000000  0.6007820000000  0.7160620000000 1.0
C      1  0.5214830000000  0.4775780000000  0.3770500000000 1.0
C      1  0.6874480000000  0.4521400000000  0.5719810000000 1.0
C      1  0.6212640000000  0.7267600000000  0.5019410000000 1.0
C      1  0.5680580000000  0.5100190000000  0.7273520000000 1.0
C      1  0.5831480000000  0.6311190000000  0.4697060000000 1.0
C      1  0.4716120000000  0.6808160000000  0.6430460000000 1.0
C      1  0.6777620000000  0.3545190000000  0.5350000000000 1.0
C      1  0.4542880000000  0.5838250000000  0.2775540000000 1.0
C      1  0.4091540000000  0.3225010000000  0.5818240000000 1.0
C      1  0.6532220000000  0.4567120000000  0.3028660000000 1.0
C      1  0.6871000000000  0.5467760000000  0.5135050000000 1.0
C      1  0.4190880000000  0.6377770000000  0.7101800000000 1.0
C      1  0.6730740000000  0.6202110000000  0.3321940000000 1.0
C      1  0.2732540000000  0.4543050000000  0.4767010000000 1.0
C      1  0.5848290000000  0.6008940000000  0.2963210000000 1.0
C      1  0.5450030000000  0.4180830000000  0.5885310000000 1.0
C      1  0.4520620000000  0.4933030000000  0.2971210000000 1.0
C      1  0.5042130000000  0.5070400000000  0.5438230000000 1.0
C      1  0.3317400000000  0.2972730000000  0.6261120000000 1.0
END
