TITL C-3036483-1610-1171 0.0137592373709051 3375 -329.637766222026 0 0 60 (C2h) n - 1
REM
REM in /home/bkarasulu/work/CARBON/AIRSS/Generating-Clusters/REBO/Higher-Symm/Only-C60
REM
REM
REM
REM
REM
REM ./C.cell (a2850807a9bf4ad07a5b6933b78d9264)
REM AIRSS Version 0.9.1 bugfix July 2018 build 013d7b7c2542+ Fri, 06 Jul 2018 19:26:36 +0100
REM compiler GCC version 9.2.1 20190827 (Red Hat 9.2.1-1)
REM options -cpp -mtune=generic -march=x86-64 -g -O0 -fpre-include=/usr/include/finclude/math-vector-fortran.h
REM seed 1191973581 582345399 1775628693 239515243 807019642 1206425083 1889230501 -2049037712 686207242 -725948997 -1233099410 -150313163 513757926 685355756 904966066 -1694111535 -159992710 -51712945 190380223 -149826777 664715752 577935702 -1536948001 2084550022 -1869072509 -750655675 -1083493374 1402688138 -966191897 -983599512 2120694881 2069086993 -912388339
REM
CELL 1.54180   15.00000   15.00000   15.00000   90.00000   90.00000   90.00000
LATT -1
SFAC C  
C      1  0.4403290000000  0.3129440000000  0.5481600000000 1.0
C      1  0.6843250000000  0.4326040000000  0.5492290000000 1.0
C      1  0.5596710000000  0.6870560000000  0.5481600000000 1.0
C      1  0.3156750000000  0.5673950000000  0.5492290000000 1.0
C      1  0.4402580000000  0.3131450000000  0.4400170000000 1.0
C      1  0.6849270000000  0.4327660000000  0.4398790000000 1.0
C      1  0.5597420000000  0.6868540000000  0.4400170000000 1.0
C      1  0.3150720000000  0.5672340000000  0.4398790000000 1.0
C      1  0.2687830000000  0.3103650000000  0.5363710000000 1.0
C      1  0.6851930000000  0.2593820000000  0.5360410000000 1.0
C      1  0.7312170000000  0.6896350000000  0.5363710000000 1.0
C      1  0.3148070000000  0.7406160000000  0.5360420000000 1.0
C      1  0.2686840000000  0.3105180000000  0.4527370000000 1.0
C      1  0.6853870000000  0.2596080000000  0.4525620000000 1.0
C      1  0.7313170000000  0.6894820000000  0.4527370000000 1.0
C      1  0.3146130000000  0.7403920000000  0.4525620000000 1.0
C      1  0.5473880000000  0.5723070000000  0.6456640000000 1.0
C      1  0.4442060000000  0.5363330000000  0.6431550000000 1.0
C      1  0.4526120000000  0.4276930000000  0.6456640000000 1.0
C      1  0.5557920000000  0.4636650000000  0.6431550000000 1.0
C      1  0.5475800000000  0.5721480000000  0.3432650000000 1.0
C      1  0.4443830000000  0.5361940000000  0.3454430000000 1.0
C      1  0.4524200000000  0.4278520000000  0.3432650000000 1.0
C      1  0.5556170000000  0.4638060000000  0.3454430000000 1.0
C      1  0.6265880000000  0.7102190000000  0.2931150000000 1.0
C      1  0.2991710000000  0.6309820000000  0.2891220000000 1.0
C      1  0.3734120000000  0.2897810000000  0.2931150000000 1.0
C      1  0.7008280000000  0.3690170000000  0.2891220000000 1.0
C      1  0.6256580000000  0.7114550000000  0.6949280000000 1.0
C      1  0.3010380000000  0.6316070000000  0.7004630000000 1.0
C      1  0.3743420000000  0.2885460000000  0.6949280000000 1.0
C      1  0.6989600000000  0.3683920000000  0.7004590000000 1.0
C      1  0.3413050000000  0.6644880000000  0.3890450000000 1.0
C      1  0.3452040000000  0.3414420000000  0.3903570000000 1.0
C      1  0.6586940000000  0.3355110000000  0.3890450000000 1.0
C      1  0.6547960000000  0.6585580000000  0.3903570000000 1.0
C      1  0.3415540000000  0.6649380000000  0.5998100000000 1.0
C      1  0.3455190000000  0.3412760000000  0.5984150000000 1.0
C      1  0.6584480000000  0.3350800000000  0.5998230000000 1.0
C      1  0.6544800000000  0.6587250000000  0.5984160000000 1.0
C      1  0.4638630000000  0.3226530000000  0.3332500000000 1.0
C      1  0.6669100000000  0.4559080000000  0.3335130000000 1.0
C      1  0.5361370000000  0.6773480000000  0.3332500000000 1.0
C      1  0.3330900000000  0.5440920000000  0.3335130000000 1.0
C      1  0.4644260000000  0.3223420000000  0.6549160000000 1.0
C      1  0.6664190000000  0.4554210000000  0.6555050000000 1.0
C      1  0.5355760000000  0.6776580000000  0.6549160000000 1.0
C      1  0.3335810000000  0.5445600000000  0.6555130000000 1.0
C      1  0.3545920000000  0.4493580000000  0.5974360000000 1.0
C      1  0.5553000000000  0.3597830000000  0.5966240000000 1.0
C      1  0.6454090000000  0.5506460000000  0.5974340000000 1.0
C      1  0.4447000000000  0.6402180000000  0.5966240000000 1.0
C      1  0.3549170000000  0.4493910000000  0.3919820000000 1.0
C      1  0.5552940000000  0.3594980000000  0.3911840000000 1.0
C      1  0.6450830000000  0.5506090000000  0.3919810000000 1.0
C      1  0.4447060000000  0.6405020000000  0.3911840000000 1.0
C      1  0.4724720000000  0.6444220000000  0.4939940000000 1.0
C      1  0.5275290000000  0.3555780000000  0.4939940000000 1.0
C      1  0.6542680000000  0.5245550000000  0.4946270000000 1.0
C      1  0.3457320000000  0.4754450000000  0.4946250000000 1.0
END
