TITL C-3036479-9801-1117 3.00345202980432e-06 3375 -355.098007495512 0 0 60 (C2) n - 1
REM
REM in /home/bkarasulu/work/CARBON/AIRSS/Generating-Clusters/REBO/Higher-Symm/Only-C60
REM
REM
REM
REM
REM
REM ./C.cell (a2850807a9bf4ad07a5b6933b78d9264)
REM AIRSS Version 0.9.1 bugfix July 2018 build 013d7b7c2542+ Fri, 06 Jul 2018 19:26:36 +0100
REM compiler GCC version 9.2.1 20190827 (Red Hat 9.2.1-1)
REM options -cpp -mtune=generic -march=x86-64 -g -O0 -fpre-include=/usr/include/finclude/math-vector-fortran.h
REM seed 259498044 1348042243 741274725 916711899 -162412150 -688102694 1640490969 1133694533 1673899526 -82085516 -557294448 -821391091 -1471259316 -1973348248 156813129 1734163925 -363163163 -1997052964 132534278 -2027288794 -1394771608 -972204031 852080924 -1113721522 -369550886 -1200198762 -39050056 998209938 2108516833 1130254974 -1287269427 855913138 266876018
REM
CELL 1.54180   15.00000   15.00000   15.00000   90.00000   90.00000   90.00000
LATT -1
SFAC C  
C      1  0.6836020000000  0.5131720000000  0.3181660000000 1.0
C      1  0.3163990000000  0.4868290000000  0.3181640000000 1.0
C      1  0.4979370000000  0.3715430000000  0.7076010000000 1.0
C      1  0.5020600000000  0.6284580000000  0.7076030000000 1.0
C      1  0.5893290000000  0.5179650000000  0.2948860000000 1.0
C      1  0.4106720000000  0.4820360000000  0.2948850000000 1.0
C      1  0.5305210000000  0.5358370000000  0.4546420000000 1.0
C      1  0.4694790000000  0.4641640000000  0.4546410000000 1.0
C      1  0.6926920000000  0.4472890000000  0.4693300000000 1.0
C      1  0.3073080000000  0.5527110000000  0.4693290000000 1.0
C      1  0.3717510000000  0.6273170000000  0.3353450000000 1.0
C      1  0.6282500000000  0.3726840000000  0.3353450000000 1.0
C      1  0.2338910000000  0.4848260000000  0.5019020000000 1.0
C      1  0.7661090000000  0.5151740000000  0.5019030000000 1.0
C      1  0.2508200000000  0.3982050000000  0.4658390000000 1.0
C      1  0.7491800000000  0.6017960000000  0.4658420000000 1.0
C      1  0.5937170000000  0.3182500000000  0.4677460000000 1.0
C      1  0.4062830000000  0.6817500000000  0.4677470000000 1.0
C      1  0.3656790000000  0.5448810000000  0.6584910000000 1.0
C      1  0.6343220000000  0.4551170000000  0.6584940000000 1.0
C      1  0.4873720000000  0.7465330000000  0.4406750000000 1.0
C      1  0.5126290000000  0.2534670000000  0.4406730000000 1.0
C      1  0.6859590000000  0.5298150000000  0.6320690000000 1.0
C      1  0.3140420000000  0.4701840000000  0.6320670000000 1.0
C      1  0.5079490000000  0.3827880000000  0.4622070000000 1.0
C      1  0.4920520000000  0.6172120000000  0.4622090000000 1.0
C      1  0.4450260000000  0.5726160000000  0.3026920000000 1.0
C      1  0.5549750000000  0.4273850000000  0.3026920000000 1.0
C      1  0.6257650000000  0.3741100000000  0.6079260000000 1.0
C      1  0.3742340000000  0.6258900000000  0.6079260000000 1.0
C      1  0.5179940000000  0.6953440000000  0.5388240000000 1.0
C      1  0.4820050000000  0.3046560000000  0.5388220000000 1.0
C      1  0.4517380000000  0.5294480000000  0.7021130000000 1.0
C      1  0.5482660000000  0.4705510000000  0.7021190000000 1.0
C      1  0.3374380000000  0.2548230000000  0.6054100000000 1.0
C      1  0.6625610000000  0.7451760000000  0.6054150000000 1.0
C      1  0.6710310000000  0.6545270000000  0.4580220000000 1.0
C      1  0.3289690000000  0.3454730000000  0.4580190000000 1.0
C      1  0.3417410000000  0.6354150000000  0.5191120000000 1.0
C      1  0.6582590000000  0.3645850000000  0.5191120000000 1.0
C      1  0.4600000000000  0.3937140000000  0.3188040000000 1.0
C      1  0.5400010000000  0.6062870000000  0.3188050000000 1.0
C      1  0.4918840000000  0.4438420000000  0.7950290000000 1.0
C      1  0.5081090000000  0.5561570000000  0.7950290000000 1.0
C      1  0.3602400000000  0.4196780000000  0.5639970000000 1.0
C      1  0.6397600000000  0.5803210000000  0.5640000000000 1.0
C      1  0.3804490000000  0.3427230000000  0.3821510000000 1.0
C      1  0.6195510000000  0.6572770000000  0.3821540000000 1.0
C      1  0.3015890000000  0.5686840000000  0.3699180000000 1.0
C      1  0.6984110000000  0.4313170000000  0.3699190000000 1.0
C      1  0.2262110000000  0.4876630000000  0.5972960000000 1.0
C      1  0.7737890000000  0.5123360000000  0.5972970000000 1.0
C      1  0.5376210000000  0.3311220000000  0.6259280000000 1.0
C      1  0.4623770000000  0.6688790000000  0.6259290000000 1.0
C      1  0.3812510000000  0.4745820000000  0.4887870000000 1.0
C      1  0.6187490000000  0.5254170000000  0.4887890000000 1.0
C      1  0.6201920000000  0.6833000000000  0.5506190000000 1.0
C      1  0.3798080000000  0.3166990000000  0.5506150000000 1.0
C      1  0.5328680000000  0.7111290000000  0.3644670000000 1.0
C      1  0.4671330000000  0.2888720000000  0.3644640000000 1.0
END
