TITL C-3036482-790-181 -8.7275350768551e-07 3375 -339.79008413783 0 0 60 (C2h) n - 1
REM
REM in /home/bkarasulu/work/CARBON/AIRSS/Generating-Clusters/REBO/Higher-Symm/Only-C60
REM
REM
REM
REM
REM
REM ./C.cell (a2850807a9bf4ad07a5b6933b78d9264)
REM AIRSS Version 0.9.1 bugfix July 2018 build 013d7b7c2542+ Fri, 06 Jul 2018 19:26:36 +0100
REM compiler GCC version 9.2.1 20190827 (Red Hat 9.2.1-1)
REM options -cpp -mtune=generic -march=x86-64 -g -O0 -fpre-include=/usr/include/finclude/math-vector-fortran.h
REM seed -1786508393 1028966925 -691845440 673366073 2078745385 -1639357495 -1044003141 -1826452199 -618878857 -592179438 -2137884389 -1461582761 -342364124 -1967540011 2049040834 678761528 729077477 1835577722 -224431554 1720005379 -1413099932 -1567270041 -1270516161 -52170149 -859379495 544014308 -411266811 -1899868740 -358866653 -2005769457 350695952 1720422772 1952900183
REM
CELL 1.54180   15.00000   15.00000   15.00000   90.00000   90.00000   90.00000
LATT -1
SFAC C  
C      1  0.5524100000000  0.5610970000000  0.5855720000000 1.0
C      1  0.5524100000000  0.4389030000000  0.4144270000000 1.0
C      1  0.4475900000000  0.5610970000000  0.5855730000000 1.0
C      1  0.4475890000000  0.4389030000000  0.4144280000000 1.0
C      1  0.4502110000000  0.7266840000000  0.4628150000000 1.0
C      1  0.4502110000000  0.2733160000000  0.5371850000000 1.0
C      1  0.5497890000000  0.7266840000000  0.4628150000000 1.0
C      1  0.5497890000000  0.2733160000000  0.5371850000000 1.0
C      1  0.6400130000000  0.4484230000000  0.3154940000000 1.0
C      1  0.6400130000000  0.5515770000000  0.6845060000000 1.0
C      1  0.3599870000000  0.4484230000000  0.3154940000000 1.0
C      1  0.3599870000000  0.5515770000000  0.6845060000000 1.0
C      1  0.3766830000000  0.6838590000000  0.4098840000000 1.0
C      1  0.3766830000000  0.3161410000000  0.5901160000000 1.0
C      1  0.6233170000000  0.6838580000000  0.4098840000000 1.0
C      1  0.6233170000000  0.3161410000000  0.5901160000000 1.0
C      1  0.6853270000000  0.3856850000000  0.3888220000000 1.0
C      1  0.6853270000000  0.6143140000000  0.6111780000000 1.0
C      1  0.3146730000000  0.3856860000000  0.3888220000000 1.0
C      1  0.3146730000000  0.6143150000000  0.6111780000000 1.0
C      1  0.4576930000000  0.5763780000000  0.3165970000000 1.0
C      1  0.4576930000000  0.4236220000000  0.6834030000000 1.0
C      1  0.5423070000000  0.5763780000000  0.3165970000000 1.0
C      1  0.5423070000000  0.4236220000000  0.6834030000000 1.0
C      1  0.4198840000000  0.2601450000000  0.4313210000000 1.0
C      1  0.4198840000000  0.7398550000000  0.5686790000000 1.0
C      1  0.5801160000000  0.2601450000000  0.4313210000000 1.0
C      1  0.5801160000000  0.7398550000000  0.5686790000000 1.0
C      1  0.5571690000000  0.4071180000000  0.5187970000000 1.0
C      1  0.5571700000000  0.5928820000000  0.4812030000000 1.0
C      1  0.4428300000000  0.4071180000000  0.5187970000000 1.0
C      1  0.4428300000000  0.5928820000000  0.4812030000000 1.0
C      1  0.7144660000000  0.4460720000000  0.4817610000000 1.0
C      1  0.7144660000000  0.5539280000000  0.5182390000000 1.0
C      1  0.2855340000000  0.4460720000000  0.4817610000000 1.0
C      1  0.2855340000000  0.5539280000000  0.5182390000000 1.0
C      1  0.5862430000000  0.5353280000000  0.4009140000000 1.0
C      1  0.5862430000000  0.4646710000000  0.5990860000000 1.0
C      1  0.4137570000000  0.5353290000000  0.4009140000000 1.0
C      1  0.4137570000000  0.4646720000000  0.5990860000000 1.0
C      1  0.5473230000000  0.4478270000000  0.2818100000000 1.0
C      1  0.5473230000000  0.5521730000000  0.7181900000000 1.0
C      1  0.4526770000000  0.4478270000000  0.2818110000000 1.0
C      1  0.4526770000000  0.5521730000000  0.7181900000000 1.0
C      1  0.3677520000000  0.6560570000000  0.5392110000000 1.0
C      1  0.3677520000000  0.3439430000000  0.4607890000000 1.0
C      1  0.6322480000000  0.6560570000000  0.5392110000000 1.0
C      1  0.6322480000000  0.3439430000000  0.4607890000000 1.0
C      1  0.4505530000000  0.3391140000000  0.3589030000000 1.0
C      1  0.4505520000000  0.6608860000000  0.6410980000000 1.0
C      1  0.5494480000000  0.3391130000000  0.3589020000000 1.0
C      1  0.5494470000000  0.6608860000000  0.6410970000000 1.0
C      1  0.6910360000000  0.5155690000000  0.3934840000000 1.0
C      1  0.6910360000000  0.4844310000000  0.6065160000000 1.0
C      1  0.3089640000000  0.5155690000000  0.3934840000000 1.0
C      1  0.3089640000000  0.4844310000000  0.6065160000000 1.0
C      1  0.3122780000000  0.3823940000000  0.5729410000000 1.0
C      1  0.3122770000000  0.6176060000000  0.4270590000000 1.0
C      1  0.6877220000000  0.3823940000000  0.5729410000000 1.0
C      1  0.6877220000000  0.6176050000000  0.4270590000000 1.0
END
