TITL C-3036479-9801-466 5.41659866769028e-05 3375 -349.471973209651 0 0 60 (C1) n - 1
REM
REM in /home/bkarasulu/work/CARBON/AIRSS/Generating-Clusters/REBO/Higher-Symm/Only-C60
REM
REM
REM
REM
REM
REM ./C.cell (a2850807a9bf4ad07a5b6933b78d9264)
REM AIRSS Version 0.9.1 bugfix July 2018 build 013d7b7c2542+ Fri, 06 Jul 2018 19:26:36 +0100
REM compiler GCC version 9.2.1 20190827 (Red Hat 9.2.1-1)
REM options -cpp -mtune=generic -march=x86-64 -g -O0 -fpre-include=/usr/include/finclude/math-vector-fortran.h
REM seed -1999454950 1057241968 364111240 -208938576 634520168 1469628552 -1772155588 -1880082637 665553113 -1739660387 514807140 -1828806095 -1305413710 -1849276562 165167898 -407895585 -1184330797 448093317 -32479682 -1907954852 100652249 -1475035273 196853833 -1375439763 1526108822 673832804 -251506358 -1203007393 -589723348 520431625 -594315534 -1394508655 1426787127
REM
CELL 1.54180   15.00000   15.00000   15.00000   90.00000   90.00000   90.00000
LATT -1
SFAC C  
C      1  0.4863350000000  0.5668090000000  0.5361270000000 1.0
C      1  0.4713940000000  0.4534280000000  0.5447300000000 1.0
C      1  0.6709670000000  0.3684200000000  0.3784820000000 1.0
C      1  0.6788620000000  0.6365280000000  0.3786840000000 1.0
C      1  0.6016260000000  0.2891220000000  0.3799610000000 1.0
C      1  0.6003160000000  0.7174540000000  0.3802280000000 1.0
C      1  0.5417290000000  0.5862540000000  0.2763800000000 1.0
C      1  0.5343810000000  0.4117270000000  0.2776160000000 1.0
C      1  0.3087390000000  0.5614050000000  0.5769810000000 1.0
C      1  0.3180280000000  0.4497020000000  0.5866650000000 1.0
C      1  0.4750730000000  0.6779440000000  0.6667320000000 1.0
C      1  0.4712690000000  0.3205880000000  0.6688420000000 1.0
C      1  0.6108780000000  0.4479320000000  0.6858760000000 1.0
C      1  0.6150310000000  0.5479410000000  0.6886890000000 1.0
C      1  0.7116360000000  0.4503640000000  0.5497140000000 1.0
C      1  0.7151320000000  0.5469030000000  0.5515980000000 1.0
C      1  0.4067670000000  0.6858870000000  0.4176740000000 1.0
C      1  0.4067820000000  0.3024520000000  0.4127550000000 1.0
C      1  0.4669390000000  0.5496510000000  0.6362830000000 1.0
C      1  0.4532430000000  0.4504060000000  0.6532220000000 1.0
C      1  0.2730850000000  0.4066440000000  0.5053150000000 1.0
C      1  0.2694750000000  0.5911720000000  0.4912820000000 1.0
C      1  0.6243100000000  0.4550610000000  0.3270280000000 1.0
C      1  0.6247700000000  0.5528530000000  0.3261360000000 1.0
C      1  0.4907230000000  0.2805440000000  0.5121370000000 1.0
C      1  0.4825220000000  0.7368290000000  0.5130450000000 1.0
C      1  0.7277430000000  0.4061280000000  0.4683600000000 1.0
C      1  0.7297220000000  0.5923630000000  0.4701220000000 1.0
C      1  0.3516390000000  0.4335700000000  0.6913730000000 1.0
C      1  0.3612750000000  0.5444590000000  0.6697520000000 1.0
C      1  0.5447330000000  0.4085400000000  0.3925350000000 1.0
C      1  0.5594730000000  0.6022230000000  0.4065790000000 1.0
C      1  0.5967560000000  0.3399480000000  0.5662730000000 1.0
C      1  0.6168920000000  0.6690120000000  0.5832910000000 1.0
C      1  0.5071320000000  0.7245470000000  0.4049560000000 1.0
C      1  0.5141790000000  0.2795490000000  0.4046340000000 1.0
C      1  0.4494610000000  0.5379220000000  0.4442620000000 1.0
C      1  0.4275170000000  0.4458520000000  0.4419680000000 1.0
C      1  0.3787390000000  0.7082690000000  0.5258650000000 1.0
C      1  0.3833840000000  0.2872520000000  0.5227030000000 1.0
C      1  0.4633470000000  0.5875390000000  0.3482910000000 1.0
C      1  0.4438790000000  0.4064800000000  0.3390720000000 1.0
C      1  0.6524260000000  0.4054050000000  0.6093360000000 1.0
C      1  0.6641280000000  0.5935570000000  0.6178370000000 1.0
C      1  0.2962200000000  0.4433460000000  0.4191170000000 1.0
C      1  0.3015720000000  0.5421300000000  0.4143080000000 1.0
C      1  0.3613590000000  0.6055230000000  0.3712320000000 1.0
C      1  0.3453370000000  0.3752030000000  0.3669890000000 1.0
C      1  0.3747380000000  0.3510840000000  0.6159740000000 1.0
C      1  0.3774270000000  0.6455400000000  0.6182120000000 1.0
C      1  0.5326330000000  0.7244090000000  0.6055450000000 1.0
C      1  0.5311560000000  0.2750420000000  0.6092890000000 1.0
C      1  0.5464290000000  0.6426080000000  0.5022910000000 1.0
C      1  0.5356780000000  0.3826210000000  0.4868090000000 1.0
C      1  0.5263990000000  0.4037370000000  0.7069770000000 1.0
C      1  0.5300550000000  0.5951950000000  0.7035660000000 1.0
C      1  0.2826650000000  0.6829830000000  0.4844200000000 1.0
C      1  0.2807530000000  0.3150640000000  0.5117790000000 1.0
C      1  0.7475250000000  0.5451930000000  0.3772630000000 1.0
C      1  0.7476150000000  0.4536880000000  0.3768390000000 1.0
END
