TITL C-3036479-9801-242 3.06352645952937e-06 3375 -410.52380769048 0 0 60 (Ih) n - 1
REM
REM in /home/bkarasulu/work/CARBON/AIRSS/Generating-Clusters/REBO/Higher-Symm/Only-C60
REM
REM
REM
REM
REM
REM ./C.cell (a2850807a9bf4ad07a5b6933b78d9264)
REM AIRSS Version 0.9.1 bugfix July 2018 build 013d7b7c2542+ Fri, 06 Jul 2018 19:26:36 +0100
REM compiler GCC version 9.2.1 20190827 (Red Hat 9.2.1-1)
REM options -cpp -mtune=generic -march=x86-64 -g -O0 -fpre-include=/usr/include/finclude/math-vector-fortran.h
REM seed -1133422587 1337356054 1029860109 1221888994 -736561800 258165978 -1707294731 839125007 306167333 -1569174373 862306161 -1865171136 1696745139 201613714 1387287171 -1723265660 -1977733036 1115143302 298894977 15631813 -1253969443 -2009386510 -1035423757 1517631679 175105485 -721273527 -1384825667 1986509304 -665037264 586092440 720955427 2066955780 886829686
REM
CELL 1.54180   15.00000   15.00000   15.00000   90.00000   90.00000   90.00000
LATT -1
SFAC C  
C      1  0.5964670000000  0.5791210000000  0.2950130000000 1.0
C      1  0.5791210000000  0.2950130000000  0.5964670000000 1.0
C      1  0.2950130000000  0.5964670000000  0.5791210000000 1.0
C      1  0.4035330000000  0.5791210000000  0.7049870000000 1.0
C      1  0.4035330000000  0.4208790000000  0.2950130000000 1.0
C      1  0.5964670000000  0.4208790000000  0.7049870000000 1.0
C      1  0.4208790000000  0.2950130000000  0.4035330000000 1.0
C      1  0.4208790000000  0.7049870000000  0.5964670000000 1.0
C      1  0.5791210000000  0.7049870000000  0.4035330000000 1.0
C      1  0.7049870000000  0.5964670000000  0.4208790000000 1.0
C      1  0.7049870000000  0.4035330000000  0.5791210000000 1.0
C      1  0.2950130000000  0.4035330000000  0.4208790000000 1.0
C      1  0.5964670000000  0.4208790000000  0.2950130000000 1.0
C      1  0.5791210000000  0.7049870000000  0.5964670000000 1.0
C      1  0.2950130000000  0.4035330000000  0.5791210000000 1.0
C      1  0.4035330000000  0.4208790000000  0.7049870000000 1.0
C      1  0.4035330000000  0.5791210000000  0.2950130000000 1.0
C      1  0.5964670000000  0.5791210000000  0.7049870000000 1.0
C      1  0.4208790000000  0.7049870000000  0.4035330000000 1.0
C      1  0.4208790000000  0.2950130000000  0.5964670000000 1.0
C      1  0.5791210000000  0.2950130000000  0.4035330000000 1.0
C      1  0.7049870000000  0.4035330000000  0.4208790000000 1.0
C      1  0.7049870000000  0.5964670000000  0.5791210000000 1.0
C      1  0.2950130000000  0.5964670000000  0.4208790000000 1.0
C      1  0.3244120000000  0.5488990000000  0.3439120000000 1.0
C      1  0.5488990000000  0.3439120000000  0.3244120000000 1.0
C      1  0.3439120000000  0.3244120000000  0.5488990000000 1.0
C      1  0.6755880000000  0.5488990000000  0.6560880000000 1.0
C      1  0.6755880000000  0.4511010000000  0.3439120000000 1.0
C      1  0.3244120000000  0.4511010000000  0.6560880000000 1.0
C      1  0.4511010000000  0.3439120000000  0.6755880000000 1.0
C      1  0.4511010000000  0.6560880000000  0.3244120000000 1.0
C      1  0.5488990000000  0.6560880000000  0.6755880000000 1.0
C      1  0.6560880000000  0.3244120000000  0.4511010000000 1.0
C      1  0.6560880000000  0.6755880000000  0.5488990000000 1.0
C      1  0.3439120000000  0.6755880000000  0.4511010000000 1.0
C      1  0.3244120000000  0.4511010000000  0.3439120000000 1.0
C      1  0.5488990000000  0.6560880000000  0.3244120000000 1.0
C      1  0.3439120000000  0.6755880000000  0.5488990000000 1.0
C      1  0.6755880000000  0.4511010000000  0.6560880000000 1.0
C      1  0.6755880000000  0.5488990000000  0.3439120000000 1.0
C      1  0.3244120000000  0.5488990000000  0.6560880000000 1.0
C      1  0.4511010000000  0.6560880000000  0.6755880000000 1.0
C      1  0.4511010000000  0.3439120000000  0.3244120000000 1.0
C      1  0.5488990000000  0.3439120000000  0.6755880000000 1.0
C      1  0.6560880000000  0.6755880000000  0.4511010000000 1.0
C      1  0.6560880000000  0.3244120000000  0.5488990000000 1.0
C      1  0.3439120000000  0.3244120000000  0.4511010000000 1.0
C      1  0.7352080000000  0.4524320000000  0.5000000000000 1.0
C      1  0.4524320000000  0.5000000000000  0.7352080000000 1.0
C      1  0.5000000000000  0.7352080000000  0.4524320000000 1.0
C      1  0.2647920000000  0.4524320000000  0.5000000000000 1.0
C      1  0.2647920000000  0.5475680000000  0.5000000000000 1.0
C      1  0.7352080000000  0.5475680000000  0.5000000000000 1.0
C      1  0.5475680000000  0.5000000000000  0.2647920000000 1.0
C      1  0.5475680000000  0.5000000000000  0.7352080000000 1.0
C      1  0.4524320000000  0.5000000000000  0.2647920000000 1.0
C      1  0.5000000000000  0.7352080000000  0.5475680000000 1.0
C      1  0.5000000000000  0.2647920000000  0.4524320000000 1.0
C      1  0.5000000000000  0.2647920000000  0.5475680000000 1.0
END
