TITL C-3036486-2224-18 1.17543339133747e-05 3375 -349.325348719484 0 0 60 (C1) n - 1
REM
REM in /home/bkarasulu/work/CARBON/AIRSS/Generating-Clusters/REBO/Higher-Symm/Only-C60
REM
REM
REM
REM
REM
REM ./C.cell (a2850807a9bf4ad07a5b6933b78d9264)
REM AIRSS Version 0.9.1 bugfix July 2018 build 013d7b7c2542+ Fri, 06 Jul 2018 19:26:36 +0100
REM compiler GCC version 9.2.1 20190827 (Red Hat 9.2.1-1)
REM options -cpp -mtune=generic -march=x86-64 -g -O0 -fpre-include=/usr/include/finclude/math-vector-fortran.h
REM seed 658548452 -126029167 848868225 1108113290 1139609261 362879916 -1684696804 646623536 -1765205172 -344780163 -1930805934 -1270430509 -1539927452 -1064657046 -685194182 1242741662 1940298732 -308230513 -1570320135 1234784210 -1161017964 382589144 2018855991 475082351 -1910950502 -855749793 971703861 2142913866 602581716 1314562301 -600375905 294163657 2021427796
REM
CELL 1.54180   15.00000   15.00000   15.00000   90.00000   90.00000   90.00000
LATT -1
SFAC C  
C      1  0.4356550000000  0.4291980000000  0.2868090000000 1.0
C      1  0.4467090000000  0.5406130000000  0.3078160000000 1.0
C      1  0.7047750000000  0.3080320000000  0.5482260000000 1.0
C      1  0.7083660000000  0.6979500000000  0.5558950000000 1.0
C      1  0.5725100000000  0.6022390000000  0.6096700000000 1.0
C      1  0.5693400000000  0.4067060000000  0.5975660000000 1.0
C      1  0.4422600000000  0.5581860000000  0.5089380000000 1.0
C      1  0.4369210000000  0.4455960000000  0.4935430000000 1.0
C      1  0.6188330000000  0.6849220000000  0.5164130000000 1.0
C      1  0.6145440000000  0.3204870000000  0.5070080000000 1.0
C      1  0.4219000000000  0.2805330000000  0.3702810000000 1.0
C      1  0.4344030000000  0.7026700000000  0.3696110000000 1.0
C      1  0.5147090000000  0.5486190000000  0.6720390000000 1.0
C      1  0.5153230000000  0.4575250000000  0.6661050000000 1.0
C      1  0.6296580000000  0.3957290000000  0.3378370000000 1.0
C      1  0.6403800000000  0.6109110000000  0.3486810000000 1.0
C      1  0.2963160000000  0.4518250000000  0.4717280000000 1.0
C      1  0.2905190000000  0.5469050000000  0.4746160000000 1.0
C      1  0.6645150000000  0.4472000000000  0.6046980000000 1.0
C      1  0.6660870000000  0.5585560000000  0.6175500000000 1.0
C      1  0.5827640000000  0.5576010000000  0.4265940000000 1.0
C      1  0.5696390000000  0.4565420000000  0.4091510000000 1.0
C      1  0.3513650000000  0.4047560000000  0.5511790000000 1.0
C      1  0.3469340000000  0.5961330000000  0.5520210000000 1.0
C      1  0.3731700000000  0.3416670000000  0.3172640000000 1.0
C      1  0.3876510000000  0.6369370000000  0.3192230000000 1.0
C      1  0.3034230000000  0.3991270000000  0.3816860000000 1.0
C      1  0.3098980000000  0.5959380000000  0.3840140000000 1.0
C      1  0.3727490000000  0.2480700000000  0.6141890000000 1.0
C      1  0.3696980000000  0.7554130000000  0.6078360000000 1.0
C      1  0.5362950000000  0.4103520000000  0.4919220000000 1.0
C      1  0.5395190000000  0.5923140000000  0.5075900000000 1.0
C      1  0.3859870000000  0.2708730000000  0.4654380000000 1.0
C      1  0.3907610000000  0.7243310000000  0.4604420000000 1.0
C      1  0.3452840000000  0.6992540000000  0.5365000000000 1.0
C      1  0.3457810000000  0.3014520000000  0.5418640000000 1.0
C      1  0.3616340000000  0.4513730000000  0.6440840000000 1.0
C      1  0.3600290000000  0.5479940000000  0.6450070000000 1.0
C      1  0.5888910000000  0.3212170000000  0.4032210000000 1.0
C      1  0.5992580000000  0.6887510000000  0.4120700000000 1.0
C      1  0.4548930000000  0.7355270000000  0.6440230000000 1.0
C      1  0.4604580000000  0.2684010000000  0.6435670000000 1.0
C      1  0.5006990000000  0.7117090000000  0.4635630000000 1.0
C      1  0.4954180000000  0.2885840000000  0.4586980000000 1.0
C      1  0.4079490000000  0.5470570000000  0.4128340000000 1.0
C      1  0.4022230000000  0.4466010000000  0.3911090000000 1.0
C      1  0.7311490000000  0.3702310000000  0.5996380000000 1.0
C      1  0.7359610000000  0.6371770000000  0.6082310000000 1.0
C      1  0.4361540000000  0.4149840000000  0.6953600000000 1.0
C      1  0.4324440000000  0.5877190000000  0.6972610000000 1.0
C      1  0.7155010000000  0.5423580000000  0.3181680000000 1.0
C      1  0.7109670000000  0.4582640000000  0.3149330000000 1.0
C      1  0.7175160000000  0.4511610000000  0.4949780000000 1.0
C      1  0.7182960000000  0.5368430000000  0.5224230000000 1.0
C      1  0.5231710000000  0.3047260000000  0.5689190000000 1.0
C      1  0.5250680000000  0.7021320000000  0.5753220000000 1.0
C      1  0.5386910000000  0.4448970000000  0.2995580000000 1.0
C      1  0.5513010000000  0.5529560000000  0.3173300000000 1.0
C      1  0.4536630000000  0.3252080000000  0.7187240000000 1.0
C      1  0.4440240000000  0.6789670000000  0.7190330000000 1.0
END
