TITL C-3036483-1610-472 0.000883228834270133 3375 -344.980506447333 0 0 60 (C5) n - 1
REM
REM in /home/bkarasulu/work/CARBON/AIRSS/Generating-Clusters/REBO/Higher-Symm/Only-C60
REM
REM
REM
REM
REM
REM ./C.cell (a2850807a9bf4ad07a5b6933b78d9264)
REM AIRSS Version 0.9.1 bugfix July 2018 build 013d7b7c2542+ Fri, 06 Jul 2018 19:26:36 +0100
REM compiler GCC version 9.2.1 20190827 (Red Hat 9.2.1-1)
REM options -cpp -mtune=generic -march=x86-64 -g -O0 -fpre-include=/usr/include/finclude/math-vector-fortran.h
REM seed -1212180873 1816303091 -250451806 -1508621009 980543548 -476004341 -1196700887 -754415320 -660550118 277161118 -929330308 -480708099 -1946033549 445675040 146740446 75832843 1976431306 -1184374557 -174527079 1394467070 1622120996 -1020320858 83825128 1776796019 1576521287 -1264138236 96732089 -2004045990 1009256754 1930698950 53225358 -1320758760 -103974911
REM
CELL 1.54180   15.00000   15.00000   15.00000   90.00000   90.00000   90.00000
LATT -1
SFAC C  
C      1  0.5219750000000  0.4432050000000  0.7493560000000 1.0
C      1  0.2698660000000  0.4437050000000  0.5983800000000 1.0
C      1  0.3354000000000  0.4435750000000  0.3114350000000 1.0
C      1  0.6286070000000  0.4433360000000  0.2852440000000 1.0
C      1  0.7442140000000  0.4439000000000  0.5553320000000 1.0
C      1  0.4028780000000  0.5355070000000  0.4015600000000 1.0
C      1  0.5636300000000  0.5355110000000  0.3771320000000 1.0
C      1  0.6364110000000  0.5355250000000  0.5226180000000 1.0
C      1  0.5207430000000  0.5354940000000  0.6368410000000 1.0
C      1  0.3763610000000  0.5355590000000  0.5619740000000 1.0
C      1  0.3206140000000  0.6187260000000  0.4739340000000 1.0
C      1  0.4694280000000  0.6186990000000  0.3214010000000 1.0
C      1  0.6604840000000  0.6187710000000  0.4153860000000 1.0
C      1  0.6296100000000  0.6186610000000  0.6266220000000 1.0
C      1  0.4198890000000  0.6187900000000  0.6626450000000 1.0
C      1  0.2672130000000  0.5321150000000  0.6379330000000 1.0
C      1  0.2969830000000  0.5319800000000  0.3211260000000 1.0
C      1  0.6076300000000  0.5316630000000  0.2516340000000 1.0
C      1  0.7693630000000  0.5324430000000  0.5248540000000 1.0
C      1  0.5586380000000  0.5315290000000  0.7643130000000 1.0
C      1  0.3409200000000  0.3811160000000  0.5870810000000 1.0
C      1  0.3680380000000  0.3810350000000  0.3755870000000 1.0
C      1  0.5775900000000  0.3808730000000  0.3360720000000 1.0
C      1  0.6799860000000  0.3812470000000  0.5229340000000 1.0
C      1  0.5335320000000  0.3807850000000  0.6782400000000 1.0
C      1  0.4173900000000  0.6424690000000  0.4796590000000 1.0
C      1  0.4938520000000  0.6424560000000  0.4151490000000 1.0
C      1  0.5788630000000  0.6424810000000  0.4678650000000 1.0
C      1  0.5548690000000  0.6424130000000  0.5650310000000 1.0
C      1  0.4551280000000  0.6425100000000  0.5723120000000 1.0
C      1  0.2953940000000  0.6088120000000  0.5741530000000 1.0
C      1  0.3663190000000  0.6087140000000  0.3282690000000 1.0
C      1  0.6215400000000  0.6087820000000  0.3196280000000 1.0
C      1  0.7092140000000  0.6086930000000  0.5607890000000 1.0
C      1  0.5075930000000  0.6087370000000  0.7173630000000 1.0
C      1  0.5078900000000  0.5559950000000  0.2506300000000 1.0
C      1  0.7397980000000  0.5559030000000  0.4296910000000 1.0
C      1  0.6399220000000  0.5559770000000  0.7065000000000 1.0
C      1  0.3472010000000  0.5560410000000  0.6974980000000 1.0
C      1  0.2650730000000  0.5559200000000  0.4155910000000 1.0
C      1  0.4715250000000  0.3517650000000  0.4107830000000 1.0
C      1  0.5760900000000  0.3517420000000  0.4453770000000 1.0
C      1  0.5755730000000  0.3518610000000  0.5554580000000 1.0
C      1  0.4705820000000  0.3517290000000  0.5889030000000 1.0
C      1  0.4063300000000  0.3517780000000  0.4995100000000 1.0
C      1  0.6234800000000  0.4927340000000  0.4376540000000 1.0
C      1  0.5973310000000  0.4925730000000  0.5981200000000 1.0
C      1  0.4367780000000  0.4927130000000  0.6230200000000 1.0
C      1  0.3635460000000  0.4926610000000  0.4779040000000 1.0
C      1  0.4788830000000  0.4926150000000  0.3634210000000 1.0
C      1  0.3973970000000  0.3748940000000  0.6704540000000 1.0
C      1  0.3061950000000  0.3748790000000  0.4550640000000 1.0
C      1  0.4828940000000  0.3748440000000  0.3018010000000 1.0
C      1  0.6831630000000  0.3749000000000  0.4222930000000 1.0
C      1  0.6303060000000  0.3748310000000  0.6503950000000 1.0
C      1  0.6756110000000  0.4627850000000  0.6691760000000 1.0
C      1  0.3935300000000  0.4627760000000  0.7194920000000 1.0
C      1  0.2584250000000  0.4627600000000  0.4666300000000 1.0
C      1  0.4572160000000  0.4627690000000  0.2599600000000 1.0
C      1  0.7150930000000  0.4627360000000  0.3848260000000 1.0
END
