TITL C-3036483-1610-1125 -3.64189120583518e-06 3375 -346.426873797792 0 0 60 (Ci) n - 1
REM
REM in /home/bkarasulu/work/CARBON/AIRSS/Generating-Clusters/REBO/Higher-Symm/Only-C60
REM
REM
REM
REM
REM
REM ./C.cell (a2850807a9bf4ad07a5b6933b78d9264)
REM AIRSS Version 0.9.1 bugfix July 2018 build 013d7b7c2542+ Fri, 06 Jul 2018 19:26:36 +0100
REM compiler GCC version 9.2.1 20190827 (Red Hat 9.2.1-1)
REM options -cpp -mtune=generic -march=x86-64 -g -O0 -fpre-include=/usr/include/finclude/math-vector-fortran.h
REM seed -795291462 -1188568778 1494609253 1540893755 -481197156 1182081466 -1718893232 1015753233 -1285243677 -1857409560 -1366759362 -1304600207 915568074 330368867 -915274473 -336849002 -1904586860 1129263759 -2071041627 -826867904 -1389649166 -1536653433 824682600 1778584800 1150271083 969791361 -428493817 1533664724 1587363122 294841829 1229473174 196036384 -1318424672
REM
CELL 1.54180   15.00000   15.00000   15.00000   90.00000   90.00000   90.00000
LATT -1
SFAC C  
C      1  0.5487880000000  0.5521480000000  0.3056800000000 1.0
C      1  0.4400690000000  0.5554390000000  0.6882990000000 1.0
C      1  0.5599310000000  0.4445610000000  0.3117010000000 1.0
C      1  0.4512120000000  0.4478520000000  0.6943200000000 1.0
C      1  0.4391250000000  0.5662610000000  0.3069470000000 1.0
C      1  0.5464140000000  0.5400150000000  0.6885570000000 1.0
C      1  0.4535860000000  0.4599860000000  0.3114420000000 1.0
C      1  0.5608750000000  0.4337390000000  0.6930530000000 1.0
C      1  0.4640890000000  0.3697560000000  0.4350160000000 1.0
C      1  0.5538340000000  0.3540660000000  0.5762320000000 1.0
C      1  0.4461670000000  0.6459330000000  0.4237680000000 1.0
C      1  0.5359110000000  0.6302440000000  0.5649840000000 1.0
C      1  0.5537590000000  0.3651680000000  0.4378900000000 1.0
C      1  0.4639620000000  0.3590260000000  0.5793950000000 1.0
C      1  0.5360380000000  0.6409740000000  0.4206050000000 1.0
C      1  0.4462410000000  0.6348320000000  0.5621100000000 1.0
C      1  0.3923620000000  0.7325660000000  0.4446380000000 1.0
C      1  0.5965560000000  0.7125060000000  0.5451590000000 1.0
C      1  0.4034440000000  0.2874940000000  0.4548410000000 1.0
C      1  0.6076380000000  0.2674340000000  0.5553630000000 1.0
C      1  0.5973020000000  0.7206440000000  0.4460250000000 1.0
C      1  0.3937870000000  0.7225890000000  0.5439720000000 1.0
C      1  0.6062130000000  0.2774110000000  0.4560280000000 1.0
C      1  0.4026980000000  0.2793560000000  0.5539750000000 1.0
C      1  0.3949800000000  0.5639510000000  0.4438930000000 1.0
C      1  0.5795180000000  0.5415250000000  0.5454420000000 1.0
C      1  0.4204820000000  0.4584750000000  0.4545580000000 1.0
C      1  0.6050200000000  0.4360490000000  0.5561070000000 1.0
C      1  0.5784650000000  0.5552580000000  0.4413240000000 1.0
C      1  0.3934640000000  0.5482400000000  0.5490650000000 1.0
C      1  0.6065360000000  0.4517600000000  0.4509350000000 1.0
C      1  0.4215350000000  0.4447420000000  0.5586760000000 1.0
C      1  0.3140710000000  0.4524050000000  0.5958270000000 1.0
C      1  0.7049580000000  0.4428660000000  0.4023070000000 1.0
C      1  0.2950420000000  0.5571340000000  0.5976930000000 1.0
C      1  0.6859290000000  0.5475950000000  0.4041730000000 1.0
C      1  0.7061520000000  0.4354160000000  0.5996180000000 1.0
C      1  0.3168040000000  0.4618130000000  0.4098960000000 1.0
C      1  0.6831960000000  0.5381870000000  0.5901050000000 1.0
C      1  0.2938480000000  0.5645840000000  0.4003820000000 1.0
C      1  0.6365230000000  0.2970360000000  0.3596850000000 1.0
C      1  0.3653400000000  0.3021740000000  0.6476060000000 1.0
C      1  0.6346600000000  0.6978260000000  0.3523940000000 1.0
C      1  0.3634770000000  0.7029640000000  0.6403150000000 1.0
C      1  0.3703920000000  0.3127810000000  0.3604220000000 1.0
C      1  0.6426040000000  0.2885170000000  0.6499850000000 1.0
C      1  0.3573950000000  0.7114830000000  0.3500150000000 1.0
C      1  0.6296080000000  0.6872200000000  0.6395780000000 1.0
C      1  0.6294550000000  0.6037430000000  0.3290090000000 1.0
C      1  0.3639630000000  0.6089780000000  0.6636800000000 1.0
C      1  0.6360370000000  0.3910220000000  0.3363200000000 1.0
C      1  0.3705450000000  0.3962570000000  0.6709910000000 1.0
C      1  0.3586210000000  0.6168630000000  0.3276410000000 1.0
C      1  0.6226990000000  0.5929050000000  0.6601480000000 1.0
C      1  0.3773010000000  0.4070950000000  0.3398520000000 1.0
C      1  0.6413790000000  0.3831380000000  0.6723590000000 1.0
C      1  0.7235460000000  0.5823020000000  0.4997110000000 1.0
C      1  0.7458420000000  0.4077520000000  0.4993400000000 1.0
C      1  0.2541570000000  0.5922480000000  0.5006600000000 1.0
C      1  0.2764540000000  0.4176980000000  0.5002890000000 1.0
END
