TITL C-3036479-9801-350 -1.76915742958159e-06 3375 -371.622697478404 0 0 60 (Cs) n - 1
REM
REM in /home/bkarasulu/work/CARBON/AIRSS/Generating-Clusters/REBO/Higher-Symm/Only-C60
REM
REM
REM
REM
REM
REM ./C.cell (a2850807a9bf4ad07a5b6933b78d9264)
REM AIRSS Version 0.9.1 bugfix July 2018 build 013d7b7c2542+ Fri, 06 Jul 2018 19:26:36 +0100
REM compiler GCC version 9.2.1 20190827 (Red Hat 9.2.1-1)
REM options -cpp -mtune=generic -march=x86-64 -g -O0 -fpre-include=/usr/include/finclude/math-vector-fortran.h
REM seed -694272399 -749093117 369167010 -790669019 -611080527 999951635 -1347880890 297939647 -713097869 -1534377510 467213632 -759660645 2147332150 419923230 -1978394838 493154288 -21672610 1682936482 1630723357 -1570323253 -51673720 1854213056 -1841716721 334969879 614060168 408079887 1430032527 1907323305 1853318687 -1441606682 -1736370554 25557361 -1758556233
REM
CELL 1.54180   15.00000   15.00000   15.00000   90.00000   90.00000   90.00000
LATT -1
SFAC C  
C      1  0.5382660000000  0.3025740000000  0.4904460000000 1.0
C      1  0.6674350000000  0.4057190000000  0.4914300000000 1.0
C      1  0.6776430000000  0.5747000000000  0.4913880000000 1.0
C      1  0.5618310000000  0.6926440000000  0.4903500000000 1.0
C      1  0.4030100000000  0.6533190000000  0.5046370000000 1.0
C      1  0.3135020000000  0.5119030000000  0.5066980000000 1.0
C      1  0.3853350000000  0.3607400000000  0.5047090000000 1.0
C      1  0.5783040000000  0.7518030000000  0.6466900000000 1.0
C      1  0.3533040000000  0.7481610000000  0.6609560000000 1.0
C      1  0.2065850000000  0.5184020000000  0.6633150000000 1.0
C      1  0.3245770000000  0.2726480000000  0.6610730000000 1.0
C      1  0.5475020000000  0.2419390000000  0.6468160000000 1.0
C      1  0.7736500000000  0.3406010000000  0.6344560000000 1.0
C      1  0.7909290000000  0.6266280000000  0.6343850000000 1.0
C      1  0.5123860000000  0.3893370000000  0.2307310000000 1.0
C      1  0.5919680000000  0.4460520000000  0.2283270000000 1.0
C      1  0.5978620000000  0.5436150000000  0.2283030000000 1.0
C      1  0.5256870000000  0.6095000000000  0.2306770000000 1.0
C      1  0.4294630000000  0.5930810000000  0.2359220000000 1.0
C      1  0.3820090000000  0.5076980000000  0.2382220000000 1.0
C      1  0.4188390000000  0.4172220000000  0.2359650000000 1.0
C      1  0.4454630000000  0.3132260000000  0.3557920000000 1.0
C      1  0.6107860000000  0.3405590000000  0.3484260000000 1.0
C      1  0.6925330000000  0.4889650000000  0.3460250000000 1.0
C      1  0.6292460000000  0.6461350000000  0.3483500000000 1.0
C      1  0.4684170000000  0.6931750000000  0.3556980000000 1.0
C      1  0.3300160000000  0.5960030000000  0.3621980000000 1.0
C      1  0.3197670000000  0.4263560000000  0.3622400000000 1.0
C      1  0.5268380000000  0.3216360000000  0.3034990000000 1.0
C      1  0.6539140000000  0.4128440000000  0.3001960000000 1.0
C      1  0.6633580000000  0.5691600000000  0.3001570000000 1.0
C      1  0.5481860000000  0.6750050000000  0.3034120000000 1.0
C      1  0.3942800000000  0.6483700000000  0.3121000000000 1.0
C      1  0.3179820000000  0.5115850000000  0.3156280000000 1.0
C      1  0.3772580000000  0.3666080000000  0.3121700000000 1.0
C      1  0.6318580000000  0.6493340000000  0.4424150000000 1.0
C      1  0.4760050000000  0.6942640000000  0.4494900000000 1.0
C      1  0.3335780000000  0.5969630000000  0.4555560000000 1.0
C      1  0.3231910000000  0.4250210000000  0.4555990000000 1.0
C      1  0.4528690000000  0.3112780000000  0.4495850000000 1.0
C      1  0.6129970000000  0.3371150000000  0.4424920000000 1.0
C      1  0.6961410000000  0.4887710000000  0.4392580000000 1.0
C      1  0.7260190000000  0.5946550000000  0.5892320000000 1.0
C      1  0.5625160000000  0.6846250000000  0.5861950000000 1.0
C      1  0.3845850000000  0.6890300000000  0.6080020000000 1.0
C      1  0.2730280000000  0.5143740000000  0.6100010000000 1.0
C      1  0.3627480000000  0.3275580000000  0.6080910000000 1.0
C      1  0.5399150000000  0.3105000000000  0.5862880000000 1.0
C      1  0.7130600000000  0.3801340000000  0.5892850000000 1.0
C      1  0.3828770000000  0.5077340000000  0.5930540000000 1.0
C      1  0.4260140000000  0.4178680000000  0.5927410000000 1.0
C      1  0.5299540000000  0.4091940000000  0.6151890000000 1.0
C      1  0.6220850000000  0.4436770000000  0.5853770000000 1.0
C      1  0.6280570000000  0.5425240000000  0.5853520000000 1.0
C      1  0.5407470000000  0.5878610000000  0.6151450000000 1.0
C      1  0.4365190000000  0.5917530000000  0.5926980000000 1.0
C      1  0.5000200000000  0.5006750000000  0.6662560000000 1.0
C      1  0.3496300000000  0.5098140000000  0.8839820000000 1.0
C      1  0.4496690000000  0.5037350000000  0.7391510000000 1.0
C      1  0.3992490000000  0.5067990000000  0.8121470000000 1.0
END
