TITL C-3036485-3770-706 -1.13037824491969e-06 3375 -360.24246908914 0 0 60 (D5d) n - 1
REM
REM in /home/bkarasulu/work/CARBON/AIRSS/Generating-Clusters/REBO/Higher-Symm/Only-C60
REM
REM
REM
REM
REM
REM ./C.cell (a2850807a9bf4ad07a5b6933b78d9264)
REM AIRSS Version 0.9.1 bugfix July 2018 build 013d7b7c2542+ Fri, 06 Jul 2018 19:26:36 +0100
REM compiler GCC version 9.2.1 20190827 (Red Hat 9.2.1-1)
REM options -cpp -mtune=generic -march=x86-64 -g -O0 -fpre-include=/usr/include/finclude/math-vector-fortran.h
REM seed 174902749 365089444 -547182359 -2145472697 -1016653133 -1755374003 -36066712 -1874655744 -1023183776 629419937 721018587 -1142225832 688252936 510010111 -947264364 1910856919 233485698 7360623 474053015 1405277640 -933055596 -1431331733 -1676128422 -1145615085 -1225853339 -2022746257 -252254686 115042550 1710952487 -1561805852 1420432861 -359891829 1029377146
REM
CELL 1.54180   15.00000   15.00000   15.00000   90.00000   90.00000   90.00000
LATT -1
SFAC C  
C      1  0.5961970000000  0.1959200000000  0.5152160000000 1.0
C      1  0.7565590000000  0.3105370000000  0.4847840000000 1.0
C      1  0.8189240000000  0.4975230000000  0.5152160000000 1.0
C      1  0.7594710000000  0.6854550000000  0.4847840000000 1.0
C      1  0.6009090000000  0.8025490000000  0.5152160000000 1.0
C      1  0.4038030000000  0.8040800000000  0.4847840000000 1.0
C      1  0.2434410000000  0.6894630000000  0.5152160000000 1.0
C      1  0.1810760000000  0.5024770000000  0.4847840000000 1.0
C      1  0.2405290000000  0.3145450000000  0.5152160000000 1.0
C      1  0.3990910000000  0.1974510000000  0.4847840000000 1.0
C      1  0.2017950000000  0.6131050000000  0.4847850000000 1.0
C      1  0.1922660000000  0.4162230000000  0.5152160000000 1.0
C      1  0.3002810000000  0.2513420000000  0.4847840000000 1.0
C      1  0.4845810000000  0.1814390000000  0.5152150000000 1.0
C      1  0.6747710000000  0.2332160000000  0.4847840000000 1.0
C      1  0.7982050000000  0.3868950000000  0.5152150000000 1.0
C      1  0.8077340000000  0.5837770000000  0.4847840000000 1.0
C      1  0.6997190000000  0.7486580000000  0.5152160000000 1.0
C      1  0.5154190000000  0.8185610000000  0.4847850000000 1.0
C      1  0.3252290000000  0.7667840000000  0.5152160000000 1.0
C      1  0.3354950000000  0.6740090000000  0.5717320000000 1.0
C      1  0.2646330000000  0.5440820000000  0.4282680000000 1.0
C      1  0.2836730000000  0.3973180000000  0.5717320000000 1.0
C      1  0.3853430000000  0.2897750000000  0.4282680000000 1.0
C      1  0.5308080000000  0.2625300000000  0.5717320000000 1.0
C      1  0.6645050000000  0.3259910000000  0.4282680000000 1.0
C      1  0.7353670000000  0.4559180000000  0.5717320000000 1.0
C      1  0.7163270000000  0.6026820000000  0.4282680000000 1.0
C      1  0.6146570000000  0.7102250000000  0.5717320000000 1.0
C      1  0.4691920000000  0.7374700000000  0.4282680000000 1.0
C      1  0.3629500000000  0.4349480000000  0.6327680000000 1.0
C      1  0.4273610000000  0.3668160000000  0.3672320000000 1.0
C      1  0.5195170000000  0.3495560000000  0.6327680000000 1.0
C      1  0.6042190000000  0.3897600000000  0.3672320000000 1.0
C      1  0.6491120000000  0.4720720000000  0.6327680000000 1.0
C      1  0.6370500000000  0.5650520000000  0.3672320000000 1.0
C      1  0.5726390000000  0.6331840000000  0.6327680000000 1.0
C      1  0.4804830000000  0.6504440000000  0.3672320000000 1.0
C      1  0.3957810000000  0.6102400000000  0.6327680000000 1.0
C      1  0.3508880000000  0.5279280000000  0.3672320000000 1.0
C      1  0.5645780000000  0.4316910000000  0.6872490000000 1.0
C      1  0.5923950000000  0.4826950000000  0.3127510000000 1.0
C      1  0.5849210000000  0.5403080000000  0.6872490000000 1.0
C      1  0.5450100000000  0.5825260000000  0.3127510000000 1.0
C      1  0.4879060000000  0.5932200000000  0.6872490000000 1.0
C      1  0.4354220000000  0.5683090000000  0.3127510000000 1.0
C      1  0.4076050000000  0.5173050000000  0.6872490000000 1.0
C      1  0.4150790000000  0.4596920000000  0.3127510000000 1.0
C      1  0.4549900000000  0.4174740000000  0.6872490000000 1.0
C      1  0.5120940000000  0.4067800000000  0.3127510000000 1.0
C      1  0.4323430000000  0.3759500000000  0.4775090000000 1.0
C      1  0.5181790000000  0.3598730000000  0.5224910000000 1.0
C      1  0.5970720000000  0.3973200000000  0.4775090000000 1.0
C      1  0.6388860000000  0.4739880000000  0.5224910000000 1.0
C      1  0.6276510000000  0.5605910000000  0.4775090000000 1.0
C      1  0.5676570000000  0.6240500000000  0.5224910000000 1.0
C      1  0.4818210000000  0.6401270000000  0.4775090000000 1.0
C      1  0.4029280000000  0.6026800000000  0.5224910000000 1.0
C      1  0.3611140000000  0.5260120000000  0.4775090000000 1.0
C      1  0.3723490000000  0.4394090000000  0.5224910000000 1.0
END
