TITL C-3036484-3770-578 2.10666682710331e-05 3375 -339.87546180092 0 0 60 (C1) n - 1
REM
REM in /home/bkarasulu/work/CARBON/AIRSS/Generating-Clusters/REBO/Higher-Symm/Only-C60
REM
REM
REM
REM
REM
REM ./C.cell (a2850807a9bf4ad07a5b6933b78d9264)
REM AIRSS Version 0.9.1 bugfix July 2018 build 013d7b7c2542+ Fri, 06 Jul 2018 19:26:36 +0100
REM compiler GCC version 9.2.1 20190827 (Red Hat 9.2.1-1)
REM options -cpp -mtune=generic -march=x86-64 -g -O0 -fpre-include=/usr/include/finclude/math-vector-fortran.h
REM seed -30445596 882368828 -613044727 491415933 1959218136 -618636209 -2061250643 -635457996 -1945685708 1325181616 -1218929280 -1660097397 1892001803 -1735999330 1208426317 -1536264633 -737628811 552580005 -1399352713 -1486313352 1950210929 -506485451 -925371369 884927617 1854713020 522360646 2080125500 -1835242466 44326433 753873737 1517724894 -857919810 -1400428187
REM
CELL 1.54180   15.00000   15.00000   15.00000   90.00000   90.00000   90.00000
LATT -1
SFAC C  
C      1  0.3998940000000  0.5096140000000  0.2750580000000 1.0
C      1  0.2732380000000  0.4908170000000  0.5194520000000 1.0
C      1  0.4461740000000  0.5025590000000  0.7363980000000 1.0
C      1  0.6997880000000  0.4972490000000  0.6256810000000 1.0
C      1  0.6643450000000  0.4923030000000  0.3497700000000 1.0
C      1  0.5457490000000  0.5534070000000  0.7248610000000 1.0
C      1  0.7247200000000  0.5460160000000  0.5265750000000 1.0
C      1  0.5846020000000  0.5469250000000  0.2922930000000 1.0
C      1  0.3278310000000  0.5578630000000  0.3462270000000 1.0
C      1  0.3018930000000  0.5416480000000  0.6166460000000 1.0
C      1  0.6831400000000  0.3716560000000  0.4522270000000 1.0
C      1  0.4840240000000  0.3803000000000  0.3118570000000 1.0
C      1  0.2982990000000  0.3556840000000  0.4277780000000 1.0
C      1  0.3920370000000  0.3769770000000  0.6576870000000 1.0
C      1  0.6244680000000  0.3622310000000  0.6734220000000 1.0
C      1  0.6268510000000  0.6768160000000  0.6147360000000 1.0
C      1  0.6481300000000  0.6741270000000  0.4128500000000 1.0
C      1  0.4616210000000  0.6825110000000  0.3361770000000 1.0
C      1  0.3231660000000  0.6742950000000  0.4863470000000 1.0
C      1  0.4282950000000  0.6781080000000  0.6577190000000 1.0
C      1  0.3859100000000  0.5618590000000  0.5160500000000 1.0
C      1  0.4770630000000  0.5641480000000  0.6116120000000 1.0
C      1  0.5960740000000  0.5631200000000  0.5547520000000 1.0
C      1  0.5786810000000  0.5622780000000  0.4239860000000 1.0
C      1  0.4488960000000  0.5676990000000  0.4005760000000 1.0
C      1  0.2841710000000  0.3918010000000  0.5123280000000 1.0
C      1  0.4475460000000  0.4039810000000  0.7254720000000 1.0
C      1  0.6977090000000  0.3980380000000  0.6305200000000 1.0
C      1  0.6539270000000  0.3945420000000  0.3680800000000 1.0
C      1  0.4026320000000  0.4108640000000  0.2821200000000 1.0
C      1  0.7082830000000  0.6103320000000  0.6139470000000 1.0
C      1  0.6676070000000  0.6054230000000  0.3347980000000 1.0
C      1  0.3918570000000  0.6228090000000  0.2861000000000 1.0
C      1  0.2609510000000  0.6034110000000  0.5353030000000 1.0
C      1  0.4561250000000  0.6158170000000  0.7367690000000 1.0
C      1  0.3309590000000  0.3494430000000  0.5792450000000 1.0
C      1  0.5299180000000  0.3611030000000  0.7173140000000 1.0
C      1  0.7154890000000  0.3491650000000  0.5510580000000 1.0
C      1  0.5762360000000  0.3514890000000  0.3437100000000 1.0
C      1  0.3338810000000  0.3622600000000  0.3260070000000 1.0
C      1  0.5422590000000  0.3111090000000  0.6157950000000 1.0
C      1  0.6254240000000  0.3035030000000  0.5111300000000 1.0
C      1  0.4900420000000  0.3153930000000  0.4083800000000 1.0
C      1  0.3859400000000  0.2999010000000  0.3976490000000 1.0
C      1  0.4377390000000  0.3125430000000  0.5777900000000 1.0
C      1  0.3865190000000  0.5404170000000  0.6523750000000 1.0
C      1  0.6029110000000  0.5407100000000  0.6545020000000 1.0
C      1  0.6766510000000  0.5388980000000  0.4491950000000 1.0
C      1  0.4955470000000  0.5448530000000  0.3142120000000 1.0
C      1  0.3229860000000  0.5418410000000  0.4357090000000 1.0
C      1  0.5352880000000  0.6543190000000  0.6383610000000 1.0
C      1  0.6426130000000  0.6534230000000  0.5078110000000 1.0
C      1  0.5493690000000  0.6544620000000  0.3673200000000 1.0
C      1  0.3856130000000  0.6572560000000  0.4135570000000 1.0
C      1  0.3749960000000  0.6521300000000  0.5808910000000 1.0
C      1  0.4964530000000  0.4325200000000  0.5001660000000 1.0
C      1  0.4982520000000  0.7339160000000  0.5029580000000 1.0
C      1  0.4977970000000  0.6488320000000  0.5021910000000 1.0
C      1  0.4971850000000  0.5330790000000  0.5011410000000 1.0
C      1  0.5207340000000  0.3022190000000  0.5037680000000 1.0
END
