TITL C-3036483-1610-112 1.52295709391184e-05 3375 -349.36090509146 0 0 60 (C1) n - 1
REM
REM in /home/bkarasulu/work/CARBON/AIRSS/Generating-Clusters/REBO/Higher-Symm/Only-C60
REM
REM
REM
REM
REM
REM ./C.cell (a2850807a9bf4ad07a5b6933b78d9264)
REM AIRSS Version 0.9.1 bugfix July 2018 build 013d7b7c2542+ Fri, 06 Jul 2018 19:26:36 +0100
REM compiler GCC version 9.2.1 20190827 (Red Hat 9.2.1-1)
REM options -cpp -mtune=generic -march=x86-64 -g -O0 -fpre-include=/usr/include/finclude/math-vector-fortran.h
REM seed 789050097 2088611336 2052828080 189233739 -1373986345 -2138392850 -323910678 263523217 -12864061 -1365719773 523643254 -31922090 288993092 -1148194020 -892440530 -1238142356 191028371 78037298 -1340599321 575419914 1877451698 976446162 -618849872 1005815240 -478667781 -1168403155 -1351316034 1882498287 500972379 -1961372160 -618581516 -1219377651 952777292
REM
CELL 1.54180   15.00000   15.00000   15.00000   90.00000   90.00000   90.00000
LATT -1
SFAC C  
C      1  0.3082340000000  0.5799920000000  0.6082810000000 1.0
C      1  0.5234000000000  0.7025180000000  0.5293890000000 1.0
C      1  0.2912020000000  0.4711980000000  0.3728130000000 1.0
C      1  0.5449760000000  0.6790470000000  0.3701160000000 1.0
C      1  0.3622280000000  0.3283100000000  0.5978250000000 1.0
C      1  0.4743080000000  0.4892370000000  0.7417470000000 1.0
C      1  0.5064790000000  0.4303590000000  0.5977970000000 1.0
C      1  0.3991400000000  0.5927920000000  0.6561840000000 1.0
C      1  0.5615040000000  0.5173660000000  0.6846170000000 1.0
C      1  0.2862240000000  0.4491800000000  0.4826280000000 1.0
C      1  0.4163040000000  0.5605700000000  0.7522930000000 1.0
C      1  0.3221000000000  0.3700370000000  0.4086450000000 1.0
C      1  0.3688660000000  0.6608580000000  0.3836120000000 1.0
C      1  0.3884620000000  0.7050670000000  0.4706750000000 1.0
C      1  0.3797180000000  0.3553480000000  0.4960420000000 1.0
C      1  0.3482680000000  0.5033040000000  0.3042380000000 1.0
C      1  0.6948790000000  0.4082600000000  0.4167680000000 1.0
C      1  0.4438320000000  0.2663710000000  0.6221330000000 1.0
C      1  0.3195240000000  0.5946510000000  0.4442580000000 1.0
C      1  0.6433800000000  0.6672750000000  0.6241600000000 1.0
C      1  0.4952230000000  0.3243700000000  0.4381180000000 1.0
C      1  0.6731500000000  0.5611950000000  0.3496620000000 1.0
C      1  0.5277470000000  0.5899150000000  0.5275150000000 1.0
C      1  0.5690330000000  0.7359010000000  0.4552950000000 1.0
C      1  0.6587880000000  0.7546000000000  0.4805870000000 1.0
C      1  0.6519170000000  0.3884810000000  0.5061060000000 1.0
C      1  0.5553160000000  0.2342910000000  0.4533150000000 1.0
C      1  0.6860220000000  0.7183370000000  0.5614780000000 1.0
C      1  0.4397920000000  0.4431210000000  0.4839150000000 1.0
C      1  0.5586610000000  0.4049990000000  0.3384050000000 1.0
C      1  0.4425970000000  0.4470040000000  0.3071630000000 1.0
C      1  0.4450830000000  0.5535330000000  0.2714570000000 1.0
C      1  0.4734210000000  0.6665390000000  0.6218730000000 1.0
C      1  0.5689780000000  0.6247950000000  0.6537990000000 1.0
C      1  0.5446090000000  0.3997670000000  0.5014550000000 1.0
C      1  0.4836630000000  0.5359250000000  0.6038020000000 1.0
C      1  0.6315640000000  0.6312210000000  0.4014300000000 1.0
C      1  0.6733710000000  0.4683840000000  0.5710140000000 1.0
C      1  0.4439200000000  0.2640420000000  0.5175460000000 1.0
C      1  0.6337690000000  0.3096720000000  0.5733080000000 1.0
C      1  0.6085800000000  0.2307700000000  0.5283780000000 1.0
C      1  0.6282960000000  0.4484770000000  0.6522380000000 1.0
C      1  0.4994350000000  0.3416830000000  0.6687510000000 1.0
C      1  0.7163660000000  0.5022370000000  0.4171460000000 1.0
C      1  0.3859310000000  0.5317590000000  0.5119890000000 1.0
C      1  0.6445290000000  0.3776900000000  0.3436760000000 1.0
C      1  0.4060120000000  0.6415330000000  0.5341820000000 1.0
C      1  0.4973190000000  0.4724110000000  0.4006170000000 1.0
C      1  0.2745460000000  0.6212790000000  0.5319790000000 1.0
C      1  0.4271090000000  0.3623910000000  0.3721060000000 1.0
C      1  0.6298740000000  0.6070430000000  0.4935910000000 1.0
C      1  0.6950530000000  0.5384560000000  0.5090480000000 1.0
C      1  0.6276200000000  0.5409570000000  0.2689950000000 1.0
C      1  0.4541410000000  0.6277140000000  0.3425750000000 1.0
C      1  0.5137230000000  0.5714250000000  0.4182810000000 1.0
C      1  0.6019700000000  0.3554630000000  0.6521720000000 1.0
C      1  0.3174660000000  0.4773010000000  0.5850200000000 1.0
C      1  0.4323060000000  0.4131800000000  0.7068600000000 1.0
C      1  0.3557320000000  0.4083960000000  0.6484020000000 1.0
C      1  0.5443400000000  0.5420030000000  0.2325330000000 1.0
END
