TITL C-3036481-494-563 -3.67536993371503e-05 3375 -370.518035775361 0 0 60 (C5) n - 1
REM
REM in /home/bkarasulu/work/CARBON/AIRSS/Generating-Clusters/REBO/Higher-Symm/Only-C60
REM
REM
REM
REM
REM
REM ./C.cell (a2850807a9bf4ad07a5b6933b78d9264)
REM AIRSS Version 0.9.1 bugfix July 2018 build 013d7b7c2542+ Fri, 06 Jul 2018 19:26:36 +0100
REM compiler GCC version 9.2.1 20190827 (Red Hat 9.2.1-1)
REM options -cpp -mtune=generic -march=x86-64 -g -O0 -fpre-include=/usr/include/finclude/math-vector-fortran.h
REM seed 1061651371 -309138120 1987004649 132521274 -1583545068 -1987067406 676659273 1608979492 24668256 479096122 595694663 2094161929 -1017377530 1965160860 457565981 221742265 1118172744 -1831403305 -481019817 -426800008 -503903897 -20155187 -376270372 -319057789 992807830 1458414135 -1257612168 -625113941 -1491467257 -238203145 1117293098 619834393 -1733576196
REM
CELL 1.54180   15.00000   15.00000   15.00000   90.00000   90.00000   90.00000
LATT -1
SFAC C  
C      1  0.4119830000000  0.7331900000000  0.3932480000000 1.0
C      1  0.5743290000000  0.7331900000000  0.3833020000000 1.0
C      1  0.6339550000000  0.7331900000000  0.5346290000000 1.0
C      1  0.5084600000000  0.7331900000000  0.6381000000000 1.0
C      1  0.3712740000000  0.7331900000000  0.5507210000000 1.0
C      1  0.4119830000000  0.2668100000000  0.3932480000000 1.0
C      1  0.5743290000000  0.2668100000000  0.3833020000000 1.0
C      1  0.6339550000000  0.2668100000000  0.5346290000000 1.0
C      1  0.5084600000000  0.2668100000000  0.6381000000000 1.0
C      1  0.3712740000000  0.2668100000000  0.5507210000000 1.0
C      1  0.5254480000000  0.4229670000000  0.5760040000000 1.0
C      1  0.4355800000000  0.4229670000000  0.5476900000000 1.0
C      1  0.4347380000000  0.4229670000000  0.4534690000000 1.0
C      1  0.5240860000000  0.4229670000000  0.4235530000000 1.0
C      1  0.5801480000000  0.4229670000000  0.4992840000000 1.0
C      1  0.5254480000000  0.5770330000000  0.5760040000000 1.0
C      1  0.4355800000000  0.5770330000000  0.5476900000000 1.0
C      1  0.4347380000000  0.5770330000000  0.4534690000000 1.0
C      1  0.5240860000000  0.5770330000000  0.4235530000000 1.0
C      1  0.5801480000000  0.5770330000000  0.4992840000000 1.0
C      1  0.3538930000000  0.7048540000000  0.4620460000000 1.0
C      1  0.4909470000000  0.7048540000000  0.3493160000000 1.0
C      1  0.6405120000000  0.7048540000000  0.4448260000000 1.0
C      1  0.5958940000000  0.7048540000000  0.6165850000000 1.0
C      1  0.4187540000000  0.7048540000000  0.6272280000000 1.0
C      1  0.3538930000000  0.2951460000000  0.4620460000000 1.0
C      1  0.4909470000000  0.2951460000000  0.3493160000000 1.0
C      1  0.6405120000000  0.2951460000000  0.4448260000000 1.0
C      1  0.5958940000000  0.2951460000000  0.6165850000000 1.0
C      1  0.4187540000000  0.2951460000000  0.6272280000000 1.0
C      1  0.3091180000000  0.6209940000000  0.4555140000000 1.0
C      1  0.4833230000000  0.6209940000000  0.3047130000000 1.0
C      1  0.6805750000000  0.6209940000000  0.4237920000000 1.0
C      1  0.6282790000000  0.6209940000000  0.6481880000000 1.0
C      1  0.3987050000000  0.6209940000000  0.6677930000000 1.0
C      1  0.3091180000000  0.3790060000000  0.4555140000000 1.0
C      1  0.4833230000000  0.3790060000000  0.3047130000000 1.0
C      1  0.6805750000000  0.3790060000000  0.4237920000000 1.0
C      1  0.6282790000000  0.3790060000000  0.6481880000000 1.0
C      1  0.3987050000000  0.3790060000000  0.6677930000000 1.0
C      1  0.3482660000000  0.4491140000000  0.6043250000000 1.0
C      1  0.3538920000000  0.4491140000000  0.3879310000000 1.0
C      1  0.5614340000000  0.4491140000000  0.3264120000000 1.0
C      1  0.6840760000000  0.4491140000000  0.5047860000000 1.0
C      1  0.5523310000000  0.4491140000000  0.6765460000000 1.0
C      1  0.3482660000000  0.5508860000000  0.6043250000000 1.0
C      1  0.3538920000000  0.5508860000000  0.3879310000000 1.0
C      1  0.5614340000000  0.5508860000000  0.3264120000000 1.0
C      1  0.6840760000000  0.5508860000000  0.5047860000000 1.0
C      1  0.5523310000000  0.5508860000000  0.6765460000000 1.0
C      1  0.2776650000000  0.4124840000000  0.5352610000000 1.0
C      1  0.3977590000000  0.4124840000000  0.2994430000000 1.0
C      1  0.6591470000000  0.4124840000000  0.3407870000000 1.0
C      1  0.7005990000000  0.4124840000000  0.6021580000000 1.0
C      1  0.4648300000000  0.4124840000000  0.7223500000000 1.0
C      1  0.2776650000000  0.5875160000000  0.5352610000000 1.0
C      1  0.3977590000000  0.5875160000000  0.2994430000000 1.0
C      1  0.6591470000000  0.5875160000000  0.3407870000000 1.0
C      1  0.7005990000000  0.5875160000000  0.6021580000000 1.0
C      1  0.4648300000000  0.5875160000000  0.7223500000000 1.0
END
