TITL C-3036482-790-878 1.57562910133482e-06 3375 -377.529117261095 0 0 60 (Td) n - 1
REM
REM in /home/bkarasulu/work/CARBON/AIRSS/Generating-Clusters/REBO/Higher-Symm/Only-C60
REM
REM
REM
REM
REM
REM ./C.cell (a2850807a9bf4ad07a5b6933b78d9264)
REM AIRSS Version 0.9.1 bugfix July 2018 build 013d7b7c2542+ Fri, 06 Jul 2018 19:26:36 +0100
REM compiler GCC version 9.2.1 20190827 (Red Hat 9.2.1-1)
REM options -cpp -mtune=generic -march=x86-64 -g -O0 -fpre-include=/usr/include/finclude/math-vector-fortran.h
REM seed -124168081 -427843084 1883166057 -1600175181 -1811957463 1600842695 -1411553291 1494037611 462572499 -1486536413 503089704 -538729627 -1812370861 -992601901 628359363 -124403147 1500987575 -53829612 1843490976 -207378929 520019166 1157894566 -119794457 558104023 -736992670 971805917 -1515774811 -154969112 134061280 -1804409726 -1667218066 -817702379 -1441552335
REM
CELL 1.54180   15.00000   15.00000   15.00000   90.00000   90.00000   90.00000
LATT -1
SFAC C  
C      1  0.4543990000000  0.2738640000000  0.3864720000000 1.0
C      1  0.2738640000000  0.3864720000000  0.4543990000000 1.0
C      1  0.3864720000000  0.4543990000000  0.2738640000000 1.0
C      1  0.5456010000000  0.7261360000000  0.3864720000000 1.0
C      1  0.4543990000000  0.7261360000000  0.6135280000000 1.0
C      1  0.5456010000000  0.2738640000000  0.6135280000000 1.0
C      1  0.7261360000000  0.6135280000000  0.4543990000000 1.0
C      1  0.2738640000000  0.6135280000000  0.5456010000000 1.0
C      1  0.7261360000000  0.3864720000000  0.5456010000000 1.0
C      1  0.6135280000000  0.5456010000000  0.2738640000000 1.0
C      1  0.3864720000000  0.5456010000000  0.7261360000000 1.0
C      1  0.6135280000000  0.4543990000000  0.7261360000000 1.0
C      1  0.2738640000000  0.4543990000000  0.3864720000000 1.0
C      1  0.3864720000000  0.2738640000000  0.4543990000000 1.0
C      1  0.4543990000000  0.3864720000000  0.2738640000000 1.0
C      1  0.7261360000000  0.5456010000000  0.3864720000000 1.0
C      1  0.7261360000000  0.4543990000000  0.6135280000000 1.0
C      1  0.2738640000000  0.5456010000000  0.6135280000000 1.0
C      1  0.6135280000000  0.7261360000000  0.4543990000000 1.0
C      1  0.6135280000000  0.2738640000000  0.5456010000000 1.0
C      1  0.3864720000000  0.7261360000000  0.5456010000000 1.0
C      1  0.5456010000000  0.6135280000000  0.2738640000000 1.0
C      1  0.5456010000000  0.3864720000000  0.7261360000000 1.0
C      1  0.4543990000000  0.6135280000000  0.7261360000000 1.0
C      1  0.6717700000000  0.3979480000000  0.4639650000000 1.0
C      1  0.3979480000000  0.4639650000000  0.6717700000000 1.0
C      1  0.4639650000000  0.6717700000000  0.3979480000000 1.0
C      1  0.3282300000000  0.6020520000000  0.4639650000000 1.0
C      1  0.6717700000000  0.6020520000000  0.5360350000000 1.0
C      1  0.3282300000000  0.3979480000000  0.5360350000000 1.0
C      1  0.6020520000000  0.5360350000000  0.6717700000000 1.0
C      1  0.3979480000000  0.5360350000000  0.3282300000000 1.0
C      1  0.6020520000000  0.4639650000000  0.3282300000000 1.0
C      1  0.5360350000000  0.3282300000000  0.3979480000000 1.0
C      1  0.4639650000000  0.3282300000000  0.6020520000000 1.0
C      1  0.5360350000000  0.6717700000000  0.6020520000000 1.0
C      1  0.3979480000000  0.6717700000000  0.4639650000000 1.0
C      1  0.4639650000000  0.3979480000000  0.6717700000000 1.0
C      1  0.6717700000000  0.4639650000000  0.3979480000000 1.0
C      1  0.6020520000000  0.3282300000000  0.4639650000000 1.0
C      1  0.6020520000000  0.6717700000000  0.5360350000000 1.0
C      1  0.3979480000000  0.3282300000000  0.5360350000000 1.0
C      1  0.5360350000000  0.6020520000000  0.6717700000000 1.0
C      1  0.5360350000000  0.3979480000000  0.3282300000000 1.0
C      1  0.4639650000000  0.6020520000000  0.3282300000000 1.0
C      1  0.3282300000000  0.5360350000000  0.3979480000000 1.0
C      1  0.3282300000000  0.4639650000000  0.6020520000000 1.0
C      1  0.6717700000000  0.5360350000000  0.6020520000000 1.0
C      1  0.2961360000000  0.7038640000000  0.5764560000000 1.0
C      1  0.7038640000000  0.5764560000000  0.2961360000000 1.0
C      1  0.7038640000000  0.4235440000000  0.7038640000000 1.0
C      1  0.2961360000000  0.5764560000000  0.7038640000000 1.0
C      1  0.7038640000000  0.2961360000000  0.5764560000000 1.0
C      1  0.7038640000000  0.7038640000000  0.4235440000000 1.0
C      1  0.5764560000000  0.7038640000000  0.2961360000000 1.0
C      1  0.5764560000000  0.2961360000000  0.7038640000000 1.0
C      1  0.2961360000000  0.4235440000000  0.2961360000000 1.0
C      1  0.4235440000000  0.7038640000000  0.7038640000000 1.0
C      1  0.2961360000000  0.2961360000000  0.4235440000000 1.0
C      1  0.4235440000000  0.2961360000000  0.2961360000000 1.0
END
