TITL C-3036479-9801-937 0.0463459236096974 3375 -340.666643976931 0 0 60 (C1) n - 1
REM
REM in /home/bkarasulu/work/CARBON/AIRSS/Generating-Clusters/REBO/Higher-Symm/Only-C60
REM
REM
REM
REM
REM
REM ./C.cell (a2850807a9bf4ad07a5b6933b78d9264)
REM AIRSS Version 0.9.1 bugfix July 2018 build 013d7b7c2542+ Fri, 06 Jul 2018 19:26:36 +0100
REM compiler GCC version 9.2.1 20190827 (Red Hat 9.2.1-1)
REM options -cpp -mtune=generic -march=x86-64 -g -O0 -fpre-include=/usr/include/finclude/math-vector-fortran.h
REM seed 1704186209 -747028779 -1428349300 -270699732 1651066075 -108242054 -1017136871 1046760747 1725322994 1009646944 1086860516 -936070348 846439926 166639823 825157763 610798646 -1144466900 -1720948428 799462739 -203583846 6721548 -1810332162 -791016004 566335553 -960634021 -1590640746 -901340808 -853582318 -1641514349 -1369123904 -1504890750 2049218429 -1986137668
REM
CELL 1.54180   15.00000   15.00000   15.00000   90.00000   90.00000   90.00000
LATT -1
SFAC C  
C      1  0.5393200000000  0.4169800000000  0.5340910000000 1.0
C      1  0.5962520000000  0.6455340000000  0.2788990000000 1.0
C      1  0.3566190000000  0.4608410000000  0.5286860000000 1.0
C      1  0.6469810000000  0.6317860000000  0.5378400000000 1.0
C      1  0.3095160000000  0.5612020000000  0.5554030000000 1.0
C      1  0.4935090000000  0.6569890000000  0.6219100000000 1.0
C      1  0.4459990000000  0.2475120000000  0.4244250000000 1.0
C      1  0.4024920000000  0.5122700000000  0.4153110000000 1.0
C      1  0.3171170000000  0.5804390000000  0.7330400000000 1.0
C      1  0.4376420000000  0.7024020000000  0.5455400000000 1.0
C      1  0.4230410000000  0.5819760000000  0.7363160000000 1.0
C      1  0.5620160000000  0.3088510000000  0.5461570000000 1.0
C      1  0.3598320000000  0.3194970000000  0.4243710000000 1.0
C      1  0.3265750000000  0.3085660000000  0.5266590000000 1.0
C      1  0.4831590000000  0.7690400000000  0.3913990000000 1.0
C      1  0.4982920000000  0.6219770000000  0.2892170000000 1.0
C      1  0.3683160000000  0.5639590000000  0.6390310000000 1.0
C      1  0.4965560000000  0.4573700000000  0.6178750000000 1.0
C      1  0.4092060000000  0.2508610000000  0.5267510000000 1.0
C      1  0.5184470000000  0.2967970000000  0.3572220000000 1.0
C      1  0.4499190000000  0.7095620000000  0.3285610000000 1.0
C      1  0.3090950000000  0.4820600000000  0.3965520000000 1.0
C      1  0.5183790000000  0.5268780000000  0.7423850000000 1.0
C      1  0.3798340000000  0.6825320000000  0.4407850000000 1.0
C      1  0.6630630000000  0.6134510000000  0.3179420000000 1.0
C      1  0.3562210000000  0.3937720000000  0.3645120000000 1.0
C      1  0.5141140000000  0.6408810000000  0.7318400000000 1.0
C      1  0.6805010000000  0.4228150000000  0.3434110000000 1.0
C      1  0.3934370000000  0.5596760000000  0.2911240000000 1.0
C      1  0.3708490000000  0.6451600000000  0.3356320000000 1.0
C      1  0.6455390000000  0.4163080000000  0.5390120000000 1.0
C      1  0.5777790000000  0.4690130000000  0.3526550000000 1.0
C      1  0.3340150000000  0.6594840000000  0.5353820000000 1.0
C      1  0.4511710000000  0.4374960000000  0.4694300000000 1.0
C      1  0.6626450000000  0.5363630000000  0.3825810000000 1.0
C      1  0.4326100000000  0.3682720000000  0.6455570000000 1.0
C      1  0.5093430000000  0.7485380000000  0.4785110000000 1.0
C      1  0.6807410000000  0.4028790000000  0.6411250000000 1.0
C      1  0.5557060000000  0.2521580000000  0.4530530000000 1.0
C      1  0.4984270000000  0.5902540000000  0.5071470000000 1.0
C      1  0.4069350000000  0.4507920000000  0.2977790000000 1.0
C      1  0.5202810000000  0.3973410000000  0.4040910000000 1.0
C      1  0.6723390000000  0.3131390000000  0.5720210000000 1.0
C      1  0.4721640000000  0.2860980000000  0.5925210000000 1.0
C      1  0.3441760000000  0.3815100000000  0.5891020000000 1.0
C      1  0.7496820000000  0.4410760000000  0.4153990000000 1.0
C      1  0.5589750000000  0.6639600000000  0.5059600000000 1.0
C      1  0.6113320000000  0.5451440000000  0.6934680000000 1.0
C      1  0.7102090000000  0.4743190000000  0.4904180000000 1.0
C      1  0.4682930000000  0.5491470000000  0.6026160000000 1.0
C      1  0.4344490000000  0.5929740000000  0.4402890000000 1.0
C      1  0.5849180000000  0.7159840000000  0.7057560000000 1.0
C      1  0.6626000000000  0.2847720000000  0.4639230000000 1.0
C      1  0.6042120000000  0.6299400000000  0.6346250000000 1.0
C      1  0.5027110000000  0.5113920000000  0.3022120000000 1.0
C      1  0.2589930000000  0.4965700000000  0.4805990000000 1.0
C      1  0.6690700000000  0.4754000000000  0.6916610000000 1.0
C      1  0.6185720000000  0.3450660000000  0.3815650000000 1.0
C      1  0.4909110000000  0.4250340000000  0.7246870000000 1.0
C      1  0.6848990000000  0.5679400000000  0.4839660000000 1.0
END
