TITL C-3036484-3770-1047 0.0115103659434082 3375 -322.086612717083 0 0 60 (C7) n - 1
REM
REM in /home/bkarasulu/work/CARBON/AIRSS/Generating-Clusters/REBO/Higher-Symm/Only-C60
REM
REM
REM
REM
REM
REM ./C.cell (a2850807a9bf4ad07a5b6933b78d9264)
REM AIRSS Version 0.9.1 bugfix July 2018 build 013d7b7c2542+ Fri, 06 Jul 2018 19:26:36 +0100
REM compiler GCC version 9.2.1 20190827 (Red Hat 9.2.1-1)
REM options -cpp -mtune=generic -march=x86-64 -g -O0 -fpre-include=/usr/include/finclude/math-vector-fortran.h
REM seed 310818180 -1343112675 -177738314 1910124176 2014712059 1177531701 -37954932 501692513 -1507365765 -79228348 1561558788 1471761624 -312697674 1330933087 -2065659377 129630744 -2143833714 -1731889932 -414709925 -850664478 1518349732 1060681016 -339172266 1968629583 754269833 1686014398 825050229 -1195151386 238610786 1402520876 -709044075 -1618100861 -2012402560
REM
CELL 1.54180   15.00000   15.00000   15.00000   90.00000   90.00000   90.00000
LATT -1
SFAC C  
C      1  0.6037330000000  0.7312410000000  0.4213770000000 1.0
C      1  0.6262970000000  0.7311820000000  0.5295560000000 1.0
C      1  0.5558020000000  0.7312340000000  0.6146640000000 1.0
C      1  0.4452700000000  0.7312150000000  0.6125880000000 1.0
C      1  0.3780100000000  0.7312500000000  0.5249120000000 1.0
C      1  0.4046140000000  0.7312380000000  0.4176040000000 1.0
C      1  0.5051110000000  0.7312390000000  0.3715360000000 1.0
C      1  0.3646040000000  0.6523190000000  0.6046780000000 1.0
C      1  0.3338400000000  0.6522780000000  0.4569630000000 1.0
C      1  0.4302320000000  0.6522210000000  0.3407590000000 1.0
C      1  0.5812550000000  0.6523110000000  0.3436760000000 1.0
C      1  0.6729910000000  0.6522420000000  0.4634990000000 1.0
C      1  0.6365320000000  0.6522340000000  0.6099430000000 1.0
C      1  0.4993050000000  0.6523010000000  0.6727570000000 1.0
C      1  0.5871820000000  0.5634210000000  0.4143410000000 1.0
C      1  0.6214720000000  0.5633350000000  0.5122410000000 1.0
C      1  0.5662920000000  0.5634130000000  0.6000750000000 1.0
C      1  0.4632080000000  0.5633920000000  0.6116920000000 1.0
C      1  0.3898890000000  0.5634110000000  0.5383750000000 1.0
C      1  0.4014520000000  0.5634620000000  0.4353210000000 1.0
C      1  0.4892740000000  0.5634700000000  0.3801010000000 1.0
C      1  0.4376320000000  0.3407040000000  0.6631580000000 1.0
C      1  0.3337470000000  0.3407320000000  0.5504050000000 1.0
C      1  0.3568670000000  0.3405890000000  0.3988030000000 1.0
C      1  0.4900050000000  0.3406600000000  0.3226000000000 1.0
C      1  0.6325830000000  0.3407120000000  0.3791220000000 1.0
C      1  0.6771630000000  0.3406670000000  0.5257320000000 1.0
C      1  0.5905640000000  0.3406950000000  0.6522080000000 1.0
C      1  0.7125680000000  0.5057030000000  0.5252760000000 1.0
C      1  0.6128800000000  0.5056750000000  0.6794020000000 1.0
C      1  0.4302830000000  0.5057000000000  0.6975970000000 1.0
C      1  0.3021920000000  0.5057060000000  0.5661570000000 1.0
C      1  0.3252160000000  0.5056140000000  0.3841680000000 1.0
C      1  0.4816870000000  0.5056480000000  0.2885870000000 1.0
C      1  0.6540990000000  0.5056840000000  0.3512910000000 1.0
C      1  0.6184890000000  0.2642460000000  0.5171170000000 1.0
C      1  0.5606280000000  0.2643060000000  0.6008270000000 1.0
C      1  0.4591420000000  0.2643130000000  0.6077810000000 1.0
C      1  0.3904180000000  0.2642800000000  0.5327190000000 1.0
C      1  0.4062450000000  0.2642510000000  0.4322090000000 1.0
C      1  0.4946710000000  0.2642520000000  0.3819150000000 1.0
C      1  0.5891480000000  0.2643190000000  0.4197070000000 1.0
C      1  0.6326720000000  0.4306490000000  0.5160490000000 1.0
C      1  0.5702980000000  0.4305990000000  0.6111990000000 1.0
C      1  0.4570090000000  0.4305840000000  0.6217710000000 1.0
C      1  0.3780910000000  0.4306510000000  0.5398120000000 1.0
C      1  0.3930250000000  0.4307350000000  0.4270150000000 1.0
C      1  0.4904890000000  0.4306940000000  0.3683020000000 1.0
C      1  0.5971390000000  0.4306370000000  0.4079600000000 1.0
C      1  0.5797930000000  0.5573340000000  0.2827270000000 1.0
C      1  0.7197670000000  0.5573140000000  0.4244050000000 1.0
C      1  0.6962420000000  0.5573250000000  0.6221840000000 1.0
C      1  0.5269650000000  0.5573840000000  0.7270760000000 1.0
C      1  0.3394300000000  0.5573590000000  0.6601450000000 1.0
C      1  0.2747900000000  0.5573560000000  0.4717410000000 1.0
C      1  0.3817880000000  0.5573370000000  0.3036930000000 1.0
C      1  0.5026900000000  0.6183740000000  0.4988730000000 1.0
C      1  0.5026670000000  0.4079870000000  0.4988570000000 1.0
C      1  0.5027000000000  0.5049120000000  0.4988770000000 1.0
C      1  0.5027060000000  0.2934300000000  0.4988920000000 1.0
END
