TITL C-3036486-2224-1107 8.89175528475296e-07 3375 -336.219461456582 0 0 60 (Ci) n - 1
REM
REM in /home/bkarasulu/work/CARBON/AIRSS/Generating-Clusters/REBO/Higher-Symm/Only-C60
REM
REM
REM
REM
REM
REM ./C.cell (a2850807a9bf4ad07a5b6933b78d9264)
REM AIRSS Version 0.9.1 bugfix July 2018 build 013d7b7c2542+ Fri, 06 Jul 2018 19:26:36 +0100
REM compiler GCC version 9.2.1 20190827 (Red Hat 9.2.1-1)
REM options -cpp -mtune=generic -march=x86-64 -g -O0 -fpre-include=/usr/include/finclude/math-vector-fortran.h
REM seed -200121008 621212027 1375306860 1613376488 388214132 1431020908 -535439710 -1223732298 -105810622 1701897696 -1511743032 417839982 -413798550 2085006519 -953730982 1419659840 495164585 -1898695026 2092133834 -1214481945 1569597172 -528695775 1447145443 -1436617333 -1372174748 1262053426 1138664824 -1658066978 -1258080802 908574162 1257444522 1479199937 1704264799
REM
CELL 1.54180   15.00000   15.00000   15.00000   90.00000   90.00000   90.00000
LATT -1
SFAC C  
C      1  0.4580530000000  0.5510440000000  0.7584260000000 1.0
C      1  0.5405700000000  0.4471610000000  0.7614730000000 1.0
C      1  0.4594300000000  0.5528390000000  0.2385270000000 1.0
C      1  0.5419470000000  0.4489560000000  0.2415740000000 1.0
C      1  0.4373370000000  0.4392720000000  0.7617020000000 1.0
C      1  0.5610790000000  0.5590020000000  0.7591450000000 1.0
C      1  0.4389210000000  0.4409980000000  0.2408550000000 1.0
C      1  0.5626630000000  0.5607280000000  0.2382980000000 1.0
C      1  0.3090970000000  0.3820340000000  0.5537530000000 1.0
C      1  0.6906930000000  0.6184840000000  0.5516550000000 1.0
C      1  0.3093070000000  0.3815160000000  0.4483450000000 1.0
C      1  0.6909030000000  0.6179670000000  0.4462470000000 1.0
C      1  0.3165560000000  0.6195800000000  0.5537610000000 1.0
C      1  0.6866170000000  0.3812910000000  0.5517570000000 1.0
C      1  0.3133830000000  0.6187090000000  0.4482430000000 1.0
C      1  0.6834440000000  0.3804210000000  0.4462390000000 1.0
C      1  0.6488270000000  0.4666730000000  0.2760010000000 1.0
C      1  0.3523350000000  0.5365810000000  0.2732960000000 1.0
C      1  0.6476650000000  0.4634180000000  0.7267040000000 1.0
C      1  0.3511730000000  0.5333270000000  0.7239990000000 1.0
C      1  0.6713450000000  0.5638780000000  0.2723300000000 1.0
C      1  0.3301530000000  0.4392880000000  0.2747920000000 1.0
C      1  0.6698470000000  0.5607120000000  0.7252080000000 1.0
C      1  0.3286550000000  0.4361220000000  0.7276700000000 1.0
C      1  0.5997460000000  0.6340030000000  0.6850400000000 1.0
C      1  0.3988750000000  0.3616030000000  0.6900030000000 1.0
C      1  0.6011250000000  0.6383960000000  0.3099970000000 1.0
C      1  0.4002550000000  0.3659970000000  0.3149610000000 1.0
C      1  0.5913930000000  0.3765400000000  0.6914840000000 1.0
C      1  0.4077830000000  0.6186770000000  0.6851930000000 1.0
C      1  0.5922170000000  0.3813220000000  0.3148070000000 1.0
C      1  0.4086070000000  0.6234600000000  0.3085160000000 1.0
C      1  0.4249990000000  0.4476610000000  0.5545650000000 1.0
C      1  0.5767540000000  0.5496440000000  0.5464110000000 1.0
C      1  0.4232460000000  0.4503560000000  0.4535880000000 1.0
C      1  0.5750010000000  0.5523390000000  0.4454340000000 1.0
C      1  0.4276370000000  0.5466490000000  0.5443770000000 1.0
C      1  0.5726470000000  0.4501400000000  0.5563200000000 1.0
C      1  0.4273530000000  0.5498600000000  0.4436800000000 1.0
C      1  0.5723630000000  0.4533510000000  0.4556230000000 1.0
C      1  0.2853560000000  0.4555000000000  0.3991040000000 1.0
C      1  0.7128490000000  0.5432930000000  0.3971120000000 1.0
C      1  0.2871510000000  0.4567070000000  0.6028880000000 1.0
C      1  0.7146440000000  0.5445010000000  0.6008960000000 1.0
C      1  0.2870690000000  0.5459530000000  0.3984390000000 1.0
C      1  0.7089490000000  0.4529220000000  0.3955430000000 1.0
C      1  0.2910510000000  0.5470780000000  0.6044570000000 1.0
C      1  0.7129310000000  0.4540470000000  0.6015610000000 1.0
C      1  0.5548510000000  0.6388690000000  0.5954970000000 1.0
C      1  0.4441280000000  0.3563960000000  0.6004080000000 1.0
C      1  0.5558720000000  0.6436040000000  0.3995920000000 1.0
C      1  0.4451490000000  0.3611310000000  0.4045030000000 1.0
C      1  0.5480640000000  0.3590560000000  0.6006450000000 1.0
C      1  0.4509510000000  0.6346540000000  0.5948630000000 1.0
C      1  0.5490490000000  0.3653460000000  0.4051370000000 1.0
C      1  0.4519360000000  0.6409440000000  0.3993540000000 1.0
C      1  0.4027420000000  0.6687160000000  0.4978140000000 1.0
C      1  0.5972580000000  0.3312840000000  0.5021860000000 1.0
C      1  0.3955140000000  0.3294010000000  0.5014900000000 1.0
C      1  0.6044850000000  0.6706000000000  0.4985100000000 1.0
END
