TITL C-3036484-3770-1024 5.8604286304777e-06 3375 -349.637491495315 0 0 60 (C2) n - 1
REM
REM in /home/bkarasulu/work/CARBON/AIRSS/Generating-Clusters/REBO/Higher-Symm/Only-C60
REM
REM
REM
REM
REM
REM ./C.cell (a2850807a9bf4ad07a5b6933b78d9264)
REM AIRSS Version 0.9.1 bugfix July 2018 build 013d7b7c2542+ Fri, 06 Jul 2018 19:26:36 +0100
REM compiler GCC version 9.2.1 20190827 (Red Hat 9.2.1-1)
REM options -cpp -mtune=generic -march=x86-64 -g -O0 -fpre-include=/usr/include/finclude/math-vector-fortran.h
REM seed -158821062 1130396065 -777868310 -834166671 -306148588 -1055038664 1842341349 1886069585 608386211 1867036781 1069775381 1669117286 1105190198 1223083194 2025887336 -1846146304 -714117228 -1792744898 372490679 -886115921 714606160 -2081948456 -1354157360 1417036588 1158592704 882894071 -1254097499 -1879383865 -1890701564 1931283350 -1571298013 1568362673 -1478446024
REM
CELL 1.54180   15.00000   15.00000   15.00000   90.00000   90.00000   90.00000
LATT -1
SFAC C  
C      1  0.4406360000000  0.2361480000000  0.5698720000000 1.0
C      1  0.5931750000000  0.2528860000000  0.5053150000000 1.0
C      1  0.4579860000000  0.2418150000000  0.4072880000000 1.0
C      1  0.5394400000000  0.2477200000000  0.5817110000000 1.0
C      1  0.3986300000000  0.2474610000000  0.4871080000000 1.0
C      1  0.5501690000000  0.2397430000000  0.4164090000000 1.0
C      1  0.4659460000000  0.5679160000000  0.5737920000000 1.0
C      1  0.5912030000000  0.6123160000000  0.4851700000000 1.0
C      1  0.4487410000000  0.5975450000000  0.4203760000000 1.0
C      1  0.5565710000000  0.5765210000000  0.5662970000000 1.0
C      1  0.4078860000000  0.5873700000000  0.5010590000000 1.0
C      1  0.5407680000000  0.6192280000000  0.4114350000000 1.0
C      1  0.4487400000000  0.4024550000000  0.5796240000000 1.0
C      1  0.5912020000000  0.3876830000000  0.5148310000000 1.0
C      1  0.4659460000000  0.4320840000000  0.4262080000000 1.0
C      1  0.5407660000000  0.3807710000000  0.5885660000000 1.0
C      1  0.4078860000000  0.4126310000000  0.4989410000000 1.0
C      1  0.5565710000000  0.4234790000000  0.4337040000000 1.0
C      1  0.5394430000000  0.7522800000000  0.4182890000000 1.0
C      1  0.3986320000000  0.7525400000000  0.5128910000000 1.0
C      1  0.5501710000000  0.7602560000000  0.5835910000000 1.0
C      1  0.4406390000000  0.7638520000000  0.4301270000000 1.0
C      1  0.5931780000000  0.7471130000000  0.4946850000000 1.0
C      1  0.4579880000000  0.7581850000000  0.5927110000000 1.0
C      1  0.6236600000000  0.5290840000000  0.3591350000000 1.0
C      1  0.3061770000000  0.5157450000000  0.4535250000000 1.0
C      1  0.5490780000000  0.5185390000000  0.6854380000000 1.0
C      1  0.3575610000000  0.5286850000000  0.3530400000000 1.0
C      1  0.6786220000000  0.5164210000000  0.4546260000000 1.0
C      1  0.4359860000000  0.5117360000000  0.6902530000000 1.0
C      1  0.4085250000000  0.3373170000000  0.3891690000000 1.0
C      1  0.4454390000000  0.3120120000000  0.6507810000000 1.0
C      1  0.6766260000000  0.3225040000000  0.4934860000000 1.0
C      1  0.6122380000000  0.3289960000000  0.3976380000000 1.0
C      1  0.5585030000000  0.3101360000000  0.6708220000000 1.0
C      1  0.3354310000000  0.3333110000000  0.4772200000000 1.0
C      1  0.3354320000000  0.6666900000000  0.5227790000000 1.0
C      1  0.6122390000000  0.6710030000000  0.6023630000000 1.0
C      1  0.5585060000000  0.6898640000000  0.3291780000000 1.0
C      1  0.6766280000000  0.6774940000000  0.5065150000000 1.0
C      1  0.4085260000000  0.6626830000000  0.6108300000000 1.0
C      1  0.4454420000000  0.6879880000000  0.3492180000000 1.0
C      1  0.6786210000000  0.4835770000000  0.5453750000000 1.0
C      1  0.4359880000000  0.4882640000000  0.3097460000000 1.0
C      1  0.3575600000000  0.4713170000000  0.6469590000000 1.0
C      1  0.3061760000000  0.4842570000000  0.5464730000000 1.0
C      1  0.5490790000000  0.4814610000000  0.3145630000000 1.0
C      1  0.6236590000000  0.4709150000000  0.6408660000000 1.0
C      1  0.3488570000000  0.6351590000000  0.3428750000000 1.0
C      1  0.4581770000000  0.6146350000000  0.6962080000000 1.0
C      1  0.7054610000000  0.6144990000000  0.4191550000000 1.0
C      1  0.6472540000000  0.6282700000000  0.3327690000000 1.0
C      1  0.5621490000000  0.6234640000000  0.6901530000000 1.0
C      1  0.2990970000000  0.6178960000000  0.4320290000000 1.0
C      1  0.7054590000000  0.3854990000000  0.5808460000000 1.0
C      1  0.4581780000000  0.3853660000000  0.3037920000000 1.0
C      1  0.3488550000000  0.3648420000000  0.6571240000000 1.0
C      1  0.2990950000000  0.3821060000000  0.5679690000000 1.0
C      1  0.5621490000000  0.3765350000000  0.3098480000000 1.0
C      1  0.6472520000000  0.3717280000000  0.6672320000000 1.0
END
