TITL C-3036485-3770-962 0.0207338020571319 3375 -340.060948193472 0 0 60 (C2) n - 1
REM
REM in /home/bkarasulu/work/CARBON/AIRSS/Generating-Clusters/REBO/Higher-Symm/Only-C60
REM
REM
REM
REM
REM
REM ./C.cell (a2850807a9bf4ad07a5b6933b78d9264)
REM AIRSS Version 0.9.1 bugfix July 2018 build 013d7b7c2542+ Fri, 06 Jul 2018 19:26:36 +0100
REM compiler GCC version 9.2.1 20190827 (Red Hat 9.2.1-1)
REM options -cpp -mtune=generic -march=x86-64 -g -O0 -fpre-include=/usr/include/finclude/math-vector-fortran.h
REM seed 878186279 -1276838240 -453010192 2050949323 -1709729638 1187220895 -284466248 1248642984 1918998798 2060529251 872602100 738319626 -808880041 -1505327821 852164283 1135799482 -1148081150 2131761791 759249081 -1795612775 -1440475475 -163267860 -1512719274 346841712 1683916128 809450407 468749286 -813209027 -482283255 1098606242 2028510803 2106117501 1247674768
REM
CELL 1.54180   15.00000   15.00000   15.00000   90.00000   90.00000   90.00000
LATT -1
SFAC C  
C      1  0.4921350000000  0.2489840000000  0.6137800000000 1.0
C      1  0.4917800000000  0.2307800000000  0.4404700000000 1.0
C      1  0.4667780000000  0.3370430000000  0.2968440000000 1.0
C      1  0.5153180000000  0.4687790000000  0.2022570000000 1.0
C      1  0.4670450000000  0.6173030000000  0.2680910000000 1.0
C      1  0.4921010000000  0.7510010000000  0.3862400000000 1.0
C      1  0.4918010000000  0.7692360000000  0.5595490000000 1.0
C      1  0.4667820000000  0.6629580000000  0.7031680000000 1.0
C      1  0.5153740000000  0.5312250000000  0.7977760000000 1.0
C      1  0.4670520000000  0.3827000000000  0.7319230000000 1.0
C      1  0.7117300000000  0.4962540000000  0.6614500000000 1.0
C      1  0.7083900000000  0.4043450000000  0.6245850000000 1.0
C      1  0.7053200000000  0.3483020000000  0.5442090000000 1.0
C      1  0.7061230000000  0.3510350000000  0.4457070000000 1.0
C      1  0.7104000000000  0.4086200000000  0.3659110000000 1.0
C      1  0.7117530000000  0.5037390000000  0.3385680000000 1.0
C      1  0.7084110000000  0.5956550000000  0.3754120000000 1.0
C      1  0.7053220000000  0.6517010000000  0.4557950000000 1.0
C      1  0.7061050000000  0.6489550000000  0.5542930000000 1.0
C      1  0.7103790000000  0.5913780000000  0.6340920000000 1.0
C      1  0.6058940000000  0.5755090000000  0.6734410000000 1.0
C      1  0.6056610000000  0.4625870000000  0.6846010000000 1.0
C      1  0.5993120000000  0.3712720000000  0.6210530000000 1.0
C      1  0.5981720000000  0.3239720000000  0.5178730000000 1.0
C      1  0.5990340000000  0.3489240000000  0.4071040000000 1.0
C      1  0.6059220000000  0.4244850000000  0.3265290000000 1.0
C      1  0.6056930000000  0.5374090000000  0.3153770000000 1.0
C      1  0.5993320000000  0.6287510000000  0.3789200000000 1.0
C      1  0.5981730000000  0.6760370000000  0.4821100000000 1.0
C      1  0.5990140000000  0.6510600000000  0.5928710000000 1.0
C      1  0.3080790000000  0.4191640000000  0.6321980000000 1.0
C      1  0.3266510000000  0.3296240000000  0.5724860000000 1.0
C      1  0.3263590000000  0.3182380000000  0.4636950000000 1.0
C      1  0.3079130000000  0.3937120000000  0.3869440000000 1.0
C      1  0.3217740000000  0.4815130000000  0.3213200000000 1.0
C      1  0.3080880000000  0.5808280000000  0.3678020000000 1.0
C      1  0.3266460000000  0.6703700000000  0.4275140000000 1.0
C      1  0.3263610000000  0.6817710000000  0.5363050000000 1.0
C      1  0.3079030000000  0.6062950000000  0.6130550000000 1.0
C      1  0.3217570000000  0.5184860000000  0.6786730000000 1.0
C      1  0.5183370000000  0.3200060000000  0.6644330000000 1.0
C      1  0.5264110000000  0.2491940000000  0.5260720000000 1.0
C      1  0.5177680000000  0.2896870000000  0.3760800000000 1.0
C      1  0.5355530000000  0.3972470000000  0.2557100000000 1.0
C      1  0.5354210000000  0.5495760000000  0.2403060000000 1.0
C      1  0.5183300000000  0.6800020000000  0.3355670000000 1.0
C      1  0.5264020000000  0.7508110000000  0.4739340000000 1.0
C      1  0.5177750000000  0.7103150000000  0.6239280000000 1.0
C      1  0.5355670000000  0.6027480000000  0.7442990000000 1.0
C      1  0.5354330000000  0.4504300000000  0.7596970000000 1.0
C      1  0.3670190000000  0.3857350000000  0.2897340000000 1.0
C      1  0.3669710000000  0.5688670000000  0.2708760000000 1.0
C      1  0.3868140000000  0.6591290000000  0.3370340000000 1.0
C      1  0.2854910000000  0.7581900000000  0.4732040000000 1.0
C      1  0.3862830000000  0.6895260000000  0.6273200000000 1.0
C      1  0.3670250000000  0.6142530000000  0.7102590000000 1.0
C      1  0.3669750000000  0.4311420000000  0.7291160000000 1.0
C      1  0.3868220000000  0.3408810000000  0.6629700000000 1.0
C      1  0.2854970000000  0.2418050000000  0.5267970000000 1.0
C      1  0.3862720000000  0.3104590000000  0.3726760000000 1.0
END
