TITL C-3036486-2224-1010 0.0221579188864237 3375 -317.084689589651 0 0 60 (Td) n - 1
REM
REM in /home/bkarasulu/work/CARBON/AIRSS/Generating-Clusters/REBO/Higher-Symm/Only-C60
REM
REM
REM
REM
REM
REM ./C.cell (a2850807a9bf4ad07a5b6933b78d9264)
REM AIRSS Version 0.9.1 bugfix July 2018 build 013d7b7c2542+ Fri, 06 Jul 2018 19:26:36 +0100
REM compiler GCC version 9.2.1 20190827 (Red Hat 9.2.1-1)
REM options -cpp -mtune=generic -march=x86-64 -g -O0 -fpre-include=/usr/include/finclude/math-vector-fortran.h
REM seed -1987876646 -2129156556 1770625050 -157180906 -1845124499 -694113400 -191492743 -984298665 -874610991 -958130980 1708493627 1337052045 -1943167855 -39546800 603726970 -1956144106 -1171515045 951141032 1569055713 -220780916 1442478345 946322725 -1910305848 115999661 1669088344 -1802024307 -2102424765 128959814 -410385538 -426019767 -948053016 -1400965565 -948597544
REM
CELL 1.54180   15.00000   15.00000   15.00000   90.00000   90.00000   90.00000
LATT -1
SFAC C  
C      1  0.3520520000000  0.5755180000000  0.5012630000000 1.0
C      1  0.5755180000000  0.5012630000000  0.3520520000000 1.0
C      1  0.5012630000000  0.3520520000000  0.5755180000000 1.0
C      1  0.3520520000000  0.4244820000000  0.4987370000000 1.0
C      1  0.6479480000000  0.5755180000000  0.4987370000000 1.0
C      1  0.6479480000000  0.4244820000000  0.5012630000000 1.0
C      1  0.5755180000000  0.4987370000000  0.6479480000000 1.0
C      1  0.4244820000000  0.5012630000000  0.6479480000000 1.0
C      1  0.4244820000000  0.4987370000000  0.3520520000000 1.0
C      1  0.5012630000000  0.6479480000000  0.4244820000000 1.0
C      1  0.4987370000000  0.3520520000000  0.4244820000000 1.0
C      1  0.4987370000000  0.6479480000000  0.5755180000000 1.0
C      1  0.3520520000000  0.5012630000000  0.5755180000000 1.0
C      1  0.5755180000000  0.3520520000000  0.5012630000000 1.0
C      1  0.5012630000000  0.5755180000000  0.3520520000000 1.0
C      1  0.3520520000000  0.4987370000000  0.4244820000000 1.0
C      1  0.6479480000000  0.4987370000000  0.5755180000000 1.0
C      1  0.6479480000000  0.5012630000000  0.4244820000000 1.0
C      1  0.5755180000000  0.6479480000000  0.4987370000000 1.0
C      1  0.4244820000000  0.6479480000000  0.5012630000000 1.0
C      1  0.4244820000000  0.3520520000000  0.4987370000000 1.0
C      1  0.5012630000000  0.4244820000000  0.6479480000000 1.0
C      1  0.4987370000000  0.4244820000000  0.3520520000000 1.0
C      1  0.4987370000000  0.5755180000000  0.6479480000000 1.0
C      1  0.2752570000000  0.6306700000000  0.4677370000000 1.0
C      1  0.6306710000000  0.4677370000000  0.2752570000000 1.0
C      1  0.4677370000000  0.2752580000000  0.6306710000000 1.0
C      1  0.2752580000000  0.3693290000000  0.5322630000000 1.0
C      1  0.7247440000000  0.6306690000000  0.5322630000000 1.0
C      1  0.7247430000000  0.3693290000000  0.4677370000000 1.0
C      1  0.6306690000000  0.5322630000000  0.7247440000000 1.0
C      1  0.3693290000000  0.4677370000000  0.7247420000000 1.0
C      1  0.3693300000000  0.5322630000000  0.2752570000000 1.0
C      1  0.4677370000000  0.7247430000000  0.3693300000000 1.0
C      1  0.5322630000000  0.2752570000000  0.3693290000000 1.0
C      1  0.5322630000000  0.7247440000000  0.6306690000000 1.0
C      1  0.2752580000000  0.4677370000000  0.6306710000000 1.0
C      1  0.6306710000000  0.2752570000000  0.4677370000000 1.0
C      1  0.4677370000000  0.6306700000000  0.2752570000000 1.0
C      1  0.2752570000000  0.5322630000000  0.3693300000000 1.0
C      1  0.7247440000000  0.5322630000000  0.6306690000000 1.0
C      1  0.7247430000000  0.4677370000000  0.3693290000000 1.0
C      1  0.6306690000000  0.7247440000000  0.5322630000000 1.0
C      1  0.3693300000000  0.7247430000000  0.4677370000000 1.0
C      1  0.3693290000000  0.2752580000000  0.5322630000000 1.0
C      1  0.4677370000000  0.3693290000000  0.7247420000000 1.0
C      1  0.5322630000000  0.3693290000000  0.2752570000000 1.0
C      1  0.5322630000000  0.6306690000000  0.7247440000000 1.0
C      1  0.6976780000000  0.3023220000000  0.3865250000000 1.0
C      1  0.3023220000000  0.3865250000000  0.6976780000000 1.0
C      1  0.3865220000000  0.6976770000000  0.3023230000000 1.0
C      1  0.3023220000000  0.3023220000000  0.6134750000000 1.0
C      1  0.3023230000000  0.6976770000000  0.3865220000000 1.0
C      1  0.3023230000000  0.6134780000000  0.3023230000000 1.0
C      1  0.6976780000000  0.3865250000000  0.3023220000000 1.0
C      1  0.6976750000000  0.6134820000000  0.6976750000000 1.0
C      1  0.3865250000000  0.3023220000000  0.6976780000000 1.0
C      1  0.6134750000000  0.3023220000000  0.3023220000000 1.0
C      1  0.6976750000000  0.6976750000000  0.6134820000000 1.0
C      1  0.6134820000000  0.6976750000000  0.6976750000000 1.0
END
