TITL C-3036480-97-138 -2.13150487310647e-06 3375 -350.168829909526 0 0 60 (T23) n - 1
REM
REM in /home/bkarasulu/work/CARBON/AIRSS/Generating-Clusters/REBO/Higher-Symm/Only-C60
REM
REM
REM
REM
REM
REM ./C.cell (a2850807a9bf4ad07a5b6933b78d9264)
REM AIRSS Version 0.9.1 bugfix July 2018 build 013d7b7c2542+ Fri, 06 Jul 2018 19:26:36 +0100
REM compiler GCC version 9.2.1 20190827 (Red Hat 9.2.1-1)
REM options -cpp -mtune=generic -march=x86-64 -g -O0 -fpre-include=/usr/include/finclude/math-vector-fortran.h
REM seed 1791632832 -729052478 1587043023 1111813924 1649216911 258626400 -346109427 1141495014 1873498032 1920075824 1327567414 -152409374 1989009373 -220334731 -1910425837 461931597 -1899070400 269847805 -303751484 -179151764 893336295 -1690621948 -1222658670 1702488185 -769361462 -589778409 1541839367 -2112156421 1890288882 -806190118 2084491472 -1122798108 -1427094373
REM
CELL 1.54180   15.00000   15.00000   15.00000   90.00000   90.00000   90.00000
LATT -1
SFAC C  
C      1  0.7181980000000  0.6129120000000  0.4172460000000 1.0
C      1  0.6129120000000  0.4172460000000  0.7181980000000 1.0
C      1  0.4172460000000  0.7181980000000  0.6129120000000 1.0
C      1  0.2818020000000  0.3870880000000  0.4172460000000 1.0
C      1  0.7181980000000  0.3870880000000  0.5827540000000 1.0
C      1  0.2818020000000  0.6129120000000  0.5827540000000 1.0
C      1  0.3870880000000  0.5827540000000  0.7181980000000 1.0
C      1  0.6129120000000  0.5827540000000  0.2818020000000 1.0
C      1  0.3870880000000  0.4172460000000  0.2818020000000 1.0
C      1  0.5827540000000  0.2818020000000  0.6129120000000 1.0
C      1  0.4172460000000  0.2818020000000  0.3870880000000 1.0
C      1  0.5827540000000  0.7181980000000  0.3870880000000 1.0
C      1  0.3294490000000  0.5364010000000  0.6502210000000 1.0
C      1  0.5364010000000  0.6502210000000  0.3294490000000 1.0
C      1  0.6502210000000  0.3294490000000  0.5364010000000 1.0
C      1  0.6705510000000  0.4635990000000  0.6502210000000 1.0
C      1  0.3294490000000  0.4635990000000  0.3497790000000 1.0
C      1  0.6705510000000  0.5364010000000  0.3497790000000 1.0
C      1  0.4635990000000  0.3497790000000  0.3294490000000 1.0
C      1  0.5364010000000  0.3497790000000  0.6705510000000 1.0
C      1  0.4635990000000  0.6502210000000  0.6705510000000 1.0
C      1  0.3497790000000  0.6705510000000  0.5364010000000 1.0
C      1  0.6502210000000  0.6705510000000  0.4635990000000 1.0
C      1  0.3497790000000  0.3294490000000  0.4635990000000 1.0
C      1  0.7451770000000  0.6767420000000  0.3374750000000 1.0
C      1  0.6767420000000  0.3374750000000  0.7451770000000 1.0
C      1  0.3374750000000  0.7451770000000  0.6767420000000 1.0
C      1  0.2548230000000  0.3232580000000  0.3374750000000 1.0
C      1  0.7451770000000  0.3232580000000  0.6625250000000 1.0
C      1  0.2548230000000  0.6767420000000  0.6625250000000 1.0
C      1  0.3232580000000  0.6625250000000  0.7451770000000 1.0
C      1  0.6767420000000  0.6625250000000  0.2548230000000 1.0
C      1  0.3232580000000  0.3374750000000  0.2548230000000 1.0
C      1  0.6625250000000  0.2548230000000  0.6767420000000 1.0
C      1  0.3374750000000  0.2548230000000  0.3232580000000 1.0
C      1  0.6625250000000  0.7451770000000  0.3232580000000 1.0
C      1  0.5078060000000  0.4529020000000  0.7111240000000 1.0
C      1  0.4529020000000  0.7111240000000  0.5078060000000 1.0
C      1  0.7111240000000  0.5078060000000  0.4529020000000 1.0
C      1  0.4921940000000  0.5470980000000  0.7111240000000 1.0
C      1  0.5078060000000  0.5470980000000  0.2888760000000 1.0
C      1  0.4921940000000  0.4529020000000  0.2888760000000 1.0
C      1  0.5470980000000  0.2888760000000  0.5078060000000 1.0
C      1  0.4529020000000  0.2888760000000  0.4921940000000 1.0
C      1  0.5470980000000  0.7111240000000  0.4921940000000 1.0
C      1  0.2888760000000  0.4921940000000  0.4529020000000 1.0
C      1  0.7111240000000  0.4921940000000  0.5470980000000 1.0
C      1  0.2888760000000  0.5078060000000  0.5470980000000 1.0
C      1  0.4376130000000  0.3893670000000  0.6513470000000 1.0
C      1  0.3893670000000  0.6513470000000  0.4376130000000 1.0
C      1  0.6513470000000  0.4376130000000  0.3893670000000 1.0
C      1  0.5623870000000  0.6106330000000  0.6513470000000 1.0
C      1  0.4376130000000  0.6106330000000  0.3486530000000 1.0
C      1  0.5623870000000  0.3893670000000  0.3486530000000 1.0
C      1  0.6106330000000  0.3486530000000  0.4376130000000 1.0
C      1  0.3893670000000  0.3486530000000  0.5623870000000 1.0
C      1  0.6106330000000  0.6513470000000  0.5623870000000 1.0
C      1  0.3486530000000  0.5623870000000  0.3893670000000 1.0
C      1  0.6513470000000  0.5623870000000  0.6106330000000 1.0
C      1  0.3486530000000  0.4376130000000  0.6106330000000 1.0
END
