TITL C-3036482-790-372 7.385795486162e-06 3375 -346.153469384973 0 0 60 (C1) n - 1
REM
REM in /home/bkarasulu/work/CARBON/AIRSS/Generating-Clusters/REBO/Higher-Symm/Only-C60
REM
REM
REM
REM
REM
REM ./C.cell (a2850807a9bf4ad07a5b6933b78d9264)
REM AIRSS Version 0.9.1 bugfix July 2018 build 013d7b7c2542+ Fri, 06 Jul 2018 19:26:36 +0100
REM compiler GCC version 9.2.1 20190827 (Red Hat 9.2.1-1)
REM options -cpp -mtune=generic -march=x86-64 -g -O0 -fpre-include=/usr/include/finclude/math-vector-fortran.h
REM seed 1701940134 1163742240 -1697470250 1977118751 -1724225948 -262031063 -2073640128 916293913 49514047 -597896851 2022113534 1969389960 -1381719524 -1610356697 -1924605207 -283738881 -2081065028 -922831832 -1544134859 -530871325 -1659547879 -1044716527 -739869554 1692721650 -2044441544 125556821 594776984 -1386510926 -1942112399 -1136759229 -746596288 -859870978 -58890610
REM
CELL 1.54180   15.00000   15.00000   15.00000   90.00000   90.00000   90.00000
LATT -1
SFAC C  
C      1  0.4801320000000  0.3856070000000  0.3238160000000 1.0
C      1  0.5935810000000  0.3740720000000  0.5044700000000 1.0
C      1  0.5074760000000  0.5778140000000  0.7326590000000 1.0
C      1  0.3122850000000  0.7053660000000  0.6112080000000 1.0
C      1  0.6837210000000  0.6264020000000  0.3725070000000 1.0
C      1  0.6468730000000  0.6098030000000  0.4761070000000 1.0
C      1  0.5647670000000  0.2143360000000  0.4754210000000 1.0
C      1  0.6300570000000  0.3812350000000  0.6056700000000 1.0
C      1  0.7164420000000  0.4645420000000  0.3765030000000 1.0
C      1  0.3138610000000  0.4044280000000  0.4951770000000 1.0
C      1  0.3370040000000  0.4091460000000  0.3982120000000 1.0
C      1  0.6239690000000  0.5163170000000  0.4179010000000 1.0
C      1  0.5604120000000  0.5896610000000  0.6342560000000 1.0
C      1  0.6521100000000  0.7010630000000  0.5183930000000 1.0
C      1  0.2869990000000  0.4925030000000  0.5275330000000 1.0
C      1  0.4356520000000  0.6795850000000  0.3484690000000 1.0
C      1  0.4606080000000  0.5273390000000  0.5716050000000 1.0
C      1  0.3002740000000  0.6060230000000  0.3974170000000 1.0
C      1  0.2597120000000  0.6481080000000  0.5544730000000 1.0
C      1  0.5765440000000  0.3539580000000  0.3619500000000 1.0
C      1  0.4143230000000  0.2897620000000  0.4551440000000 1.0
C      1  0.5786950000000  0.4296640000000  0.2821810000000 1.0
C      1  0.3280470000000  0.4538110000000  0.7115750000000 1.0
C      1  0.6348890000000  0.5857730000000  0.3050770000000 1.0
C      1  0.4726520000000  0.6033190000000  0.4976070000000 1.0
C      1  0.7385540000000  0.3637210000000  0.3702740000000 1.0
C      1  0.3775150000000  0.3697850000000  0.6536450000000 1.0
C      1  0.4042690000000  0.3466810000000  0.3784820000000 1.0
C      1  0.5261570000000  0.4485140000000  0.5572780000000 1.0
C      1  0.3393860000000  0.5176580000000  0.4304120000000 1.0
C      1  0.4745550000000  0.2196020000000  0.4656030000000 1.0
C      1  0.3764770000000  0.3381840000000  0.5445450000000 1.0
C      1  0.4678150000000  0.4890220000000  0.3251330000000 1.0
C      1  0.5447830000000  0.4429920000000  0.4269900000000 1.0
C      1  0.4001110000000  0.5232350000000  0.2584290000000 1.0
C      1  0.4932890000000  0.6300240000000  0.3973160000000 1.0
C      1  0.5683820000000  0.7315420000000  0.5462530000000 1.0
C      1  0.3481980000000  0.6572890000000  0.3351980000000 1.0
C      1  0.7319040000000  0.7457760000000  0.5266980000000 1.0
C      1  0.2692770000000  0.5587570000000  0.5876690000000 1.0
C      1  0.7000930000000  0.5146110000000  0.5520250000000 1.0
C      1  0.5959350000000  0.5105000000000  0.7085120000000 1.0
C      1  0.6234760000000  0.2866290000000  0.4663970000000 1.0
C      1  0.4958260000000  0.6801840000000  0.5612800000000 1.0
C      1  0.4524000000000  0.5093740000000  0.4360610000000 1.0
C      1  0.3672040000000  0.6558970000000  0.6684610000000 1.0
C      1  0.6530250000000  0.4896440000000  0.2910120000000 1.0
C      1  0.5565690000000  0.3558560000000  0.6587940000000 1.0
C      1  0.5421410000000  0.5564050000000  0.3499120000000 1.0
C      1  0.5909900000000  0.5418040000000  0.5485120000000 1.0
C      1  0.4722130000000  0.3571730000000  0.5973370000000 1.0
C      1  0.5379110000000  0.4203590000000  0.7280390000000 1.0
C      1  0.4268520000000  0.5303640000000  0.6685450000000 1.0
C      1  0.6632540000000  0.4663980000000  0.6311760000000 1.0
C      1  0.4690670000000  0.6558280000000  0.6594880000000 1.0
C      1  0.2481130000000  0.6528400000000  0.4610350000000 1.0
C      1  0.7440610000000  0.5052720000000  0.4741710000000 1.0
C      1  0.4393890000000  0.4358730000000  0.7233260000000 1.0
C      1  0.6678920000000  0.3070080000000  0.3807540000000 1.0
C      1  0.3218320000000  0.5555630000000  0.6759120000000 1.0
END
