TITL C-3036480-97-944 0.00988212748894464 3375 -346.164365238181 0 0 60 (C1) n - 1
REM
REM in /home/bkarasulu/work/CARBON/AIRSS/Generating-Clusters/REBO/Higher-Symm/Only-C60
REM
REM
REM
REM
REM
REM ./C.cell (a2850807a9bf4ad07a5b6933b78d9264)
REM AIRSS Version 0.9.1 bugfix July 2018 build 013d7b7c2542+ Fri, 06 Jul 2018 19:26:36 +0100
REM compiler GCC version 9.2.1 20190827 (Red Hat 9.2.1-1)
REM options -cpp -mtune=generic -march=x86-64 -g -O0 -fpre-include=/usr/include/finclude/math-vector-fortran.h
REM seed -1540897433 575187026 1527409472 314312062 -1886155555 -1351037079 -490576069 -380081322 987166014 -1266816278 960784659 818441460 1092583403 526101504 1048441645 13179242 -426347977 377774584 313010928 -417049146 -936558659 1845032619 -894208090 -1051443818 -342514019 -1245462425 2010954317 -1758633882 -665749967 1093691259 1132238737 91383715 -1193642265
REM
CELL 1.54180   15.00000   15.00000   15.00000   90.00000   90.00000   90.00000
LATT -1
SFAC C  
C      1  0.4877600000000  0.7272470000000  0.3997830000000 1.0
C      1  0.4676770000000  0.5201880000000  0.3210900000000 1.0
C      1  0.5306780000000  0.4413190000000  0.2800100000000 1.0
C      1  0.6278460000000  0.4569680000000  0.3849520000000 1.0
C      1  0.4590710000000  0.4078690000000  0.6269740000000 1.0
C      1  0.5740620000000  0.6908070000000  0.4047730000000 1.0
C      1  0.3745110000000  0.6411160000000  0.4277600000000 1.0
C      1  0.5522270000000  0.2959400000000  0.3651240000000 1.0
C      1  0.5244080000000  0.7121370000000  0.5606360000000 1.0
C      1  0.4073680000000  0.4273660000000  0.4028940000000 1.0
C      1  0.3669310000000  0.5193210000000  0.3747240000000 1.0
C      1  0.4526160000000  0.6472750000000  0.6043900000000 1.0
C      1  0.5236960000000  0.3155770000000  0.6272370000000 1.0
C      1  0.4034180000000  0.6110810000000  0.3220690000000 1.0
C      1  0.7640060000000  0.3844460000000  0.4289170000000 1.0
C      1  0.3737820000000  0.3634630000000  0.5837010000000 1.0
C      1  0.6272200000000  0.5664700000000  0.6386560000000 1.0
C      1  0.4384940000000  0.6348220000000  0.7109900000000 1.0
C      1  0.5610460000000  0.5406150000000  0.3668240000000 1.0
C      1  0.2904750000000  0.5146770000000  0.5434040000000 1.0
C      1  0.5733300000000  0.5609930000000  0.5441160000000 1.0
C      1  0.4994670000000  0.5527840000000  0.7419090000000 1.0
C      1  0.7099680000000  0.3109900000000  0.4554680000000 1.0
C      1  0.3494540000000  0.6459320000000  0.6409970000000 1.0
C      1  0.4973190000000  0.3543840000000  0.3002450000000 1.0
C      1  0.5792810000000  0.3824610000000  0.4321710000000 1.0
C      1  0.3452720000000  0.7064580000000  0.5516160000000 1.0
C      1  0.6256320000000  0.4720910000000  0.2741140000000 1.0
C      1  0.5556960000000  0.7015610000000  0.6680820000000 1.0
C      1  0.4399980000000  0.7085860000000  0.3245640000000 1.0
C      1  0.4886670000000  0.2507520000000  0.4465760000000 1.0
C      1  0.6482260000000  0.4086270000000  0.6040200000000 1.0
C      1  0.4902610000000  0.4154200000000  0.4715100000000 1.0
C      1  0.5979270000000  0.6619620000000  0.4985760000000 1.0
C      1  0.2685540000000  0.7393200000000  0.5229570000000 1.0
C      1  0.5067410000000  0.4690710000000  0.5550860000000 1.0
C      1  0.3083350000000  0.3145920000000  0.5032940000000 1.0
C      1  0.3841290000000  0.5590400000000  0.5004990000000 1.0
C      1  0.7149040000000  0.5275340000000  0.5068280000000 1.0
C      1  0.4094540000000  0.3639970000000  0.3358710000000 1.0
C      1  0.6206650000000  0.2528500000000  0.4412160000000 1.0
C      1  0.7178140000000  0.4686170000000  0.4305290000000 1.0
C      1  0.4395270000000  0.3317630000000  0.5046650000000 1.0
C      1  0.5742540000000  0.6158520000000  0.6983200000000 1.0
C      1  0.5396950000000  0.4480550000000  0.7252360000000 1.0
C      1  0.2853400000000  0.4151870000000  0.5434510000000 1.0
C      1  0.3325630000000  0.4968470000000  0.7041480000000 1.0
C      1  0.6353220000000  0.3514350000000  0.5252770000000 1.0
C      1  0.6795790000000  0.4953940000000  0.5906020000000 1.0
C      1  0.4339570000000  0.7149900000000  0.4915970000000 1.0
C      1  0.4633230000000  0.5643860000000  0.5513970000000 1.0
C      1  0.6042110000000  0.6300280000000  0.3375430000000 1.0
C      1  0.6967090000000  0.6202920000000  0.4959570000000 1.0
C      1  0.6389830000000  0.5677980000000  0.2625380000000 1.0
C      1  0.5833840000000  0.3869800000000  0.6697120000000 1.0
C      1  0.3018880000000  0.5558310000000  0.6382210000000 1.0
C      1  0.3752650000000  0.2569720000000  0.4480820000000 1.0
C      1  0.4304000000000  0.4676930000000  0.7117350000000 1.0
C      1  0.5570630000000  0.2698700000000  0.5350610000000 1.0
C      1  0.2901500000000  0.5638990000000  0.4413050000000 1.0
END
