TITL C-3036479-9801-430 -4.00353172498399e-06 3375 -340.987589815125 0 0 60 (C1) n - 1
REM
REM in /home/bkarasulu/work/CARBON/AIRSS/Generating-Clusters/REBO/Higher-Symm/Only-C60
REM
REM
REM
REM
REM
REM ./C.cell (a2850807a9bf4ad07a5b6933b78d9264)
REM AIRSS Version 0.9.1 bugfix July 2018 build 013d7b7c2542+ Fri, 06 Jul 2018 19:26:36 +0100
REM compiler GCC version 9.2.1 20190827 (Red Hat 9.2.1-1)
REM options -cpp -mtune=generic -march=x86-64 -g -O0 -fpre-include=/usr/include/finclude/math-vector-fortran.h
REM seed 580347602 -240661029 -1016183331 787502820 1058183653 -53292894 -1204927359 -275914860 -1603009833 -362458444 -1640937094 -2069541533 2103222315 469784494 146780857 415500076 530630754 -992713647 -1635497693 -345076951 -1225379514 2026709180 373871432 1918758884 499556381 1206568215 -1432586462 -258269560 1846089067 1192126273 499136163 1854609569 -676987684
REM
CELL 1.54180   15.00000   15.00000   15.00000   90.00000   90.00000   90.00000
LATT -1
SFAC C  
C      1  0.4614270000000  0.3289230000000  0.3681190000000 1.0
C      1  0.4906680000000  0.3810650000000  0.6899440000000 1.0
C      1  0.7284220000000  0.4343960000000  0.4331660000000 1.0
C      1  0.3497190000000  0.4839590000000  0.6385900000000 1.0
C      1  0.5226140000000  0.2418310000000  0.5883650000000 1.0
C      1  0.5962260000000  0.4135830000000  0.3327660000000 1.0
C      1  0.5133870000000  0.7195860000000  0.5584560000000 1.0
C      1  0.2675590000000  0.5565860000000  0.6086060000000 1.0
C      1  0.4327460000000  0.4508300000000  0.7030930000000 1.0
C      1  0.5014380000000  0.4884240000000  0.3869310000000 1.0
C      1  0.3054930000000  0.5752220000000  0.3373760000000 1.0
C      1  0.4270770000000  0.2745030000000  0.5353520000000 1.0
C      1  0.4519940000000  0.4685740000000  0.2780780000000 1.0
C      1  0.5465120000000  0.6228340000000  0.4637340000000 1.0
C      1  0.6116750000000  0.2989360000000  0.6192390000000 1.0
C      1  0.5464400000000  0.6362770000000  0.3601730000000 1.0
C      1  0.7184550000000  0.4732960000000  0.5891000000000 1.0
C      1  0.3931710000000  0.3906670000000  0.5909870000000 1.0
C      1  0.4009040000000  0.5170480000000  0.4092670000000 1.0
C      1  0.4405980000000  0.7537290000000  0.5033280000000 1.0
C      1  0.3755920000000  0.4383280000000  0.4878590000000 1.0
C      1  0.3869120000000  0.6270440000000  0.3815780000000 1.0
C      1  0.6712040000000  0.4752480000000  0.3676230000000 1.0
C      1  0.4845470000000  0.2432030000000  0.4123490000000 1.0
C      1  0.6405510000000  0.4574910000000  0.6482410000000 1.0
C      1  0.4416270000000  0.3011720000000  0.6418150000000 1.0
C      1  0.2953790000000  0.5039830000000  0.5149270000000 1.0
C      1  0.6445300000000  0.5811820000000  0.3836950000000 1.0
C      1  0.4816810000000  0.5189020000000  0.5143510000000 1.0
C      1  0.5220530000000  0.5305210000000  0.2222380000000 1.0
C      1  0.4430150000000  0.3543820000000  0.4730760000000 1.0
C      1  0.6664520000000  0.3300020000000  0.5428440000000 1.0
C      1  0.6053780000000  0.6959120000000  0.5156530000000 1.0
C      1  0.4779640000000  0.6587280000000  0.6266180000000 1.0
C      1  0.3556500000000  0.4863430000000  0.2877340000000 1.0
C      1  0.7263210000000  0.4027400000000  0.5244610000000 1.0
C      1  0.2774150000000  0.6350690000000  0.5188360000000 1.0
C      1  0.6793680000000  0.6212540000000  0.4712220000000 1.0
C      1  0.5450450000000  0.4896900000000  0.6265990000000 1.0
C      1  0.3037760000000  0.6564220000000  0.6248570000000 1.0
C      1  0.5747010000000  0.4206580000000  0.4409490000000 1.0
C      1  0.4910130000000  0.4227570000000  0.5520240000000 1.0
C      1  0.6737340000000  0.6697200000000  0.7218500000000 1.0
C      1  0.6275340000000  0.6185760000000  0.6635720000000 1.0
C      1  0.3613600000000  0.6810950000000  0.4697930000000 1.0
C      1  0.3881400000000  0.6712660000000  0.6511010000000 1.0
C      1  0.7460790000000  0.5637040000000  0.5437980000000 1.0
C      1  0.2507940000000  0.5621150000000  0.4359480000000 1.0
C      1  0.6003980000000  0.3286690000000  0.4745980000000 1.0
C      1  0.5867320000000  0.3732240000000  0.6752480000000 1.0
C      1  0.4603870000000  0.6670350000000  0.3355190000000 1.0
C      1  0.4452510000000  0.6209810000000  0.5007380000000 1.0
C      1  0.5460860000000  0.2528590000000  0.4821510000000 1.0
C      1  0.5848890000000  0.5210020000000  0.4908250000000 1.0
C      1  0.5054740000000  0.3839950000000  0.3056390000000 1.0
C      1  0.5344240000000  0.5832800000000  0.6481940000000 1.0
C      1  0.5629470000000  0.5411910000000  0.3143030000000 1.0
C      1  0.6406010000000  0.5790480000000  0.5683040000000 1.0
C      1  0.2985720000000  0.4714120000000  0.3849730000000 1.0
C      1  0.3899000000000  0.5495270000000  0.5592240000000 1.0
END
