TITL C-3036484-3770-857 1.06452068838221e-05 3375 -341.693924028144 0 0 60 (C3) n - 1
REM
REM in /home/bkarasulu/work/CARBON/AIRSS/Generating-Clusters/REBO/Higher-Symm/Only-C60
REM
REM
REM
REM
REM
REM ./C.cell (a2850807a9bf4ad07a5b6933b78d9264)
REM AIRSS Version 0.9.1 bugfix July 2018 build 013d7b7c2542+ Fri, 06 Jul 2018 19:26:36 +0100
REM compiler GCC version 9.2.1 20190827 (Red Hat 9.2.1-1)
REM options -cpp -mtune=generic -march=x86-64 -g -O0 -fpre-include=/usr/include/finclude/math-vector-fortran.h
REM seed 597015907 -1148837058 -377010414 1946141754 -1353646313 -333527913 1223340099 -865811502 1088677900 -742749540 -1822390803 1325731942 -949895904 -1051541392 -928207988 -921294318 1929188532 -1316999057 2125495427 -65091769 306867069 -925360989 920771225 223733904 1530005080 -761256762 66761842 -870073568 -720917823 -1461912861 -777536911 875104540 -2035103929
REM
CELL 1.54180   15.00000   15.00000   15.00000   90.00000   90.00000   90.00000
LATT -1
SFAC C  
C      1  0.5122770000000  0.4322860000000  0.7463380000000 1.0
C      1  0.7071970000000  0.4322890000000  0.3661980000000 1.0
C      1  0.2805260000000  0.4322880000000  0.3874620000000 1.0
C      1  0.6228460000000  0.4746300000000  0.5106300000000 1.0
C      1  0.4477830000000  0.4746310000000  0.3882970000000 1.0
C      1  0.4293710000000  0.4746290000000  0.6010720000000 1.0
C      1  0.6931360000000  0.5533140000000  0.4979710000000 1.0
C      1  0.4016750000000  0.5533150000000  0.3337540000000 1.0
C      1  0.4051890000000  0.5533120000000  0.6682750000000 1.0
C      1  0.3301140000000  0.5226010000000  0.2683010000000 1.0
C      1  0.3842850000000  0.5225980000000  0.7629750000000 1.0
C      1  0.7856000000000  0.5226000000000  0.4687240000000 1.0
C      1  0.2804440000000  0.5718920000000  0.6270900000000 1.0
C      1  0.7198410000000  0.5718920000000  0.6265970000000 1.0
C      1  0.4997150000000  0.5718940000000  0.2463140000000 1.0
C      1  0.5319710000000  0.7419250000000  0.4473950000000 1.0
C      1  0.4384560000000  0.7419250000000  0.4986180000000 1.0
C      1  0.5295730000000  0.7419240000000  0.5539920000000 1.0
C      1  0.5186110000000  0.2829150000000  0.4024990000000 1.0
C      1  0.4062580000000  0.2829130000000  0.5326310000000 1.0
C      1  0.5751320000000  0.2829130000000  0.5648650000000 1.0
C      1  0.4585400000000  0.3908850000000  0.2675150000000 1.0
C      1  0.3193930000000  0.3908830000000  0.6521470000000 1.0
C      1  0.7220680000000  0.3908830000000  0.5803360000000 1.0
C      1  0.3666480000000  0.6386690000000  0.6039150000000 1.0
C      1  0.6566680000000  0.6386690000000  0.5635300000000 1.0
C      1  0.4766840000000  0.6386710000000  0.3325580000000 1.0
C      1  0.6703790000000  0.3246310000000  0.5429300000000 1.0
C      1  0.4519900000000  0.3246320000000  0.3309810000000 1.0
C      1  0.3776310000000  0.3246300000000  0.6260850000000 1.0
C      1  0.4687230000000  0.6426480000000  0.6533770000000 1.0
C      1  0.6484650000000  0.6426500000000  0.4504000000000 1.0
C      1  0.3828120000000  0.6426500000000  0.3962270000000 1.0
C      1  0.6366450000000  0.5909730000000  0.3532710000000 1.0
C      1  0.3046060000000  0.5909720000000  0.4550280000000 1.0
C      1  0.5587490000000  0.5909700000000  0.6917030000000 1.0
C      1  0.5713950000000  0.6672280000000  0.6099940000000 1.0
C      1  0.5595590000000  0.6672300000000  0.3831740000000 1.0
C      1  0.3690450000000  0.6672290000000  0.5068350000000 1.0
C      1  0.6048920000000  0.4462520000000  0.6114990000000 1.0
C      1  0.5441150000000  0.4462540000000  0.3534110000000 1.0
C      1  0.3509930000000  0.4462530000000  0.5350890000000 1.0
C      1  0.4885060000000  0.3119160000000  0.6028240000000 1.0
C      1  0.5947970000000  0.3119170000000  0.4585400000000 1.0
C      1  0.4166980000000  0.3119170000000  0.4386320000000 1.0
C      1  0.5003570000000  0.4095250000000  0.6359500000000 1.0
C      1  0.6175590000000  0.4095260000000  0.4317150000000 1.0
C      1  0.3820850000000  0.4095260000000  0.4323330000000 1.0
C      1  0.6372050000000  0.4991300000000  0.3361030000000 1.0
C      1  0.2894580000000  0.4991290000000  0.4631250000000 1.0
C      1  0.5733370000000  0.4991270000000  0.7007720000000 1.0
C      1  0.7094290000000  0.4821140000000  0.6178230000000 1.0
C      1  0.4973240000000  0.4821170000000  0.2597180000000 1.0
C      1  0.2932480000000  0.4821140000000  0.6224590000000 1.0
C      1  0.4395930000000  0.4591780000000  0.7988630000000 1.0
C      1  0.7890260000000  0.4591810000000  0.4028820000000 1.0
C      1  0.2713810000000  0.4591820000000  0.2982540000000 1.0
C      1  0.5604420000000  0.5572840000000  0.4996590000000 1.0
C      1  0.4694830000000  0.5572840000000  0.4478260000000 1.0
C      1  0.4700740000000  0.5572840000000  0.5525160000000 1.0
END
