TITL C-3036484-3770-765 7.59726527223962e-07 3375 -358.674974009846 0 0 60 (C3) n - 1
REM
REM in /home/bkarasulu/work/CARBON/AIRSS/Generating-Clusters/REBO/Higher-Symm/Only-C60
REM
REM
REM
REM
REM
REM ./C.cell (a2850807a9bf4ad07a5b6933b78d9264)
REM AIRSS Version 0.9.1 bugfix July 2018 build 013d7b7c2542+ Fri, 06 Jul 2018 19:26:36 +0100
REM compiler GCC version 9.2.1 20190827 (Red Hat 9.2.1-1)
REM options -cpp -mtune=generic -march=x86-64 -g -O0 -fpre-include=/usr/include/finclude/math-vector-fortran.h
REM seed 15080130 -1312113021 -109804456 1243927272 -2135780946 -730667873 -642213747 -734091542 1449328672 -323812902 467915643 948850984 1079464186 -862817361 -1801359459 1677527275 1679422782 -218396417 203586829 2030963393 838608589 -1159286015 -1705057658 1265853182 1543805957 -1944271565 -1151618975 1563660823 -407844567 1344052690 1393034640 -1287142296 1809059276
REM
CELL 1.54180   15.00000   15.00000   15.00000   90.00000   90.00000   90.00000
LATT -1
SFAC C  
C      1  0.4059470000000  0.4510510000000  0.5809800000000 1.0
C      1  0.5046460000000  0.6059170000000  0.5809910000000 1.0
C      1  0.5894150000000  0.4430080000000  0.5809720000000 1.0
C      1  0.4490600000000  0.6067570000000  0.3133470000000 1.0
C      1  0.6178980000000  0.4907570000000  0.3133300000000 1.0
C      1  0.4330200000000  0.4025390000000  0.3133280000000 1.0
C      1  0.7105010000000  0.5407530000000  0.4800200000000 1.0
C      1  0.4300400000000  0.2973270000000  0.4800070000000 1.0
C      1  0.3594570000000  0.6619260000000  0.4800450000000 1.0
C      1  0.6021300000000  0.5472940000000  0.4457460000000 1.0
C      1  0.4898850000000  0.3879120000000  0.4457340000000 1.0
C      1  0.4079780000000  0.5648100000000  0.4457540000000 1.0
C      1  0.3140540000000  0.4259590000000  0.4416740000000 1.0
C      1  0.5288430000000  0.6980610000000  0.4416920000000 1.0
C      1  0.6570960000000  0.3759970000000  0.4416560000000 1.0
C      1  0.3976730000000  0.4948190000000  0.6852020000000 1.0
C      1  0.5467030000000  0.5911880000000  0.6852050000000 1.0
C      1  0.5556460000000  0.4139400000000  0.6851880000000 1.0
C      1  0.6266900000000  0.5725760000000  0.2777490000000 1.0
C      1  0.4994760000000  0.3540200000000  0.2777330000000 1.0
C      1  0.3738080000000  0.5734680000000  0.2777590000000 1.0
C      1  0.6746190000000  0.3838200000000  0.5422740000000 1.0
C      1  0.3120820000000  0.4068610000000  0.5422900000000 1.0
C      1  0.5133040000000  0.7093070000000  0.5423110000000 1.0
C      1  0.6674250000000  0.6849970000000  0.5684850000000 1.0
C      1  0.5765090000000  0.2625000000000  0.5684480000000 1.0
C      1  0.2560740000000  0.5524840000000  0.5684880000000 1.0
C      1  0.3038540000000  0.5373400000000  0.3233010000000 1.0
C      1  0.6303860000000  0.6512170000000  0.3233000000000 1.0
C      1  0.5657400000000  0.3114940000000  0.3232690000000 1.0
C      1  0.4437040000000  0.5914550000000  0.6985040000000 1.0
C      1  0.6073780000000  0.5030040000000  0.6984890000000 1.0
C      1  0.4489400000000  0.4054840000000  0.6984860000000 1.0
C      1  0.6946200000000  0.5155540000000  0.6450540000000 1.0
C      1  0.4161800000000  0.3236610000000  0.6450460000000 1.0
C      1  0.3892160000000  0.6607430000000  0.6450800000000 1.0
C      1  0.7202510000000  0.4768940000000  0.5629860000000 1.0
C      1  0.3698730000000  0.3208030000000  0.5629840000000 1.0
C      1  0.4098830000000  0.7022850000000  0.5630190000000 1.0
C      1  0.3335330000000  0.5693350000000  0.6286550000000 1.0
C      1  0.6432980000000  0.6094830000000  0.6286470000000 1.0
C      1  0.5231840000000  0.3211450000000  0.6286240000000 1.0
C      1  0.5904440000000  0.5411480000000  0.5538090000000 1.0
C      1  0.4904210000000  0.4010930000000  0.5537990000000 1.0
C      1  0.4191410000000  0.5577430000000  0.5538170000000 1.0
C      1  0.4428360000000  0.6642600000000  0.4037980000000 1.0
C      1  0.6708210000000  0.4673860000000  0.4037700000000 1.0
C      1  0.3863310000000  0.3683820000000  0.4037720000000 1.0
C      1  0.5247420000000  0.5618490000000  0.3800880000000 1.0
C      1  0.5411750000000  0.4476620000000  0.3800760000000 1.0
C      1  0.4340700000000  0.4905240000000  0.3800830000000 1.0
C      1  0.6020810000000  0.7502300000000  0.5742240000000 1.0
C      1  0.6656750000000  0.2864720000000  0.5741770000000 1.0
C      1  0.2322520000000  0.4632770000000  0.5742100000000 1.0
C      1  0.6812620000000  0.6484430000000  0.4809360000000 1.0
C      1  0.5379210000000  0.2688030000000  0.4809050000000 1.0
C      1  0.2808140000000  0.5827600000000  0.4809450000000 1.0
C      1  0.6170510000000  0.6763150000000  0.4132590000000 1.0
C      1  0.5941550000000  0.3104830000000  0.4132250000000 1.0
C      1  0.2887840000000  0.5132270000000  0.4132560000000 1.0
END
