TITL C-3036485-3770-86 -0.00234712946481945 3375 -324.221294952453 0 0 60 (C1) n - 1
REM
REM in /home/bkarasulu/work/CARBON/AIRSS/Generating-Clusters/REBO/Higher-Symm/Only-C60
REM
REM
REM
REM
REM
REM ./C.cell (a2850807a9bf4ad07a5b6933b78d9264)
REM AIRSS Version 0.9.1 bugfix July 2018 build 013d7b7c2542+ Fri, 06 Jul 2018 19:26:36 +0100
REM compiler GCC version 9.2.1 20190827 (Red Hat 9.2.1-1)
REM options -cpp -mtune=generic -march=x86-64 -g -O0 -fpre-include=/usr/include/finclude/math-vector-fortran.h
REM seed -1371283204 696481596 -354725723 949897195 -579579226 1831198463 1644068679 1968637186 1035155988 73439106 -1267396930 135146422 -1139207169 1920271253 1847971195 2128438390 -600805841 1792837015 -1330183721 1340355749 -1290127166 -1559578499 -1972503478 -2078226742 -733147201 1827185811 -535195508 1822841025 -1341926830 1428600857 493231116 689251774 -2060261205
REM
CELL 1.54180   15.00000   15.00000   15.00000   90.00000   90.00000   90.00000
LATT -1
SFAC C  
C      1  0.5084310000000  0.3684860000000  0.6330960000000 1.0
C      1  0.6064800000000  0.4812450000000  0.3840010000000 1.0
C      1  0.3675030000000  0.6317030000000  0.4915140000000 1.0
C      1  0.5066100000000  0.6248460000000  0.6208010000000 1.0
C      1  0.5244520000000  0.4132660000000  0.3850410000000 1.0
C      1  0.4889590000000  0.6277310000000  0.3677100000000 1.0
C      1  0.3521820000000  0.5048240000000  0.3632500000000 1.0
C      1  0.3779820000000  0.4941370000000  0.6200250000000 1.0
C      1  0.6350500000000  0.4969880000000  0.6357970000000 1.0
C      1  0.6433720000000  0.3641730000000  0.5050980000000 1.0
C      1  0.6224360000000  0.6232280000000  0.5051940000000 1.0
C      1  0.3860730000000  0.3834810000000  0.5039500000000 1.0
C      1  0.4025520000000  0.5980950000000  0.7224450000000 1.0
C      1  0.7100600000000  0.3899140000000  0.6161030000000 1.0
C      1  0.6174660000000  0.6868410000000  0.3892390000000 1.0
C      1  0.6233750000000  0.3805300000000  0.6990230000000 1.0
C      1  0.5985390000000  0.5880100000000  0.2726650000000 1.0
C      1  0.3614420000000  0.3914240000000  0.2952400000000 1.0
C      1  0.3041130000000  0.6145580000000  0.6065810000000 1.0
C      1  0.2955020000000  0.3877510000000  0.3883780000000 1.0
C      1  0.6936620000000  0.6018220000000  0.3955930000000 1.0
C      1  0.4146690000000  0.2864150000000  0.4000620000000 1.0
C      1  0.3847600000000  0.6952590000000  0.6064020000000 1.0
C      1  0.6167190000000  0.2952180000000  0.6145920000000 1.0
C      1  0.3215690000000  0.2949860000000  0.4294030000000 1.0
C      1  0.4297380000000  0.3133640000000  0.3075640000000 1.0
C      1  0.2665480000000  0.4518340000000  0.2992440000000 1.0
C      1  0.7062470000000  0.6947950000000  0.4592520000000 1.0
C      1  0.7152860000000  0.2923590000000  0.5681190000000 1.0
C      1  0.2914870000000  0.7077190000000  0.5432150000000 1.0
C      1  0.5821530000000  0.6835340000000  0.2914330000000 1.0
C      1  0.5537220000000  0.2889450000000  0.7077560000000 1.0
C      1  0.4258440000000  0.6915510000000  0.7020830000000 1.0
C      1  0.6835770000000  0.5554800000000  0.3046270000000 1.0
C      1  0.7121360000000  0.4479430000000  0.7119830000000 1.0
C      1  0.3097020000000  0.5728350000000  0.7020020000000 1.0
C      1  0.4428810000000  0.4648400000000  0.3250020000000 1.0
C      1  0.3355700000000  0.4664390000000  0.4613590000000 1.0
C      1  0.4808320000000  0.3531590000000  0.4635720000000 1.0
C      1  0.5217380000000  0.5339970000000  0.3297910000000 1.0
C      1  0.5405870000000  0.4628220000000  0.6611270000000 1.0
C      1  0.4703640000000  0.5318610000000  0.6599570000000 1.0
C      1  0.6500630000000  0.5269920000000  0.4689600000000 1.0
C      1  0.6667990000000  0.4621790000000  0.5393040000000 1.0
C      1  0.3382240000000  0.5367270000000  0.5303860000000 1.0
C      1  0.5319940000000  0.6587050000000  0.4599510000000 1.0
C      1  0.5454890000000  0.3373260000000  0.5360680000000 1.0
C      1  0.4629010000000  0.6607900000000  0.5304820000000 1.0
C      1  0.6995200000000  0.5538690000000  0.7026370000000 1.0
C      1  0.6857810000000  0.6878120000000  0.5641440000000 1.0
C      1  0.5270180000000  0.6963050000000  0.6886600000000 1.0
C      1  0.3075720000000  0.4714480000000  0.6883950000000 1.0
C      1  0.2776300000000  0.5581110000000  0.3061720000000 1.0
C      1  0.6882090000000  0.4573050000000  0.3117450000000 1.0
C      1  0.3240450000000  0.3085540000000  0.5308980000000 1.0
C      1  0.3021310000000  0.6982840000000  0.4371040000000 1.0
C      1  0.7139810000000  0.2951780000000  0.4607620000000 1.0
C      1  0.4480450000000  0.3049000000000  0.6980460000000 1.0
C      1  0.4814520000000  0.6997290000000  0.2981490000000 1.0
C      1  0.5167740000000  0.3473780000000  0.2988480000000 1.0
END
