TITL C-3036484-3770-981 -3.38186801718055e-06 3375 -343.932858665004 0 0 60 (C2) n - 1
REM
REM in /home/bkarasulu/work/CARBON/AIRSS/Generating-Clusters/REBO/Higher-Symm/Only-C60
REM
REM
REM
REM
REM
REM ./C.cell (a2850807a9bf4ad07a5b6933b78d9264)
REM AIRSS Version 0.9.1 bugfix July 2018 build 013d7b7c2542+ Fri, 06 Jul 2018 19:26:36 +0100
REM compiler GCC version 9.2.1 20190827 (Red Hat 9.2.1-1)
REM options -cpp -mtune=generic -march=x86-64 -g -O0 -fpre-include=/usr/include/finclude/math-vector-fortran.h
REM seed 1838146240 -1416141165 -467982115 8536316 1199114698 -693200560 1445964294 -1485517083 1410659334 1780492022 -1716095920 -427537098 1289592378 -2099444615 -410213304 -1062205146 -1818745283 -1719526372 -600117082 2088229255 1215067495 1319466266 -605816541 1964865819 831895602 586982627 -1626897098 -25982965 1836010731 79957541 2103503871 191897387 -1992161612
REM
CELL 1.54180   15.00000   15.00000   15.00000   90.00000   90.00000   90.00000
LATT -1
SFAC C  
C      1  0.6147440000000  0.5252640000000  0.4291820000000 1.0
C      1  0.4384360000000  0.5596620000000  0.4475560000000 1.0
C      1  0.3852540000000  0.4747350000000  0.4291850000000 1.0
C      1  0.5615620000000  0.4403370000000  0.4475560000000 1.0
C      1  0.5953300000000  0.3432720000000  0.3294320000000 1.0
C      1  0.7139590000000  0.5891760000000  0.3230550000000 1.0
C      1  0.4046670000000  0.6567250000000  0.3294320000000 1.0
C      1  0.2860380000000  0.4108220000000  0.3230610000000 1.0
C      1  0.5330810000000  0.7013530000000  0.4470650000000 1.0
C      1  0.2438160000000  0.5574170000000  0.4847300000000 1.0
C      1  0.4669180000000  0.2986460000000  0.4470680000000 1.0
C      1  0.7561830000000  0.4425820000000  0.4847250000000 1.0
C      1  0.7248140000000  0.4244920000000  0.3945460000000 1.0
C      1  0.6354060000000  0.7053070000000  0.4095520000000 1.0
C      1  0.2751840000000  0.5755060000000  0.3945490000000 1.0
C      1  0.3645930000000  0.2946920000000  0.4095590000000 1.0
C      1  0.4740210000000  0.6329780000000  0.3859620000000 1.0
C      1  0.3168950000000  0.4939030000000  0.3568220000000 1.0
C      1  0.5259770000000  0.3670200000000  0.3859630000000 1.0
C      1  0.6831020000000  0.5060950000000  0.3568180000000 1.0
C      1  0.4035300000000  0.3251580000000  0.5376020000000 1.0
C      1  0.6982380000000  0.3967190000000  0.5668630000000 1.0
C      1  0.5964710000000  0.6748420000000  0.5375970000000 1.0
C      1  0.3017640000000  0.6032820000000  0.5668650000000 1.0
C      1  0.4840390000000  0.5645480000000  0.6820260000000 1.0
C      1  0.4221030000000  0.4802350000000  0.6819840000000 1.0
C      1  0.5159650000000  0.4354550000000  0.6820270000000 1.0
C      1  0.5779010000000  0.5197680000000  0.6819820000000 1.0
C      1  0.4229220000000  0.4635750000000  0.5383390000000 1.0
C      1  0.5232990000000  0.4381330000000  0.5490220000000 1.0
C      1  0.5770790000000  0.5364260000000  0.5383370000000 1.0
C      1  0.4767020000000  0.5618670000000  0.5490210000000 1.0
C      1  0.5023170000000  0.3080450000000  0.5751780000000 1.0
C      1  0.7133030000000  0.4998720000000  0.5945540000000 1.0
C      1  0.4976850000000  0.6919560000000  0.5751750000000 1.0
C      1  0.2866990000000  0.5001290000000  0.5945580000000 1.0
C      1  0.6561440000000  0.6467170000000  0.6238910000000 1.0
C      1  0.3549330000000  0.6569890000000  0.6457330000000 1.0
C      1  0.3438580000000  0.3532850000000  0.6238960000000 1.0
C      1  0.6450700000000  0.3430140000000  0.6457320000000 1.0
C      1  0.7785020000000  0.6419330000000  0.4583430000000 1.0
C      1  0.3325210000000  0.7231640000000  0.4498660000000 1.0
C      1  0.2214970000000  0.3580670000000  0.4583510000000 1.0
C      1  0.6674780000000  0.2768350000000  0.4498660000000 1.0
C      1  0.4326790000000  0.7272160000000  0.4937160000000 1.0
C      1  0.2355890000000  0.4495240000000  0.5128480000000 1.0
C      1  0.5673210000000  0.2727840000000  0.4937180000000 1.0
C      1  0.7644110000000  0.5504760000000  0.5128420000000 1.0
C      1  0.5489690000000  0.3517020000000  0.6468590000000 1.0
C      1  0.6574400000000  0.5539980000000  0.6465360000000 1.0
C      1  0.4510340000000  0.6483000000000  0.6468580000000 1.0
C      1  0.3425630000000  0.4460040000000  0.6465400000000 1.0
C      1  0.3935830000000  0.6289730000000  0.5217070000000 1.0
C      1  0.3369150000000  0.4074150000000  0.5026880000000 1.0
C      1  0.6064180000000  0.3710280000000  0.5217070000000 1.0
C      1  0.6630850000000  0.5925850000000  0.5026830000000 1.0
C      1  0.2832690000000  0.3391840000000  0.3874770000000 1.0
C      1  0.6796880000000  0.3390830000000  0.3768630000000 1.0
C      1  0.7167290000000  0.6608140000000  0.3874690000000 1.0
C      1  0.3203090000000  0.6609150000000  0.3768640000000 1.0
END
