TITL C-3036479-9801-576 -9.05808131844955e-08 3375 -347.136872027898 0 0 60 (C3i) n - 1
REM
REM in /home/bkarasulu/work/CARBON/AIRSS/Generating-Clusters/REBO/Higher-Symm/Only-C60
REM
REM
REM
REM
REM
REM ./C.cell (a2850807a9bf4ad07a5b6933b78d9264)
REM AIRSS Version 0.9.1 bugfix July 2018 build 013d7b7c2542+ Fri, 06 Jul 2018 19:26:36 +0100
REM compiler GCC version 9.2.1 20190827 (Red Hat 9.2.1-1)
REM options -cpp -mtune=generic -march=x86-64 -g -O0 -fpre-include=/usr/include/finclude/math-vector-fortran.h
REM seed 1387004480 135655035 384506739 -675948497 246295201 270278526 -2032279249 -650357552 232923233 -1769120596 2017225416 120475385 197459194 741258431 -822126842 -892783388 -1303842902 2140510928 -62435581 632644848 2077261045 -232725148 502897681 -884380952 -100586491 -1376933572 -1882323120 -467748301 781064430 -1410334256 516525252 279531132 -27119437
REM
CELL 1.54180   15.00000   15.00000   15.00000   90.00000   90.00000   90.00000
LATT -1
SFAC C  
C      1  0.7306000000000  0.4153970000000  0.3876730000000 1.0
C      1  0.7125780000000  0.5846000000000  0.6435430000000 1.0
C      1  0.4819760000000  0.4153970000000  0.7558690000000 1.0
C      1  0.2694000000000  0.5846030000000  0.6123270000000 1.0
C      1  0.2874220000000  0.4154000000000  0.3564570000000 1.0
C      1  0.5180240000000  0.5846030000000  0.2441310000000 1.0
C      1  0.5208950000000  0.3039050000000  0.4378830000000 1.0
C      1  0.5642430000000  0.6960950000000  0.4870390000000 1.0
C      1  0.5433450000000  0.3039040000000  0.5491540000000 1.0
C      1  0.4791050000000  0.6960950000000  0.5621170000000 1.0
C      1  0.4357570000000  0.3039050000000  0.5129610000000 1.0
C      1  0.4566550000000  0.6960960000000  0.4508460000000 1.0
C      1  0.3521330000000  0.5288020000000  0.6413090000000 1.0
C      1  0.3036890000000  0.4711990000000  0.4425980000000 1.0
C      1  0.4515560000000  0.5288030000000  0.3012890000000 1.0
C      1  0.6478670000000  0.4711980000000  0.3586910000000 1.0
C      1  0.6963110000000  0.5288010000000  0.5574020000000 1.0
C      1  0.5484440000000  0.4711970000000  0.6987110000000 1.0
C      1  0.3758970000000  0.5986630000000  0.3495970000000 1.0
C      1  0.5682000000000  0.4013390000000  0.3173210000000 1.0
C      1  0.6923050000000  0.5986610000000  0.4677250000000 1.0
C      1  0.6241030000000  0.4013370000000  0.6504030000000 1.0
C      1  0.4318000000000  0.5986610000000  0.6826790000000 1.0
C      1  0.3076950000000  0.4013390000000  0.5322750000000 1.0
C      1  0.3113570000000  0.5706470000000  0.4360600000000 1.0
C      1  0.4610520000000  0.4293560000000  0.3046600000000 1.0
C      1  0.6496960000000  0.5706450000000  0.3686010000000 1.0
C      1  0.6886430000000  0.4293530000000  0.5639400000000 1.0
C      1  0.5389480000000  0.5706440000000  0.6953400000000 1.0
C      1  0.3503040000000  0.4293550000000  0.6313990000000 1.0
C      1  0.7349230000000  0.3762020000000  0.4878370000000 1.0
C      1  0.6279960000000  0.6237950000000  0.6973690000000 1.0
C      1  0.3930710000000  0.3762030000000  0.7095310000000 1.0
C      1  0.2650770000000  0.6237980000000  0.5121630000000 1.0
C      1  0.3720040000000  0.3762050000000  0.3026310000000 1.0
C      1  0.6069290000000  0.6237970000000  0.2904690000000 1.0
C      1  0.4027180000000  0.4256950000000  0.4703710000000 1.0
C      1  0.4770190000000  0.5743060000000  0.4009380000000 1.0
C      1  0.5742990000000  0.4256940000000  0.4305660000000 1.0
C      1  0.5972820000000  0.5743050000000  0.5296290000000 1.0
C      1  0.5229810000000  0.4256940000000  0.5990620000000 1.0
C      1  0.4257010000000  0.5743060000000  0.5694340000000 1.0
C      1  0.6894150000000  0.3176180000000  0.4070010000000 1.0
C      1  0.6752480000000  0.6823800000000  0.6175410000000 1.0
C      1  0.4858290000000  0.3176180000000  0.7105370000000 1.0
C      1  0.3105850000000  0.6823820000000  0.5929990000000 1.0
C      1  0.3247520000000  0.3176200000000  0.3824590000000 1.0
C      1  0.5141710000000  0.6823820000000  0.2894630000000 1.0
C      1  0.4704850000000  0.3988350000000  0.4071860000000 1.0
C      1  0.5656220000000  0.6011660000000  0.4280330000000 1.0
C      1  0.5951360000000  0.3988330000000  0.5208460000000 1.0
C      1  0.5295150000000  0.6011650000000  0.5928140000000 1.0
C      1  0.4343780000000  0.3988340000000  0.5719670000000 1.0
C      1  0.4048640000000  0.6011670000000  0.4791540000000 1.0
C      1  0.4402300000000  0.6912430000000  0.3492180000000 1.0
C      1  0.6006950000000  0.3087580000000  0.3728440000000 1.0
C      1  0.6604690000000  0.6912410000000  0.5236290000000 1.0
C      1  0.5597700000000  0.3087570000000  0.6507820000000 1.0
C      1  0.3993050000000  0.6912420000000  0.6271560000000 1.0
C      1  0.3395310000000  0.3087590000000  0.4763710000000 1.0
END
