TITL C-3036481-494-294 0.00432888939938426 3375 -344.149859511973 0 0 60 (C1) n - 1
REM
REM in /home/bkarasulu/work/CARBON/AIRSS/Generating-Clusters/REBO/Higher-Symm/Only-C60
REM
REM
REM
REM
REM
REM ./C.cell (a2850807a9bf4ad07a5b6933b78d9264)
REM AIRSS Version 0.9.1 bugfix July 2018 build 013d7b7c2542+ Fri, 06 Jul 2018 19:26:36 +0100
REM compiler GCC version 9.2.1 20190827 (Red Hat 9.2.1-1)
REM options -cpp -mtune=generic -march=x86-64 -g -O0 -fpre-include=/usr/include/finclude/math-vector-fortran.h
REM seed 1720153853 -1265805498 536788487 1313612750 678513227 375454710 -516648460 -2142200620 -1557629420 1263136381 -679412711 -1545941593 615125354 -1246227100 -948218280 -1412633695 -1035002661 -1923803761 -1735408555 515233986 -494990910 -819782408 -2135977504 1970282628 107476213 1744392413 1122848911 1985043156 780664131 -1556310882 -988413266 -1771293137 998477918
REM
CELL 1.54180   15.00000   15.00000   15.00000   90.00000   90.00000   90.00000
LATT -1
SFAC C  
C      1  0.7072050000000  0.5975060000000  0.4085000000000 1.0
C      1  0.6573960000000  0.3330100000000  0.4093780000000 1.0
C      1  0.3902450000000  0.3008720000000  0.4103060000000 1.0
C      1  0.2754200000000  0.5420230000000  0.4094630000000 1.0
C      1  0.4725860000000  0.7251540000000  0.4111710000000 1.0
C      1  0.5643310000000  0.4510380000000  0.5169360000000 1.0
C      1  0.4734610000000  0.4237420000000  0.5164700000000 1.0
C      1  0.4185940000000  0.5016070000000  0.5170640000000 1.0
C      1  0.4758100000000  0.5772980000000  0.5167550000000 1.0
C      1  0.5658120000000  0.5466700000000  0.5171730000000 1.0
C      1  0.7320670000000  0.4066000000000  0.5467400000000 1.0
C      1  0.4798140000000  0.2487000000000  0.5488900000000 1.0
C      1  0.2558040000000  0.4383750000000  0.5445730000000 1.0
C      1  0.3695190000000  0.7153890000000  0.5500260000000 1.0
C      1  0.6625280000000  0.6919970000000  0.5442560000000 1.0
C      1  0.4375170000000  0.4327170000000  0.3174030000000 1.0
C      1  0.4170940000000  0.5388850000000  0.3169630000000 1.0
C      1  0.5116810000000  0.5910590000000  0.3174050000000 1.0
C      1  0.5907460000000  0.5171730000000  0.3165320000000 1.0
C      1  0.5448180000000  0.4193670000000  0.3170980000000 1.0
C      1  0.3270250000000  0.3357740000000  0.4982770000000 1.0
C      1  0.2905750000000  0.6056060000000  0.5027050000000 1.0
C      1  0.5445210000000  0.7339330000000  0.4988650000000 1.0
C      1  0.7301890000000  0.5346620000000  0.5008230000000 1.0
C      1  0.6057000000000  0.2910020000000  0.5019850000000 1.0
C      1  0.6486240000000  0.4297720000000  0.3569510000000 1.0
C      1  0.4801330000000  0.3379220000000  0.3584860000000 1.0
C      1  0.3386590000000  0.4698090000000  0.3557390000000 1.0
C      1  0.4215590000000  0.6423380000000  0.3595350000000 1.0
C      1  0.6132980000000  0.6192450000000  0.3555520000000 1.0
C      1  0.7319990000000  0.4895210000000  0.3975500000000 1.0
C      1  0.5613570000000  0.2765140000000  0.4001870000000 1.0
C      1  0.3057010000000  0.3719540000000  0.3940920000000 1.0
C      1  0.3199920000000  0.6442380000000  0.4018740000000 1.0
C      1  0.5827940000000  0.7175300000000  0.3945230000000 1.0
C      1  0.4513100000000  0.4270180000000  0.7445910000000 1.0
C      1  0.4153850000000  0.5235700000000  0.7450680000000 1.0
C      1  0.4960580000000  0.5870030000000  0.7450090000000 1.0
C      1  0.5816910000000  0.5298600000000  0.7452320000000 1.0
C      1  0.5539180000000  0.4309790000000  0.7446660000000 1.0
C      1  0.3724330000000  0.7251220000000  0.4503310000000 1.0
C      1  0.6757270000000  0.6938580000000  0.4452540000000 1.0
C      1  0.7386560000000  0.3937280000000  0.4469300000000 1.0
C      1  0.4714970000000  0.2422700000000  0.4494710000000 1.0
C      1  0.2447010000000  0.4452830000000  0.4456450000000 1.0
C      1  0.5453830000000  0.3165090000000  0.5945740000000 1.0
C      1  0.3402760000000  0.3949680000000  0.5945400000000 1.0
C      1  0.3553530000000  0.6212270000000  0.5938580000000 1.0
C      1  0.5687240000000  0.6778970000000  0.5948430000000 1.0
C      1  0.6886650000000  0.4890920000000  0.5960850000000 1.0
C      1  0.4226770000000  0.5590390000000  0.6375380000000 1.0
C      1  0.5319670000000  0.5910150000000  0.6381530000000 1.0
C      1  0.5966130000000  0.4973930000000  0.6376010000000 1.0
C      1  0.5273160000000  0.4069900000000  0.6371750000000 1.0
C      1  0.4200800000000  0.4452480000000  0.6377620000000 1.0
C      1  0.6322880000000  0.3903220000000  0.5268980000000 1.0
C      1  0.4299350000000  0.3384290000000  0.5318630000000 1.0
C      1  0.3276510000000  0.5095590000000  0.5276670000000 1.0
C      1  0.4624240000000  0.6719360000000  0.5329560000000 1.0
C      1  0.6446990000000  0.5926820000000  0.5260450000000 1.0
END
