TITL C-3036479-9801-618 2.98754873349295e-06 3375 -352.616821577094 0 0 60 (C1) n - 1
REM
REM in /home/bkarasulu/work/CARBON/AIRSS/Generating-Clusters/REBO/Higher-Symm/Only-C60
REM
REM
REM
REM
REM
REM ./C.cell (a2850807a9bf4ad07a5b6933b78d9264)
REM AIRSS Version 0.9.1 bugfix July 2018 build 013d7b7c2542+ Fri, 06 Jul 2018 19:26:36 +0100
REM compiler GCC version 9.2.1 20190827 (Red Hat 9.2.1-1)
REM options -cpp -mtune=generic -march=x86-64 -g -O0 -fpre-include=/usr/include/finclude/math-vector-fortran.h
REM seed -855275785 1015207131 877671774 -1293144474 419879048 -2128903543 -397019499 249133689 628490641 1262579310 -693949546 -1176885014 1242587876 595825750 -584550490 1036231842 1092688327 941566735 2014436801 98284087 1601526156 -521353660 -1532213380 1903943583 107756327 1542885999 -315452364 -1624361179 1347305806 -2091577270 2120253128 792021310 1726990691
REM
CELL 1.54180   15.00000   15.00000   15.00000   90.00000   90.00000   90.00000
LATT -1
SFAC C  
C      1  0.6584640000000  0.3686740000000  0.4771740000000 1.0
C      1  0.4073770000000  0.4161710000000  0.6941270000000 1.0
C      1  0.5350820000000  0.2650810000000  0.5213250000000 1.0
C      1  0.4705310000000  0.7447120000000  0.5165230000000 1.0
C      1  0.5654780000000  0.3003830000000  0.3381320000000 1.0
C      1  0.3787840000000  0.2566390000000  0.5463300000000 1.0
C      1  0.4102630000000  0.7168940000000  0.5793120000000 1.0
C      1  0.6324110000000  0.6924080000000  0.5928170000000 1.0
C      1  0.5624830000000  0.3853320000000  0.2928030000000 1.0
C      1  0.3842270000000  0.4239380000000  0.4812930000000 1.0
C      1  0.7527600000000  0.5045020000000  0.4808550000000 1.0
C      1  0.5894830000000  0.4297980000000  0.5221010000000 1.0
C      1  0.6183070000000  0.3024230000000  0.5463590000000 1.0
C      1  0.4802780000000  0.6023510000000  0.2892250000000 1.0
C      1  0.4803690000000  0.4285220000000  0.5202690000000 1.0
C      1  0.4984350000000  0.2739520000000  0.4225270000000 1.0
C      1  0.3215060000000  0.5282110000000  0.3751060000000 1.0
C      1  0.4260460000000  0.3965980000000  0.7826720000000 1.0
C      1  0.6229970000000  0.4579350000000  0.3101000000000 1.0
C      1  0.5444840000000  0.4224120000000  0.6790240000000 1.0
C      1  0.6991550000000  0.5881310000000  0.4330960000000 1.0
C      1  0.7338510000000  0.5669820000000  0.5590540000000 1.0
C      1  0.3037730000000  0.5837820000000  0.5398580000000 1.0
C      1  0.4072670000000  0.6708390000000  0.3221640000000 1.0
C      1  0.7122510000000  0.6653910000000  0.5165660000000 1.0
C      1  0.4031190000000  0.2289600000000  0.4555570000000 1.0
C      1  0.4682480000000  0.3724010000000  0.3926150000000 1.0
C      1  0.7389960000000  0.4146720000000  0.4592700000000 1.0
C      1  0.4822120000000  0.4629180000000  0.8285390000000 1.0
C      1  0.3206350000000  0.4083530000000  0.5560350000000 1.0
C      1  0.6192520000000  0.6933410000000  0.4613420000000 1.0
C      1  0.5859720000000  0.5865210000000  0.4429670000000 1.0
C      1  0.5147110000000  0.5285570000000  0.4747730000000 1.0
C      1  0.3104970000000  0.5937900000000  0.4464660000000 1.0
C      1  0.3493610000000  0.6756280000000  0.4171480000000 1.0
C      1  0.4728050000000  0.4169680000000  0.2675920000000 1.0
C      1  0.3906770000000  0.3733350000000  0.3183280000000 1.0
C      1  0.6092550000000  0.6156950000000  0.6425460000000 1.0
C      1  0.4522280000000  0.7219170000000  0.4145010000000 1.0
C      1  0.5606900000000  0.7397680000000  0.5387710000000 1.0
C      1  0.4822790000000  0.4681250000000  0.3933070000000 1.0
C      1  0.4642530000000  0.2817810000000  0.5834700000000 1.0
C      1  0.6285210000000  0.4582670000000  0.6189780000000 1.0
C      1  0.4000120000000  0.5250630000000  0.6820420000000 1.0
C      1  0.3239700000000  0.6592520000000  0.5935360000000 1.0
C      1  0.3522980000000  0.4386950000000  0.3920810000000 1.0
C      1  0.6164370000000  0.3478200000000  0.6312490000000 1.0
C      1  0.6690170000000  0.5452490000000  0.6240250000000 1.0
C      1  0.5538730000000  0.7001900000000  0.3813100000000 1.0
C      1  0.4127040000000  0.6351590000000  0.6576970000000 1.0
C      1  0.5637570000000  0.6300800000000  0.3189500000000 1.0
C      1  0.3483460000000  0.5785980000000  0.2969900000000 1.0
C      1  0.4682600000000  0.3774960000000  0.6154330000000 1.0
C      1  0.6349720000000  0.5546040000000  0.3457510000000 1.0
C      1  0.3570100000000  0.5069030000000  0.5813230000000 1.0
C      1  0.5144330000000  0.5872130000000  0.6590260000000 1.0
C      1  0.5025760000000  0.5022300000000  0.7280840000000 1.0
C      1  0.4612100000000  0.5498800000000  0.5677400000000 1.0
C      1  0.4636840000000  0.5122930000000  0.3027030000000 1.0
C      1  0.3076700000000  0.3162200000000  0.5710440000000 1.0
END
