TITL C-3036479-9801-343 1.64643254997036e-07 3375 -352.752165029432 0 0 60 (C1) n - 1
REM
REM in /home/bkarasulu/work/CARBON/AIRSS/Generating-Clusters/REBO/Higher-Symm/Only-C60
REM
REM
REM
REM
REM
REM ./C.cell (a2850807a9bf4ad07a5b6933b78d9264)
REM AIRSS Version 0.9.1 bugfix July 2018 build 013d7b7c2542+ Fri, 06 Jul 2018 19:26:36 +0100
REM compiler GCC version 9.2.1 20190827 (Red Hat 9.2.1-1)
REM options -cpp -mtune=generic -march=x86-64 -g -O0 -fpre-include=/usr/include/finclude/math-vector-fortran.h
REM seed -1494910492 934794768 -1013518979 -1878409767 734798410 -1111710133 -1081841371 -663633356 -1883877174 1851155648 60455585 -264495760 1148404618 1014154699 860925395 -458034643 -488560587 842246917 -367127058 1995142773 -2056987490 1132879284 -1895399722 844203065 -986792993 194320715 153204632 2065444917 -1803950107 -1117241336 1356836830 1494180473 -2121776685
REM
CELL 1.54180   15.00000   15.00000   15.00000   90.00000   90.00000   90.00000
LATT -1
SFAC C  
C      1  0.3538420000000  0.4246070000000  0.6819320000000 1.0
C      1  0.2838260000000  0.4197030000000  0.4130720000000 1.0
C      1  0.5218460000000  0.4228420000000  0.2723800000000 1.0
C      1  0.7301670000000  0.4255930000000  0.4484120000000 1.0
C      1  0.6254680000000  0.4248310000000  0.7017890000000 1.0
C      1  0.5716120000000  0.5839030000000  0.3218000000000 1.0
C      1  0.6725770000000  0.5725250000000  0.5090000000000 1.0
C      1  0.5443410000000  0.5686170000000  0.6679370000000 1.0
C      1  0.3400770000000  0.5792610000000  0.6161720000000 1.0
C      1  0.3345970000000  0.5883060000000  0.3728510000000 1.0
C      1  0.4432480000000  0.4659510000000  0.7385190000000 1.0
C      1  0.2630830000000  0.4625800000000  0.5162020000000 1.0
C      1  0.4161860000000  0.4631190000000  0.2810710000000 1.0
C      1  0.6898910000000  0.4660170000000  0.3501700000000 1.0
C      1  0.7075700000000  0.4654980000000  0.6346370000000 1.0
C      1  0.6592080000000  0.3372840000000  0.4578450000000 1.0
C      1  0.5930910000000  0.3380430000000  0.6361460000000 1.0
C      1  0.4025360000000  0.3332690000000  0.6348880000000 1.0
C      1  0.3448360000000  0.3292250000000  0.4474210000000 1.0
C      1  0.5095350000000  0.3320900000000  0.3401540000000 1.0
C      1  0.3622640000000  0.4033860000000  0.3399340000000 1.0
C      1  0.6176980000000  0.4047000000000  0.3168470000000 1.0
C      1  0.7170160000000  0.4056960000000  0.5546980000000 1.0
C      1  0.5207870000000  0.4046600000000  0.7238240000000 1.0
C      1  0.3039960000000  0.4056040000000  0.5866890000000 1.0
C      1  0.4973720000000  0.7104670000000  0.5861890000000 1.0
C      1  0.4248380000000  0.7034360000000  0.5189110000000 1.0
C      1  0.4647310000000  0.7037000000000  0.4289000000000 1.0
C      1  0.5626610000000  0.7109900000000  0.4386900000000 1.0
C      1  0.5835180000000  0.7142800000000  0.5357760000000 1.0
C      1  0.2702600000000  0.5317140000000  0.4256150000000 1.0
C      1  0.5054750000000  0.5330740000000  0.2659340000000 1.0
C      1  0.7246320000000  0.5356490000000  0.4341410000000 1.0
C      1  0.6330040000000  0.5343570000000  0.6880890000000 1.0
C      1  0.3612220000000  0.5351750000000  0.6995490000000 1.0
C      1  0.4030760000000  0.4475610000000  0.4594280000000 1.0
C      1  0.4813460000000  0.4487280000000  0.3964520000000 1.0
C      1  0.5668180000000  0.4352240000000  0.4522210000000 1.0
C      1  0.5375000000000  0.4248560000000  0.5516170000000 1.0
C      1  0.4343970000000  0.4328760000000  0.5538280000000 1.0
C      1  0.2720680000000  0.5730970000000  0.5280410000000 1.0
C      1  0.4060390000000  0.5741350000000  0.2890540000000 1.0
C      1  0.6792310000000  0.5787200000000  0.3431010000000 1.0
C      1  0.7039650000000  0.5758590000000  0.6147970000000 1.0
C      1  0.4572190000000  0.5785950000000  0.7344180000000 1.0
C      1  0.4149810000000  0.5561240000000  0.4385210000000 1.0
C      1  0.5206080000000  0.5513400000000  0.4061740000000 1.0
C      1  0.5808620000000  0.5374820000000  0.4957660000000 1.0
C      1  0.5170320000000  0.5329220000000  0.5801440000000 1.0
C      1  0.4147500000000  0.5458270000000  0.5477380000000 1.0
C      1  0.4940890000000  0.6647830000000  0.6697200000000 1.0
C      1  0.3454050000000  0.6591740000000  0.5389460000000 1.0
C      1  0.4180370000000  0.6628100000000  0.3590970000000 1.0
C      1  0.6170340000000  0.6690830000000  0.3734970000000 1.0
C      1  0.6608360000000  0.6667900000000  0.5624390000000 1.0
C      1  0.3527750000000  0.3273530000000  0.5424670000000 1.0
C      1  0.4208970000000  0.3273150000000  0.3743470000000 1.0
C      1  0.6041930000000  0.3282330000000  0.3822960000000 1.0
C      1  0.6464420000000  0.3321520000000  0.5594640000000 1.0
C      1  0.4933920000000  0.3288060000000  0.6602450000000 1.0
END
