TITL C-3036485-3770-310 1.03408188153139e-05 3375 -355.791698906871 0 0 60 (D2) n - 1
REM
REM in /home/bkarasulu/work/CARBON/AIRSS/Generating-Clusters/REBO/Higher-Symm/Only-C60
REM
REM
REM
REM
REM
REM ./C.cell (a2850807a9bf4ad07a5b6933b78d9264)
REM AIRSS Version 0.9.1 bugfix July 2018 build 013d7b7c2542+ Fri, 06 Jul 2018 19:26:36 +0100
REM compiler GCC version 9.2.1 20190827 (Red Hat 9.2.1-1)
REM options -cpp -mtune=generic -march=x86-64 -g -O0 -fpre-include=/usr/include/finclude/math-vector-fortran.h
REM seed 1242277839 1773705378 907588665 -495207575 -954360469 208378634 381404678 -1583045603 1986970982 -2380222 -421341301 1886676182 -242801536 1775926592 309908185 1369787460 1303295534 770208266 1268152223 759390210 1464901792 439284662 1368829172 447850279 -2042094481 1875995849 1621583404 1134659844 -577621696 -1579436713 -1672455339 474006709 1171017169
REM
CELL 1.54180   15.00000   15.00000   15.00000   90.00000   90.00000   90.00000
LATT -1
SFAC C  
C      1  0.6604730000000  0.6783310000000  0.6210560000000 1.0
C      1  0.3395280000000  0.6783340000000  0.3789470000000 1.0
C      1  0.6604710000000  0.3216680000000  0.3789430000000 1.0
C      1  0.3395270000000  0.3216670000000  0.6210540000000 1.0
C      1  0.3090050000000  0.5338650000000  0.5866050000000 1.0
C      1  0.6909950000000  0.5338650000000  0.4133960000000 1.0
C      1  0.3090050000000  0.4661370000000  0.4133960000000 1.0
C      1  0.6909950000000  0.4661330000000  0.5866030000000 1.0
C      1  0.5654840000000  0.5614870000000  0.7006120000000 1.0
C      1  0.4345160000000  0.5614910000000  0.2993890000000 1.0
C      1  0.5654830000000  0.4385120000000  0.2993880000000 1.0
C      1  0.4345160000000  0.4385090000000  0.7006110000000 1.0
C      1  0.3311160000000  0.5977780000000  0.3042780000000 1.0
C      1  0.6688850000000  0.5977730000000  0.6957230000000 1.0
C      1  0.3311160000000  0.4022240000000  0.6957220000000 1.0
C      1  0.6688830000000  0.4022260000000  0.3042760000000 1.0
C      1  0.4791910000000  0.5412600000000  0.3791080000000 1.0
C      1  0.5208090000000  0.5412570000000  0.6208930000000 1.0
C      1  0.4791910000000  0.4587400000000  0.6208920000000 1.0
C      1  0.5208080000000  0.4587420000000  0.3791070000000 1.0
C      1  0.5397950000000  0.4155700000000  0.4692440000000 1.0
C      1  0.4602040000000  0.4155690000000  0.5307540000000 1.0
C      1  0.5397960000000  0.5844300000000  0.5307560000000 1.0
C      1  0.4602050000000  0.5844310000000  0.4692460000000 1.0
C      1  0.4679580000000  0.2741730000000  0.3603790000000 1.0
C      1  0.5320390000000  0.2741710000000  0.6396170000000 1.0
C      1  0.4679610000000  0.7258270000000  0.6396210000000 1.0
C      1  0.5320410000000  0.7258290000000  0.3603830000000 1.0
C      1  0.6413120000000  0.5067310000000  0.2689390000000 1.0
C      1  0.3586880000000  0.5067280000000  0.7310610000000 1.0
C      1  0.6413130000000  0.4932680000000  0.7310610000000 1.0
C      1  0.3586870000000  0.4932730000000  0.2689390000000 1.0
C      1  0.6189580000000  0.3404280000000  0.6536430000000 1.0
C      1  0.3810410000000  0.3404320000000  0.3463540000000 1.0
C      1  0.6189590000000  0.6595700000000  0.3463560000000 1.0
C      1  0.3810430000000  0.6595690000000  0.6536460000000 1.0
C      1  0.4078750000000  0.3224550000000  0.5314840000000 1.0
C      1  0.5921230000000  0.3224540000000  0.4685130000000 1.0
C      1  0.4078760000000  0.6775460000000  0.4685170000000 1.0
C      1  0.5921250000000  0.6775450000000  0.5314860000000 1.0
C      1  0.4413360000000  0.2719040000000  0.6236740000000 1.0
C      1  0.5586610000000  0.2719050000000  0.3763220000000 1.0
C      1  0.4413380000000  0.7280970000000  0.3763260000000 1.0
C      1  0.5586640000000  0.7280940000000  0.6236780000000 1.0
C      1  0.6601430000000  0.5753850000000  0.3335290000000 1.0
C      1  0.3398580000000  0.5753830000000  0.6664730000000 1.0
C      1  0.6601430000000  0.4246140000000  0.6664710000000 1.0
C      1  0.3398560000000  0.4246180000000  0.3335280000000 1.0
C      1  0.6031150000000  0.2895330000000  0.5599780000000 1.0
C      1  0.3968830000000  0.2895350000000  0.4400190000000 1.0
C      1  0.6031170000000  0.7104660000000  0.4400220000000 1.0
C      1  0.3968850000000  0.7104660000000  0.5599820000000 1.0
C      1  0.3598160000000  0.4436640000000  0.5048230000000 1.0
C      1  0.6401830000000  0.4436630000000  0.4951760000000 1.0
C      1  0.3598170000000  0.5563370000000  0.4951770000000 1.0
C      1  0.6401840000000  0.5563360000000  0.5048240000000 1.0
C      1  0.7029400000000  0.4228430000000  0.4087870000000 1.0
C      1  0.2970600000000  0.4228430000000  0.5912120000000 1.0
C      1  0.7029410000000  0.5771550000000  0.5912120000000 1.0
C      1  0.2970600000000  0.5771590000000  0.4087890000000 1.0
END
