TITL C-3036486-2224-918 -2.78883870378843e-06 3375 -332.192515734444 0 0 60 (C1) n - 1
REM
REM in /home/bkarasulu/work/CARBON/AIRSS/Generating-Clusters/REBO/Higher-Symm/Only-C60
REM
REM
REM
REM
REM
REM ./C.cell (a2850807a9bf4ad07a5b6933b78d9264)
REM AIRSS Version 0.9.1 bugfix July 2018 build 013d7b7c2542+ Fri, 06 Jul 2018 19:26:36 +0100
REM compiler GCC version 9.2.1 20190827 (Red Hat 9.2.1-1)
REM options -cpp -mtune=generic -march=x86-64 -g -O0 -fpre-include=/usr/include/finclude/math-vector-fortran.h
REM seed 1641580853 847338755 898779774 -434036681 -628170176 -854906005 1812029916 -352057027 657484983 992879880 -1535683501 -1644559643 1843294112 893389556 1851977599 103067249 -713253984 517601370 538154243 -250447014 876713912 501192924 218545436 707168824 -783642835 656428162 801374373 -1012123032 -1465099021 820011265 -1819185492 -219732370 -632799215
REM
CELL 1.54180   15.00000   15.00000   15.00000   90.00000   90.00000   90.00000
LATT -1
SFAC C  
C      1  0.3678100000000  0.4769060000000  0.5395080000000 1.0
C      1  0.6352580000000  0.4780720000000  0.5348330000000 1.0
C      1  0.3126400000000  0.4930690000000  0.3747870000000 1.0
C      1  0.6810900000000  0.4947430000000  0.3745260000000 1.0
C      1  0.4228040000000  0.5612130000000  0.4016860000000 1.0
C      1  0.5706680000000  0.5563770000000  0.4143280000000 1.0
C      1  0.5630460000000  0.2907480000000  0.5483300000000 1.0
C      1  0.4314250000000  0.2825630000000  0.5555200000000 1.0
C      1  0.3855100000000  0.6882470000000  0.4057490000000 1.0
C      1  0.5995040000000  0.6860090000000  0.4143240000000 1.0
C      1  0.2292320000000  0.4553410000000  0.5716810000000 1.0
C      1  0.7687490000000  0.4567880000000  0.5702490000000 1.0
C      1  0.5879530000000  0.3959410000000  0.5825310000000 1.0
C      1  0.3967640000000  0.3815920000000  0.5933730000000 1.0
C      1  0.3652910000000  0.4033550000000  0.3285330000000 1.0
C      1  0.6248780000000  0.4035460000000  0.3353110000000 1.0
C      1  0.3528230000000  0.4293840000000  0.6754350000000 1.0
C      1  0.6411440000000  0.4230040000000  0.6698140000000 1.0
C      1  0.3282120000000  0.5729870000000  0.5876010000000 1.0
C      1  0.6639980000000  0.5697680000000  0.5930470000000 1.0
C      1  0.4083010000000  0.7545010000000  0.5935330000000 1.0
C      1  0.5892460000000  0.7379530000000  0.5909960000000 1.0
C      1  0.4004450000000  0.4419020000000  0.7514780000000 1.0
C      1  0.6013690000000  0.4292810000000  0.7515210000000 1.0
C      1  0.5761050000000  0.3297030000000  0.3470020000000 1.0
C      1  0.4093900000000  0.3261560000000  0.3416010000000 1.0
C      1  0.5509070000000  0.5714710000000  0.5207810000000 1.0
C      1  0.4230020000000  0.5994890000000  0.4978460000000 1.0
C      1  0.7178280000000  0.4710210000000  0.4676970000000 1.0
C      1  0.2828310000000  0.4700980000000  0.4709670000000 1.0
C      1  0.4017580000000  0.5057680000000  0.3054770000000 1.0
C      1  0.5855360000000  0.5026240000000  0.3146490000000 1.0
C      1  0.2862080000000  0.4882800000000  0.6438560000000 1.0
C      1  0.7101840000000  0.4835740000000  0.6439360000000 1.0
C      1  0.6742540000000  0.6001650000000  0.4201190000000 1.0
C      1  0.3159410000000  0.5991530000000  0.4186940000000 1.0
C      1  0.8058580000000  0.5335690000000  0.5049400000000 1.0
C      1  0.1894480000000  0.5278610000000  0.5044890000000 1.0
C      1  0.7244530000000  0.5977000000000  0.5083830000000 1.0
C      1  0.2655860000000  0.5973850000000  0.5059670000000 1.0
C      1  0.5601760000000  0.6309670000000  0.3270710000000 1.0
C      1  0.4291690000000  0.6355950000000  0.3150380000000 1.0
C      1  0.5427550000000  0.6846530000000  0.5032590000000 1.0
C      1  0.4415250000000  0.7114450000000  0.4971850000000 1.0
C      1  0.5843580000000  0.6279330000000  0.6156020000000 1.0
C      1  0.4014620000000  0.6416240000000  0.6026050000000 1.0
C      1  0.4899190000000  0.4010920000000  0.5425280000000 1.0
C      1  0.4939050000000  0.7085580000000  0.3748300000000 1.0
C      1  0.4928460000000  0.2715420000000  0.4721760000000 1.0
C      1  0.4946270000000  0.6935440000000  0.6358780000000 1.0
C      1  0.4846040000000  0.4241460000000  0.4567550000000 1.0
C      1  0.4632790000000  0.5273730000000  0.5740120000000 1.0
C      1  0.5003910000000  0.3062630000000  0.6356150000000 1.0
C      1  0.4961490000000  0.5520620000000  0.2766380000000 1.0
C      1  0.4896680000000  0.4287150000000  0.3690970000000 1.0
C      1  0.4932980000000  0.4119520000000  0.2827610000000 1.0
C      1  0.4926960000000  0.2959980000000  0.3808110000000 1.0
C      1  0.4977950000000  0.3858650000000  0.6800780000000 1.0
C      1  0.5039540000000  0.4663990000000  0.7714450000000 1.0
C      1  0.4865520000000  0.4885540000000  0.6611790000000 1.0
END
