TITL C-3036481-494-734 -2.86251948625622e-06 3375 -333.628958837264 0 0 60 (C1) n - 1
REM
REM in /home/bkarasulu/work/CARBON/AIRSS/Generating-Clusters/REBO/Higher-Symm/Only-C60
REM
REM
REM
REM
REM
REM ./C.cell (a2850807a9bf4ad07a5b6933b78d9264)
REM AIRSS Version 0.9.1 bugfix July 2018 build 013d7b7c2542+ Fri, 06 Jul 2018 19:26:36 +0100
REM compiler GCC version 9.2.1 20190827 (Red Hat 9.2.1-1)
REM options -cpp -mtune=generic -march=x86-64 -g -O0 -fpre-include=/usr/include/finclude/math-vector-fortran.h
REM seed -2115173029 1431980296 2139226346 1352826366 -1679525947 -1508522006 -319950511 -1866994200 -1916787389 -656318276 1247518614 1930360933 -97376164 1818556290 177921586 -759800426 -428800209 1474697730 -457029373 -164920712 -1400600838 -775933222 -376761769 -114120114 1156974566 1418143096 394605847 -1620017103 1508461279 367381393 706248242 -1727915240 935572364
REM
CELL 1.54180   15.00000   15.00000   15.00000   90.00000   90.00000   90.00000
LATT -1
SFAC C  
C      1  0.2724760000000  0.4626820000000  0.5073870000000 1.0
C      1  0.6168350000000  0.4614150000000  0.6863870000000 1.0
C      1  0.6063650000000  0.4626850000000  0.3003130000000 1.0
C      1  0.4795970000000  0.4169530000000  0.4755220000000 1.0
C      1  0.4414650000000  0.4155970000000  0.5723030000000 1.0
C      1  0.5840130000000  0.4106000000000  0.4997120000000 1.0
C      1  0.5881390000000  0.5066880000000  0.5530870000000 1.0
C      1  0.5064060000000  0.4970420000000  0.4083320000000 1.0
C      1  0.3957450000000  0.5099210000000  0.5518420000000 1.0
C      1  0.5965570000000  0.7234320000000  0.4740240000000 1.0
C      1  0.4323040000000  0.7197250000000  0.4284140000000 1.0
C      1  0.4748620000000  0.7237240000000  0.5944010000000 1.0
C      1  0.7142120000000  0.5927710000000  0.5383770000000 1.0
C      1  0.4241870000000  0.5914760000000  0.3049590000000 1.0
C      1  0.3546100000000  0.5887240000000  0.6625090000000 1.0
C      1  0.3620880000000  0.6409910000000  0.4695550000000 1.0
C      1  0.5426050000000  0.6436590000000  0.6380140000000 1.0
C      1  0.6000470000000  0.6450520000000  0.3916100000000 1.0
C      1  0.6215300000000  0.3161200000000  0.4506890000000 1.0
C      1  0.4216600000000  0.3438950000000  0.4264990000000 1.0
C      1  0.4785950000000  0.3272380000000  0.6274270000000 1.0
C      1  0.7363320000000  0.5438950000000  0.4536860000000 1.0
C      1  0.3364980000000  0.5484240000000  0.3066500000000 1.0
C      1  0.4150840000000  0.5351310000000  0.7202360000000 1.0
C      1  0.3695490000000  0.3513620000000  0.6318180000000 1.0
C      1  0.6703440000000  0.3492420000000  0.5422040000000 1.0
C      1  0.4498450000000  0.3530520000000  0.3288630000000 1.0
C      1  0.7095240000000  0.5975820000000  0.6286580000000 1.0
C      1  0.5011210000000  0.5977760000000  0.2569920000000 1.0
C      1  0.2789280000000  0.5979440000000  0.6144700000000 1.0
C      1  0.4411080000000  0.5870870000000  0.4074360000000 1.0
C      1  0.4457200000000  0.5942400000000  0.6047360000000 1.0
C      1  0.6185540000000  0.5933540000000  0.4913610000000 1.0
C      1  0.5767210000000  0.7204330000000  0.5633020000000 1.0
C      1  0.5192120000000  0.7212890000000  0.4007260000000 1.0
C      1  0.4076460000000  0.7209120000000  0.5324210000000 1.0
C      1  0.6201010000000  0.5745320000000  0.6765660000000 1.0
C      1  0.5915370000000  0.5755200000000  0.3030580000000 1.0
C      1  0.2828910000000  0.5756500000000  0.5136020000000 1.0
C      1  0.5517540000000  0.3662830000000  0.6927480000000 1.0
C      1  0.6413940000000  0.3706810000000  0.3622300000000 1.0
C      1  0.3254400000000  0.3802570000000  0.4460600000000 1.0
C      1  0.6744770000000  0.4509340000000  0.5886180000000 1.0
C      1  0.4931720000000  0.4536680000000  0.3119940000000 1.0
C      1  0.3196070000000  0.4513340000000  0.6107390000000 1.0
C      1  0.3195770000000  0.4570710000000  0.3725540000000 1.0
C      1  0.4855860000000  0.4474300000000  0.7032410000000 1.0
C      1  0.6945810000000  0.4528390000000  0.3994210000000 1.0
C      1  0.4518960000000  0.2562380000000  0.4662860000000 1.0
C      1  0.4997780000000  0.2532910000000  0.5626590000000 1.0
C      1  0.5575650000000  0.2417100000000  0.4713680000000 1.0
C      1  0.5563460000000  0.3605700000000  0.2918660000000 1.0
C      1  0.2913920000000  0.3584280000000  0.5499890000000 1.0
C      1  0.6543570000000  0.3585270000000  0.6527900000000 1.0
C      1  0.5158690000000  0.5153440000000  0.6187260000000 1.0
C      1  0.6032340000000  0.5162490000000  0.4214590000000 1.0
C      1  0.3814130000000  0.5114880000000  0.4516110000000 1.0
C      1  0.2817450000000  0.5562070000000  0.4058460000000 1.0
C      1  0.5271740000000  0.5492490000000  0.7306140000000 1.0
C      1  0.6886310000000  0.5543860000000  0.3510310000000 1.0
END
