TITL C-3036482-790-334 0.0384875894445771 3375 -317.394513539403 0 0 60 (C1) n - 1
REM
REM in /home/bkarasulu/work/CARBON/AIRSS/Generating-Clusters/REBO/Higher-Symm/Only-C60
REM
REM
REM
REM
REM
REM ./C.cell (a2850807a9bf4ad07a5b6933b78d9264)
REM AIRSS Version 0.9.1 bugfix July 2018 build 013d7b7c2542+ Fri, 06 Jul 2018 19:26:36 +0100
REM compiler GCC version 9.2.1 20190827 (Red Hat 9.2.1-1)
REM options -cpp -mtune=generic -march=x86-64 -g -O0 -fpre-include=/usr/include/finclude/math-vector-fortran.h
REM seed -430061053 -1700092799 -1000000652 554214254 -1300678783 -797861180 -153956976 -1587004574 -620109718 752449935 335553071 1683011619 -330801898 -344007016 1325226162 1080290112 -1903865441 -171525063 -234517891 2083106533 1064281786 -838813080 1459407000 1263796970 1508486698 69885307 -635723117 -1499309238 2021300344 1841657551 497907825 1933150472 -1748520861
REM
CELL 1.54180   15.00000   15.00000   15.00000   90.00000   90.00000   90.00000
LATT -1
SFAC C  
C      1  0.6559310000000  0.4221050000000  0.3320830000000 1.0
C      1  0.6533230000000  0.6477180000000  0.3502880000000 1.0
C      1  0.4167540000000  0.6801420000000  0.3242860000000 1.0
C      1  0.3457910000000  0.4482420000000  0.3611090000000 1.0
C      1  0.4480110000000  0.2909960000000  0.3583160000000 1.0
C      1  0.2592940000000  0.3766400000000  0.3772670000000 1.0
C      1  0.5381400000000  0.3133000000000  0.3654350000000 1.0
C      1  0.7200460000000  0.4883000000000  0.3611260000000 1.0
C      1  0.5879570000000  0.7109290000000  0.3734470000000 1.0
C      1  0.3475080000000  0.6212330000000  0.3426530000000 1.0
C      1  0.3882310000000  0.3474720000000  0.3885650000000 1.0
C      1  0.5539960000000  0.4186510000000  0.3598400000000 1.0
C      1  0.6269280000000  0.5480100000000  0.3640010000000 1.0
C      1  0.5077100000000  0.6443270000000  0.3548200000000 1.0
C      1  0.4015790000000  0.5305110000000  0.3648670000000 1.0
C      1  0.6946790000000  0.4400940000000  0.6314520000000 1.0
C      1  0.6185710000000  0.6637410000000  0.6320950000000 1.0
C      1  0.3812980000000  0.6542180000000  0.6219660000000 1.0
C      1  0.3195440000000  0.4337430000000  0.6357930000000 1.0
C      1  0.5004460000000  0.2997340000000  0.6231030000000 1.0
C      1  0.4362430000000  0.7222720000000  0.6742820000000 1.0
C      1  0.2669920000000  0.5177460000000  0.6629630000000 1.0
C      1  0.4123120000000  0.2776770000000  0.6685150000000 1.0
C      1  0.6797210000000  0.3472040000000  0.6715100000000 1.0
C      1  0.7003750000000  0.6227830000000  0.6770040000000 1.0
C      1  0.6540100000000  0.4250200000000  0.5282310000000 1.0
C      1  0.6271980000000  0.6204150000000  0.5294530000000 1.0
C      1  0.4342480000000  0.6381700000000  0.5245140000000 1.0
C      1  0.3271140000000  0.4851410000000  0.5348230000000 1.0
C      1  0.4534970000000  0.3497180000000  0.5318710000000 1.0
C      1  0.5770160000000  0.7548380000000  0.4526440000000 1.0
C      1  0.2767830000000  0.6287290000000  0.4018630000000 1.0
C      1  0.2679790000000  0.3160690000000  0.4363070000000 1.0
C      1  0.5903890000000  0.2747540000000  0.4300860000000 1.0
C      1  0.7715800000000  0.5116750000000  0.4335460000000 1.0
C      1  0.3500110000000  0.3381960000000  0.6181660000000 1.0
C      1  0.6012980000000  0.3047230000000  0.6230770000000 1.0
C      1  0.7223560000000  0.5388100000000  0.6249850000000 1.0
C      1  0.5313520000000  0.7183580000000  0.6382000000000 1.0
C      1  0.3005340000000  0.5932910000000  0.6073030000000 1.0
C      1  0.5826350000000  0.4197590000000  0.6169050000000 1.0
C      1  0.6058150000000  0.5508340000000  0.6174100000000 1.0
C      1  0.4882490000000  0.6125010000000  0.6201150000000 1.0
C      1  0.3929610000000  0.5200600000000  0.6204440000000 1.0
C      1  0.4486010000000  0.4007320000000  0.6324150000000 1.0
C      1  0.7229290000000  0.5615170000000  0.5183340000000 1.0
C      1  0.5232170000000  0.7031520000000  0.5289710000000 1.0
C      1  0.2803530000000  0.5785380000000  0.4989430000000 1.0
C      1  0.3471350000000  0.3160600000000  0.5118070000000 1.0
C      1  0.6032620000000  0.3313430000000  0.5181540000000 1.0
C      1  0.5242560000000  0.3965840000000  0.4683320000000 1.0
C      1  0.6429780000000  0.5040280000000  0.4678370000000 1.0
C      1  0.5468610000000  0.6165170000000  0.4577020000000 1.0
C      1  0.3851920000000  0.5807840000000  0.4628300000000 1.0
C      1  0.3473950000000  0.4180180000000  0.4680910000000 1.0
C      1  0.5047170000000  0.5006890000000  0.6411950000000 1.0
C      1  0.5091800000000  0.5048010000000  0.7520350000000 1.0
C      1  0.5342040000000  0.5071510000000  0.4567290000000 1.0
C      1  0.5123670000000  0.5198070000000  0.2343220000000 1.0
C      1  0.5136940000000  0.5282250000000  0.3433600000000 1.0
END
