TITL C-3036480-97-209 -2.65264224204015e-06 3375 -333.257500207773 0 0 60 (C1) n - 1
REM
REM in /home/bkarasulu/work/CARBON/AIRSS/Generating-Clusters/REBO/Higher-Symm/Only-C60
REM
REM
REM
REM
REM
REM ./C.cell (a2850807a9bf4ad07a5b6933b78d9264)
REM AIRSS Version 0.9.1 bugfix July 2018 build 013d7b7c2542+ Fri, 06 Jul 2018 19:26:36 +0100
REM compiler GCC version 9.2.1 20190827 (Red Hat 9.2.1-1)
REM options -cpp -mtune=generic -march=x86-64 -g -O0 -fpre-include=/usr/include/finclude/math-vector-fortran.h
REM seed 1171253718 785082568 1453250669 981964364 -1614732651 -537386411 176786044 -194498730 731885842 621097681 841334403 -328841559 -215777177 -461095215 -329552113 -1116057013 -1101489588 -1361154293 -1664004666 -106525064 -65041426 -604209131 637610423 862795283 -397239662 636359209 308350674 864934708 1321047996 1618766373 -462916563 1718040151 -469399992
REM
CELL 1.54180   15.00000   15.00000   15.00000   90.00000   90.00000   90.00000
LATT -1
SFAC C  
C      1  0.5092160000000  0.6911330000000  0.4289470000000 1.0
C      1  0.5012400000000  0.4182500000000  0.3872390000000 1.0
C      1  0.3964330000000  0.7258370000000  0.5471000000000 1.0
C      1  0.5624390000000  0.6268090000000  0.6989470000000 1.0
C      1  0.6254910000000  0.4693170000000  0.2620590000000 1.0
C      1  0.2786360000000  0.4302930000000  0.6026250000000 1.0
C      1  0.3467800000000  0.3383800000000  0.4443460000000 1.0
C      1  0.7754740000000  0.4584950000000  0.5520540000000 1.0
C      1  0.2502530000000  0.4937690000000  0.4807140000000 1.0
C      1  0.2926570000000  0.5170760000000  0.6524050000000 1.0
C      1  0.6676330000000  0.5545380000000  0.2453130000000 1.0
C      1  0.2872010000000  0.5793100000000  0.5078630000000 1.0
C      1  0.4523440000000  0.5511450000000  0.3457690000000 1.0
C      1  0.5755940000000  0.3400630000000  0.4308060000000 1.0
C      1  0.6445800000000  0.3870980000000  0.6272610000000 1.0
C      1  0.3833840000000  0.3685060000000  0.6568870000000 1.0
C      1  0.4375410000000  0.4288850000000  0.4788360000000 1.0
C      1  0.5381740000000  0.5328730000000  0.5244900000000 1.0
C      1  0.5824870000000  0.7200640000000  0.3526890000000 1.0
C      1  0.5462570000000  0.6869230000000  0.6022550000000 1.0
C      1  0.5020590000000  0.7353830000000  0.5205950000000 1.0
C      1  0.7610160000000  0.5600490000000  0.5198430000000 1.0
C      1  0.4566560000000  0.5664990000000  0.5084070000000 1.0
C      1  0.3124110000000  0.4348340000000  0.4342180000000 1.0
C      1  0.5582430000000  0.5192520000000  0.6131690000000 1.0
C      1  0.3705870000000  0.5986920000000  0.4540750000000 1.0
C      1  0.3492630000000  0.4608250000000  0.7114540000000 1.0
C      1  0.4054370000000  0.6398860000000  0.2973910000000 1.0
C      1  0.4889140000000  0.5431650000000  0.6895090000000 1.0
C      1  0.7065250000000  0.3825810000000  0.5530760000000 1.0
C      1  0.4578880000000  0.6437440000000  0.6602780000000 1.0
C      1  0.3744260000000  0.6626050000000  0.6117580000000 1.0
C      1  0.5825190000000  0.3613150000000  0.3000300000000 1.0
C      1  0.5988920000000  0.5227370000000  0.4379320000000 1.0
C      1  0.3924710000000  0.5016990000000  0.4115760000000 1.0
C      1  0.4965570000000  0.3108880000000  0.3554360000000 1.0
C      1  0.6669720000000  0.3783010000000  0.4541840000000 1.0
C      1  0.5356680000000  0.5659900000000  0.2439970000000 1.0
C      1  0.3751640000000  0.1971140000000  0.3570420000000 1.0
C      1  0.5603520000000  0.3372050000000  0.6458890000000 1.0
C      1  0.4157240000000  0.2663540000000  0.4058050000000 1.0
C      1  0.6405450000000  0.4794880000000  0.6561810000000 1.0
C      1  0.4116070000000  0.6687340000000  0.3931570000000 1.0
C      1  0.6561110000000  0.5781210000000  0.6810700000000 1.0
C      1  0.4891840000000  0.3778600000000  0.6931940000000 1.0
C      1  0.4925830000000  0.3387070000000  0.4932250000000 1.0
C      1  0.6309240000000  0.4404070000000  0.3660010000000 1.0
C      1  0.7239250000000  0.6414750000000  0.5450890000000 1.0
C      1  0.5312030000000  0.8334050000000  0.5167190000000 1.0
C      1  0.6961020000000  0.4867350000000  0.4710550000000 1.0
C      1  0.6099070000000  0.6344160000000  0.2929160000000 1.0
C      1  0.5253340000000  0.2809560000000  0.5785270000000 1.0
C      1  0.4472090000000  0.4637660000000  0.7238080000000 1.0
C      1  0.5480980000000  0.5952980000000  0.3805590000000 1.0
C      1  0.4536580000000  0.2351530000000  0.5072090000000 1.0
C      1  0.2793190000000  0.3297580000000  0.6327700000000 1.0
C      1  0.6522180000000  0.6485060000000  0.6047280000000 1.0
C      1  0.3062700000000  0.5960110000000  0.6000820000000 1.0
C      1  0.5199750000000  0.4786180000000  0.3031480000000 1.0
C      1  0.3642720000000  0.3847000000000  0.5462960000000 1.0
END
