TITL C-3036481-494-544 4.26408085927827e-05 3375 -343.338467332548 0 0 60 (C3) n - 1
REM
REM in /home/bkarasulu/work/CARBON/AIRSS/Generating-Clusters/REBO/Higher-Symm/Only-C60
REM
REM
REM
REM
REM
REM ./C.cell (a2850807a9bf4ad07a5b6933b78d9264)
REM AIRSS Version 0.9.1 bugfix July 2018 build 013d7b7c2542+ Fri, 06 Jul 2018 19:26:36 +0100
REM compiler GCC version 9.2.1 20190827 (Red Hat 9.2.1-1)
REM options -cpp -mtune=generic -march=x86-64 -g -O0 -fpre-include=/usr/include/finclude/math-vector-fortran.h
REM seed -1026968179 -3527009 556242443 -457743745 -1687531588 1800508942 -2005444848 -198755907 -1562040293 2095962515 -1797464504 -447030827 -1422076825 1589468630 -2110093091 -1923570307 -2033233703 613753829 -705837540 1140058042 -248439430 1577053727 -1541292139 1381917219 -1279521578 -1730822767 -1974611924 -2123323923 -1236214154 712648660 857787687 -2070344235 -1513453919
REM
CELL 1.54180   15.00000   15.00000   15.00000   90.00000   90.00000   90.00000
LATT -1
SFAC C  
C      1  0.5534380000000  0.2794760000000  0.4467770000000 1.0
C      1  0.2823180000000  0.5639970000000  0.4467670000000 1.0
C      1  0.6642420000000  0.6565240000000  0.4467720000000 1.0
C      1  0.2705500000000  0.5285170000000  0.5541540000000 1.0
C      1  0.6394100000000  0.6844810000000  0.5541550000000 1.0
C      1  0.5900540000000  0.2870340000000  0.5541620000000 1.0
C      1  0.4382170000000  0.4782180000000  0.5712980000000 1.0
C      1  0.5120420000000  0.5643530000000  0.5713000000000 1.0
C      1  0.5497310000000  0.4573530000000  0.5712870000000 1.0
C      1  0.4741120000000  0.5608020000000  0.7071340000000 1.0
C      1  0.5655940000000  0.4920570000000  0.7071280000000 1.0
C      1  0.4603210000000  0.4472030000000  0.7071290000000 1.0
C      1  0.4832820000000  0.6872270000000  0.2907230000000 1.0
C      1  0.6704820000000  0.4208590000000  0.2907100000000 1.0
C      1  0.3462090000000  0.3919090000000  0.2907150000000 1.0
C      1  0.3029880000000  0.3708500000000  0.4853530000000 1.0
C      1  0.4866400000000  0.7351670000000  0.4853580000000 1.0
C      1  0.7103450000000  0.3939730000000  0.4853520000000 1.0
C      1  0.4100310000000  0.3812180000000  0.4486740000000 1.0
C      1  0.4421280000000  0.6372670000000  0.4486800000000 1.0
C      1  0.6478260000000  0.4814760000000  0.4486710000000 1.0
C      1  0.3177750000000  0.5859140000000  0.6158520000000 1.0
C      1  0.6655100000000  0.6148880000000  0.6158570000000 1.0
C      1  0.5167360000000  0.2992370000000  0.6158610000000 1.0
C      1  0.7069060000000  0.5458630000000  0.5675250000000 1.0
C      1  0.4362610000000  0.2978740000000  0.5675300000000 1.0
C      1  0.3568710000000  0.6562620000000  0.5675130000000 1.0
C      1  0.5472710000000  0.7193290000000  0.5798470000000 1.0
C      1  0.6662870000000  0.3494140000000  0.5798430000000 1.0
C      1  0.2864500000000  0.4313080000000  0.5798340000000 1.0
C      1  0.5159930000000  0.6568950000000  0.6708770000000 1.0
C      1  0.6278550000000  0.4077530000000  0.6708500000000 1.0
C      1  0.3561970000000  0.4354280000000  0.6708340000000 1.0
C      1  0.3160280000000  0.6608340000000  0.4848900000000 1.0
C      1  0.7312570000000  0.5789230000000  0.4848860000000 1.0
C      1  0.4527210000000  0.2602480000000  0.4848950000000 1.0
C      1  0.6000080000000  0.5914360000000  0.6798290000000 1.0
C      1  0.5291690000000  0.3677130000000  0.6798110000000 1.0
C      1  0.3708460000000  0.5409140000000  0.6798130000000 1.0
C      1  0.5664210000000  0.6796510000000  0.2972910000000 1.0
C      1  0.6223540000000  0.3526460000000  0.2972840000000 1.0
C      1  0.3112010000000  0.4676980000000  0.2972890000000 1.0
C      1  0.4536960000000  0.6565200000000  0.5800340000000 1.0
C      1  0.6587570000000  0.4618670000000  0.5800260000000 1.0
C      1  0.3875800000000  0.3815580000000  0.5800290000000 1.0
C      1  0.4992210000000  0.3902290000000  0.4950410000000 1.0
C      1  0.4053320000000  0.5555200000000  0.4950510000000 1.0
C      1  0.5954320000000  0.5542010000000  0.4950540000000 1.0
C      1  0.5367200000000  0.3341270000000  0.3538740000000 1.0
C      1  0.3379890000000  0.5511260000000  0.3538660000000 1.0
C      1  0.6252640000000  0.6147340000000  0.3538720000000 1.0
C      1  0.4253950000000  0.3564620000000  0.3454620000000 1.0
C      1  0.4130010000000  0.6363610000000  0.3454670000000 1.0
C      1  0.6615840000000  0.5071580000000  0.3454580000000 1.0
C      1  0.4476100000000  0.5338530000000  0.3650900000000 1.0
C      1  0.5555050000000  0.5284250000000  0.3650980000000 1.0
C      1  0.4968550000000  0.4376950000000  0.3651060000000 1.0
C      1  0.3460240000000  0.4715950000000  0.4603120000000 1.0
C      1  0.5523820000000  0.6475240000000  0.4603310000000 1.0
C      1  0.6015740000000  0.3808600000000  0.4603190000000 1.0
END
