TITL C-3036484-3770-342 -1.15916550695193e-05 3375 -326.134668362187 0 0 60 (D2) n - 1
REM
REM in /home/bkarasulu/work/CARBON/AIRSS/Generating-Clusters/REBO/Higher-Symm/Only-C60
REM
REM
REM
REM
REM
REM ./C.cell (a2850807a9bf4ad07a5b6933b78d9264)
REM AIRSS Version 0.9.1 bugfix July 2018 build 013d7b7c2542+ Fri, 06 Jul 2018 19:26:36 +0100
REM compiler GCC version 9.2.1 20190827 (Red Hat 9.2.1-1)
REM options -cpp -mtune=generic -march=x86-64 -g -O0 -fpre-include=/usr/include/finclude/math-vector-fortran.h
REM seed 589662512 -1122266113 1317783442 -1460529806 -1584090063 1413558465 -175050502 -865747727 1051156569 1775263013 -1219646456 1353922790 -919916128 1228395270 1298457415 691722270 792940978 -1475360851 960282228 -1411569629 -505450971 -9557609 -602864206 1760716124 -1544600416 487935157 -1677513676 -162161460 1566176357 -81879258 -791122202 1039055366 1969218696
REM
CELL 1.54180   15.00000   15.00000   15.00000   90.00000   90.00000   90.00000
LATT -1
SFAC C  
C      1  0.6998040000000  0.6359730000000  0.5989920000000 1.0
C      1  0.3001960000000  0.3640270000000  0.5989920000000 1.0
C      1  0.3001960000000  0.6359730000000  0.4010080000000 1.0
C      1  0.6998040000000  0.3640270000000  0.4010080000000 1.0
C      1  0.6393680000000  0.6914280000000  0.5974670000000 1.0
C      1  0.3606320000000  0.3085720000000  0.5974660000000 1.0
C      1  0.6393680000000  0.3085720000000  0.4025330000000 1.0
C      1  0.3606320000000  0.6914280000000  0.4025340000000 1.0
C      1  0.4982520000000  0.4335660000000  0.6554000000000 1.0
C      1  0.5017480000000  0.5664340000000  0.6554000000000 1.0
C      1  0.5017480000000  0.4335660000000  0.3446000000000 1.0
C      1  0.4982520000000  0.5664340000000  0.3446000000000 1.0
C      1  0.4185390000000  0.5019050000000  0.6575120000000 1.0
C      1  0.5814610000000  0.4980950000000  0.6575120000000 1.0
C      1  0.4185390000000  0.4980950000000  0.3424880000000 1.0
C      1  0.5814610000000  0.5019050000000  0.3424880000000 1.0
C      1  0.5461950000000  0.2449700000000  0.4075520000000 1.0
C      1  0.4538050000000  0.7550300000000  0.4075520000000 1.0
C      1  0.4538050000000  0.2449700000000  0.5924480000000 1.0
C      1  0.5461950000000  0.7550300000000  0.5924480000000 1.0
C      1  0.2334260000000  0.5445520000000  0.4068480000000 1.0
C      1  0.7665740000000  0.4554480000000  0.4068480000000 1.0
C      1  0.2334260000000  0.4554480000000  0.5931520000000 1.0
C      1  0.7665740000000  0.5445520000000  0.5931520000000 1.0
C      1  0.4719600000000  0.6737310000000  0.3316930000000 1.0
C      1  0.5280400000000  0.3262690000000  0.3316930000000 1.0
C      1  0.5280400000000  0.6737310000000  0.6683070000000 1.0
C      1  0.4719600000000  0.3262690000000  0.6683070000000 1.0
C      1  0.6871010000000  0.4763290000000  0.3313460000000 1.0
C      1  0.3128990000000  0.5236710000000  0.3313460000000 1.0
C      1  0.6871010000000  0.5236710000000  0.6686540000000 1.0
C      1  0.3128990000000  0.4763290000000  0.6686540000000 1.0
C      1  0.5630910000000  0.7385230000000  0.4357610000000 1.0
C      1  0.4369090000000  0.2614770000000  0.4357610000000 1.0
C      1  0.4369090000000  0.7385230000000  0.5642390000000 1.0
C      1  0.5630910000000  0.2614770000000  0.5642390000000 1.0
C      1  0.7488090000000  0.5642860000000  0.4370980000000 1.0
C      1  0.2511910000000  0.4357140000000  0.4370980000000 1.0
C      1  0.7488090000000  0.4357140000000  0.5629020000000 1.0
C      1  0.2511910000000  0.5642860000000  0.5629020000000 1.0
C      1  0.5122970000000  0.6293230000000  0.5651290000000 1.0
C      1  0.4877030000000  0.3706770000000  0.5651290000000 1.0
C      1  0.4877030000000  0.6293230000000  0.4348710000000 1.0
C      1  0.5122970000000  0.3706770000000  0.4348710000000 1.0
C      1  0.6406140000000  0.5120400000000  0.5653660000000 1.0
C      1  0.3593860000000  0.4879600000000  0.5653660000000 1.0
C      1  0.6406140000000  0.4879600000000  0.4346340000000 1.0
C      1  0.3593860000000  0.5120400000000  0.4346340000000 1.0
C      1  0.3454650000000  0.4173440000000  0.4856210000000 1.0
C      1  0.6545350000000  0.5826560000000  0.4856210000000 1.0
C      1  0.6545350000000  0.4173440000000  0.5143790000000 1.0
C      1  0.3454650000000  0.5826560000000  0.5143790000000 1.0
C      1  0.4165830000000  0.3534750000000  0.4851030000000 1.0
C      1  0.5834170000000  0.6465250000000  0.4851030000000 1.0
C      1  0.4165830000000  0.6465250000000  0.5148970000000 1.0
C      1  0.5834170000000  0.3534750000000  0.5148970000000 1.0
C      1  0.5000000000000  0.1974430000000  0.5000000000000 1.0
C      1  0.1862780000000  0.5000000000000  0.5000000000000 1.0
C      1  0.5000000000000  0.8025570000000  0.5000000000000 1.0
C      1  0.8137220000000  0.5000000000000  0.5000000000000 1.0
END
