TITL C-3036482-790-245 -1.18971400503192e-06 3375 -328.898531508993 0 0 60 (C1) n - 1
REM
REM in /home/bkarasulu/work/CARBON/AIRSS/Generating-Clusters/REBO/Higher-Symm/Only-C60
REM
REM
REM
REM
REM
REM ./C.cell (a2850807a9bf4ad07a5b6933b78d9264)
REM AIRSS Version 0.9.1 bugfix July 2018 build 013d7b7c2542+ Fri, 06 Jul 2018 19:26:36 +0100
REM compiler GCC version 9.2.1 20190827 (Red Hat 9.2.1-1)
REM options -cpp -mtune=generic -march=x86-64 -g -O0 -fpre-include=/usr/include/finclude/math-vector-fortran.h
REM seed 787819441 -201298528 875393710 -1412902548 -1730797655 273071579 361956368 -493278532 397719523 -301450424 1646389469 912898350 -1017642823 -253621590 -1254355807 395718015 480134629 1851048340 1442681626 -2051691579 663521989 -1989354936 1731478632 -1573958678 513927268 -1647624950 1684794717 2100991564 -1339586003 720154945 -2002364351 764939896 -475967152
REM
CELL 1.54180   15.00000   15.00000   15.00000   90.00000   90.00000   90.00000
LATT -1
SFAC C  
C      1  0.5712390000000  0.3747370000000  0.6684890000000 1.0
C      1  0.4201110000000  0.6523300000000  0.6681170000000 1.0
C      1  0.4340100000000  0.3472280000000  0.3426650000000 1.0
C      1  0.5793840000000  0.6668580000000  0.3363770000000 1.0
C      1  0.3545050000000  0.5771050000000  0.6739080000000 1.0
C      1  0.6510250000000  0.4338750000000  0.6568990000000 1.0
C      1  0.3804040000000  0.4318720000000  0.3414870000000 1.0
C      1  0.6327720000000  0.5816580000000  0.3275750000000 1.0
C      1  0.3191390000000  0.4011500000000  0.5592430000000 1.0
C      1  0.6904880000000  0.5902530000000  0.5449640000000 1.0
C      1  0.6599150000000  0.3927790000000  0.4411610000000 1.0
C      1  0.3131660000000  0.6026950000000  0.4516690000000 1.0
C      1  0.3883560000000  0.3113090000000  0.5589500000000 1.0
C      1  0.5991360000000  0.6554380000000  0.5517610000000 1.0
C      1  0.4020250000000  0.6729500000000  0.4457530000000 1.0
C      1  0.5907680000000  0.3039970000000  0.4518370000000 1.0
C      1  0.5743190000000  0.5027340000000  0.7044680000000 1.0
C      1  0.3966410000000  0.4970200000000  0.7362310000000 1.0
C      1  0.4437900000000  0.5161570000000  0.2999370000000 1.0
C      1  0.5736860000000  0.5060740000000  0.2731450000000 1.0
C      1  0.4810290000000  0.5674650000000  0.7144030000000 1.0
C      1  0.4839250000000  0.4343360000000  0.7077510000000 1.0
C      1  0.5032850000000  0.4196760000000  0.2923470000000 1.0
C      1  0.5137430000000  0.6007750000000  0.2714500000000 1.0
C      1  0.6161460000000  0.2571000000000  0.5447240000000 1.0
C      1  0.3784660000000  0.7409720000000  0.5268960000000 1.0
C      1  0.3801870000000  0.2527720000000  0.4712790000000 1.0
C      1  0.6223920000000  0.7371150000000  0.4847010000000 1.0
C      1  0.2591920000000  0.6207800000000  0.5409380000000 1.0
C      1  0.7303570000000  0.3722630000000  0.5214510000000 1.0
C      1  0.2747560000000  0.3758410000000  0.4634730000000 1.0
C      1  0.7432450000000  0.6149450000000  0.4555190000000 1.0
C      1  0.5689480000000  0.5042880000000  0.4491710000000 1.0
C      1  0.4366660000000  0.4883820000000  0.4483370000000 1.0
C      1  0.4152670000000  0.4933850000000  0.5596160000000 1.0
C      1  0.5896230000000  0.5053310000000  0.5606970000000 1.0
C      1  0.4992850000000  0.5834270000000  0.4312810000000 1.0
C      1  0.5101480000000  0.4079760000000  0.4336440000000 1.0
C      1  0.5102740000000  0.4314910000000  0.5431560000000 1.0
C      1  0.4940560000000  0.5643480000000  0.5407930000000 1.0
C      1  0.6114190000000  0.4545310000000  0.3610510000000 1.0
C      1  0.3785800000000  0.5578700000000  0.3831880000000 1.0
C      1  0.3664590000000  0.4475710000000  0.6467840000000 1.0
C      1  0.6431740000000  0.5649410000000  0.6386370000000 1.0
C      1  0.4505640000000  0.6385080000000  0.3516040000000 1.0
C      1  0.5659060000000  0.3504800000000  0.3574050000000 1.0
C      1  0.4496280000000  0.3783590000000  0.6151900000000 1.0
C      1  0.5387710000000  0.6065970000000  0.6303520000000 1.0
C      1  0.4485320000000  0.2880800000000  0.4109730000000 1.0
C      1  0.5598200000000  0.7172130000000  0.4108890000000 1.0
C      1  0.5594320000000  0.3035980000000  0.6099770000000 1.0
C      1  0.4376360000000  0.7105840000000  0.5996380000000 1.0
C      1  0.3123640000000  0.4441190000000  0.4034840000000 1.0
C      1  0.6984930000000  0.5585350000000  0.3883750000000 1.0
C      1  0.2960370000000  0.5555240000000  0.6040950000000 1.0
C      1  0.7081030000000  0.4440370000000  0.5857060000000 1.0
C      1  0.6963760000000  0.4939310000000  0.4825060000000 1.0
C      1  0.2981990000000  0.5000170000000  0.5027670000000 1.0
C      1  0.4996200000000  0.6923530000000  0.5055390000000 1.0
C      1  0.4950150000000  0.3022610000000  0.5155770000000 1.0
END
