TITL C-3036482-790-973 0.00078740358800397 3375 -340.99285648288 0 0 60 (C1) n - 1
REM
REM in /home/bkarasulu/work/CARBON/AIRSS/Generating-Clusters/REBO/Higher-Symm/Only-C60
REM
REM
REM
REM
REM
REM ./C.cell (a2850807a9bf4ad07a5b6933b78d9264)
REM AIRSS Version 0.9.1 bugfix July 2018 build 013d7b7c2542+ Fri, 06 Jul 2018 19:26:36 +0100
REM compiler GCC version 9.2.1 20190827 (Red Hat 9.2.1-1)
REM options -cpp -mtune=generic -march=x86-64 -g -O0 -fpre-include=/usr/include/finclude/math-vector-fortran.h
REM seed -86788912 -1601039563 -766748380 -1344105351 865943382 1079410503 511964719 1459336380 -1003887398 -1573690269 -2016611079 944948200 -4723000 822991915 1435729812 -1562068709 -1526888509 1888357499 635091548 176401588 492382651 -1910250061 1943907765 435530831 1101881803 -367752982 380382889 -1180850401 -84190323 -24562499 -1715689666 616071054 834991148
REM
CELL 1.54180   15.00000   15.00000   15.00000   90.00000   90.00000   90.00000
LATT -1
SFAC C  
C      1  0.6968930000000  0.3307210000000  0.5587620000000 1.0
C      1  0.3768070000000  0.6174110000000  0.3448870000000 1.0
C      1  0.6631930000000  0.4266210000000  0.3027650000000 1.0
C      1  0.6110880000000  0.4805800000000  0.6853720000000 1.0
C      1  0.5625740000000  0.2884290000000  0.4230060000000 1.0
C      1  0.4902330000000  0.3128040000000  0.3322630000000 1.0
C      1  0.4291760000000  0.6419990000000  0.7225580000000 1.0
C      1  0.6056290000000  0.5413970000000  0.4967470000000 1.0
C      1  0.7031130000000  0.5676300000000  0.5442960000000 1.0
C      1  0.4511320000000  0.2585790000000  0.6224160000000 1.0
C      1  0.3705070000000  0.7305250000000  0.5211000000000 1.0
C      1  0.4894780000000  0.5250900000000  0.2844730000000 1.0
C      1  0.4267820000000  0.2720460000000  0.5189430000000 1.0
C      1  0.7573160000000  0.3992680000000  0.5654050000000 1.0
C      1  0.3349720000000  0.4801270000000  0.6488870000000 1.0
C      1  0.5596170000000  0.4289490000000  0.6120450000000 1.0
C      1  0.5419070000000  0.5393890000000  0.5883700000000 1.0
C      1  0.4743040000000  0.5562390000000  0.7378720000000 1.0
C      1  0.4323270000000  0.3156930000000  0.4299540000000 1.0
C      1  0.4887820000000  0.7010620000000  0.6740140000000 1.0
C      1  0.3666070000000  0.6913750000000  0.4323190000000 1.0
C      1  0.3209940000000  0.4383200000000  0.4590060000000 1.0
C      1  0.5670760000000  0.5916210000000  0.3695190000000 1.0
C      1  0.5784610000000  0.4710310000000  0.4236110000000 1.0
C      1  0.6315650000000  0.5933380000000  0.6160940000000 1.0
C      1  0.4735630000000  0.6727960000000  0.4164720000000 1.0
C      1  0.4281640000000  0.5207670000000  0.5218430000000 1.0
C      1  0.5905150000000  0.3644130000000  0.3447060000000 1.0
C      1  0.5933950000000  0.3356510000000  0.5979960000000 1.0
C      1  0.5715360000000  0.5667150000000  0.7200480000000 1.0
C      1  0.3970150000000  0.3494310000000  0.5903460000000 1.0
C      1  0.4169200000000  0.4662360000000  0.3043860000000 1.0
C      1  0.4764970000000  0.6280880000000  0.3120690000000 1.0
C      1  0.2826120000000  0.5811100000000  0.5812720000000 1.0
C      1  0.3014100000000  0.6031370000000  0.4228400000000 1.0
C      1  0.5039570000000  0.5739850000000  0.4630380000000 1.0
C      1  0.4586390000000  0.7032170000000  0.5714130000000 1.0
C      1  0.4222920000000  0.3735920000000  0.2786900000000 1.0
C      1  0.3563830000000  0.5908010000000  0.6600210000000 1.0
C      1  0.4513080000000  0.5979010000000  0.5989650000000 1.0
C      1  0.7640000000000  0.4887620000000  0.5651790000000 1.0
C      1  0.5175620000000  0.3906150000000  0.4339590000000 1.0
C      1  0.2916200000000  0.3194750000000  0.3418700000000 1.0
C      1  0.3205930000000  0.5400500000000  0.5023770000000 1.0
C      1  0.7134160000000  0.5078110000000  0.3253110000000 1.0
C      1  0.3489690000000  0.5104320000000  0.3756250000000 1.0
C      1  0.5813090000000  0.4945240000000  0.3188490000000 1.0
C      1  0.6486780000000  0.7251140000000  0.6093190000000 1.0
C      1  0.6733000000000  0.5804220000000  0.3737170000000 1.0
C      1  0.5366260000000  0.2681050000000  0.6511250000000 1.0
C      1  0.6204310000000  0.2805280000000  0.5025440000000 1.0
C      1  0.6132710000000  0.7350170000000  0.5256120000000 1.0
C      1  0.3385790000000  0.3309580000000  0.2634480000000 1.0
C      1  0.3357470000000  0.3488800000000  0.4161100000000 1.0
C      1  0.3250150000000  0.4248920000000  0.5693610000000 1.0
C      1  0.4528690000000  0.4419290000000  0.5998300000000 1.0
C      1  0.5305280000000  0.7150200000000  0.4971140000000 1.0
C      1  0.5905890000000  0.6725640000000  0.6836580000000 1.0
C      1  0.7135380000000  0.6116330000000  0.4488580000000 1.0
C      1  0.4286200000000  0.4851840000000  0.6973450000000 1.0
END
