TITL C-3036480-97-1157 -0.000521230392437098 3375 -308.152682947013 0 0 60 (S4) n - 1
REM
REM in /home/bkarasulu/work/CARBON/AIRSS/Generating-Clusters/REBO/Higher-Symm/Only-C60
REM
REM
REM
REM
REM
REM ./C.cell (a2850807a9bf4ad07a5b6933b78d9264)
REM AIRSS Version 0.9.1 bugfix July 2018 build 013d7b7c2542+ Fri, 06 Jul 2018 19:26:36 +0100
REM compiler GCC version 9.2.1 20190827 (Red Hat 9.2.1-1)
REM options -cpp -mtune=generic -march=x86-64 -g -O0 -fpre-include=/usr/include/finclude/math-vector-fortran.h
REM seed -500285092 -1698176954 -214828677 1196404484 -1178737519 1522937870 -908450612 1402050014 -786608896 -793294915 -1514306787 -830396839 -744639682 1559617239 1454467290 2001073933 -1978957093 -108132424 -594556434 -1371142644 -1219202164 1475626821 1852276314 -533722949 -1120460609 371739038 -437292542 -733002104 1398708153 -1208219788 211503341 1817208536 -164856343
REM
CELL 1.54180   15.00000   15.00000   15.00000   90.00000   90.00000   90.00000
LATT -1
SFAC C  
C      1  0.3822330000000  0.5532220000000  0.7157620000000 1.0
C      1  0.6176530000000  0.5531180000000  0.2843660000000 1.0
C      1  0.3829980000000  0.4590710000000  0.2943050000000 1.0
C      1  0.6166330000000  0.4593900000000  0.7059690000000 1.0
C      1  0.7057490000000  0.5408480000000  0.3832320000000 1.0
C      1  0.2941410000000  0.5409590000000  0.6168810000000 1.0
C      1  0.2841570000000  0.4467440000000  0.3824240000000 1.0
C      1  0.7154550000000  0.4469490000000  0.6178270000000 1.0
C      1  0.3421410000000  0.3646570000000  0.5781350000000 1.0
C      1  0.6574430000000  0.3651650000000  0.4218230000000 1.0
C      1  0.3521330000000  0.6116790000000  0.4153550000000 1.0
C      1  0.6484690000000  0.6118970000000  0.5845780000000 1.0
C      1  0.5846100000000  0.3884180000000  0.3518930000000 1.0
C      1  0.4149350000000  0.3880990000000  0.6485510000000 1.0
C      1  0.4219020000000  0.6349920000000  0.3422040000000 1.0
C      1  0.5783070000000  0.6352430000000  0.6574230000000 1.0
C      1  0.3671520000000  0.4881150000000  0.4422740000000 1.0
C      1  0.6328050000000  0.4883040000000  0.5580080000000 1.0
C      1  0.3678490000000  0.4862180000000  0.5502480000000 1.0
C      1  0.6319030000000  0.4866470000000  0.4501630000000 1.0
C      1  0.4498520000000  0.5134590000000  0.3680790000000 1.0
C      1  0.5499900000000  0.5137460000000  0.6319310000000 1.0
C      1  0.5577580000000  0.5119020000000  0.3674170000000 1.0
C      1  0.4419810000000  0.5114600000000  0.6329730000000 1.0
C      1  0.3750290000000  0.3772010000000  0.4498650000000 1.0
C      1  0.6248670000000  0.3772540000000  0.5501450000000 1.0
C      1  0.3903770000000  0.5929480000000  0.5414030000000 1.0
C      1  0.6097970000000  0.5935130000000  0.4586300000000 1.0
C      1  0.4585740000000  0.4067410000000  0.3902810000000 1.0
C      1  0.5412990000000  0.4069070000000  0.6099390000000 1.0
C      1  0.5501820000000  0.6228580000000  0.3750620000000 1.0
C      1  0.4499930000000  0.6224970000000  0.6249560000000 1.0
C      1  0.4113090000000  0.2746160000000  0.6466330000000 1.0
C      1  0.5886770000000  0.2749650000000  0.3530870000000 1.0
C      1  0.4171970000000  0.7482970000000  0.3368550000000 1.0
C      1  0.5828870000000  0.7485540000000  0.6627890000000 1.0
C      1  0.6627910000000  0.2518480000000  0.4170240000000 1.0
C      1  0.3370660000000  0.2512730000000  0.5827420000000 1.0
C      1  0.3534020000000  0.7251100000000  0.4112620000000 1.0
C      1  0.6468680000000  0.7253940000000  0.5884900000000 1.0
C      1  0.3196980000000  0.6477710000000  0.6142140000000 1.0
C      1  0.6806040000000  0.6477910000000  0.3856520000000 1.0
C      1  0.2938720000000  0.3338140000000  0.3835350000000 1.0
C      1  0.7063800000000  0.3340210000000  0.6160720000000 1.0
C      1  0.6165270000000  0.6660720000000  0.2938340000000 1.0
C      1  0.3836840000000  0.6661380000000  0.7060400000000 1.0
C      1  0.3857090000000  0.3520990000000  0.3195080000000 1.0
C      1  0.6147410000000  0.3521920000000  0.6805080000000 1.0
C      1  0.4939920000000  0.3238210000000  0.3244360000000 1.0
C      1  0.5059980000000  0.3238490000000  0.6753610000000 1.0
C      1  0.4893850000000  0.6999690000000  0.6939470000000 1.0
C      1  0.5107570000000  0.6999180000000  0.3058320000000 1.0
C      1  0.3059390000000  0.2999080000000  0.4892770000000 1.0
C      1  0.6940810000000  0.2999890000000  0.5104520000000 1.0
C      1  0.6757950000000  0.6764190000000  0.4938520000000 1.0
C      1  0.3246600000000  0.6761600000000  0.5060020000000 1.0
C      1  0.2886550000000  0.4881950000000  0.2928340000000 1.0
C      1  0.2925770000000  0.5120470000000  0.7112660000000 1.0
C      1  0.7072220000000  0.5116850000000  0.2888700000000 1.0
C      1  0.7111600000000  0.4878630000000  0.7075240000000 1.0
END
