TITL C-3036485-3770-1154 0.00134810479832157 3375 -334.165056298275 0 0 60 (C3) n - 1
REM
REM in /home/bkarasulu/work/CARBON/AIRSS/Generating-Clusters/REBO/Higher-Symm/Only-C60
REM
REM
REM
REM
REM
REM ./C.cell (a2850807a9bf4ad07a5b6933b78d9264)
REM AIRSS Version 0.9.1 bugfix July 2018 build 013d7b7c2542+ Fri, 06 Jul 2018 19:26:36 +0100
REM compiler GCC version 9.2.1 20190827 (Red Hat 9.2.1-1)
REM options -cpp -mtune=generic -march=x86-64 -g -O0 -fpre-include=/usr/include/finclude/math-vector-fortran.h
REM seed -586740033 -1176092924 -294459329 1965521219 432493462 388935905 -2125274377 -1901881129 59682980 -1148410642 -1544993956 2069237657 1461161444 484276644 1925007421 -737879921 655923343 -1507925208 -808122585 116927015 -1099905746 884115995 -413038135 -375439228 1009096609 -702016826 -819507542 1372932135 -1857614595 1188257061 -2087481131 -404468545 -639812455
REM
CELL 1.54180   15.00000   15.00000   15.00000   90.00000   90.00000   90.00000
LATT -1
SFAC C  
C      1  0.5963260000000  0.6791040000000  0.5475210000000 1.0
C      1  0.6790580000000  0.5475460000000  0.5963120000000 1.0
C      1  0.5475520000000  0.5963770000000  0.6790760000000 1.0
C      1  0.3852130000000  0.6746590000000  0.4619520000000 1.0
C      1  0.3859880000000  0.3265810000000  0.5372100000000 1.0
C      1  0.6128810000000  0.3273300000000  0.4641300000000 1.0
C      1  0.3265540000000  0.5371990000000  0.3859760000000 1.0
C      1  0.3274000000000  0.4641690000000  0.6128640000000 1.0
C      1  0.6746660000000  0.4619130000000  0.3852070000000 1.0
C      1  0.4641440000000  0.6128270000000  0.3273830000000 1.0
C      1  0.4619880000000  0.3852550000000  0.6746500000000 1.0
C      1  0.5372220000000  0.3859070000000  0.3265580000000 1.0
C      1  0.5368380000000  0.6734740000000  0.6147560000000 1.0
C      1  0.6147600000000  0.5368660000000  0.6734370000000 1.0
C      1  0.6734200000000  0.6147760000000  0.5368200000000 1.0
C      1  0.4531600000000  0.6785600000000  0.4031820000000 1.0
C      1  0.5469950000000  0.3208910000000  0.4031870000000 1.0
C      1  0.4516350000000  0.3200000000000  0.5982880000000 1.0
C      1  0.4031980000000  0.5469670000000  0.3209600000000 1.0
C      1  0.5982940000000  0.4515740000000  0.3199720000000 1.0
C      1  0.4032230000000  0.4532020000000  0.6785660000000 1.0
C      1  0.3199690000000  0.5982850000000  0.4516180000000 1.0
C      1  0.6785760000000  0.4031510000000  0.4531570000000 1.0
C      1  0.3209660000000  0.4032220000000  0.5469960000000 1.0
C      1  0.4484900000000  0.6308740000000  0.7040790000000 1.0
C      1  0.6308210000000  0.7040890000000  0.4484570000000 1.0
C      1  0.7040550000000  0.4484860000000  0.6308200000000 1.0
C      1  0.5616940000000  0.6305970000000  0.2900550000000 1.0
C      1  0.5571780000000  0.3637900000000  0.7157360000000 1.0
C      1  0.4403050000000  0.3679800000000  0.2879920000000 1.0
C      1  0.3637660000000  0.7157420000000  0.5571480000000 1.0
C      1  0.3679780000000  0.2879920000000  0.4403060000000 1.0
C      1  0.6306080000000  0.2900160000000  0.5616830000000 1.0
C      1  0.2879810000000  0.4402800000000  0.3679960000000 1.0
C      1  0.2900640000000  0.5617170000000  0.6306390000000 1.0
C      1  0.7157400000000  0.5571070000000  0.3637980000000 1.0
C      1  0.7130020000000  0.6356720000000  0.4408260000000 1.0
C      1  0.4408490000000  0.7130550000000  0.6356590000000 1.0
C      1  0.6356760000000  0.4408770000000  0.7130270000000 1.0
C      1  0.2927250000000  0.6359450000000  0.5488200000000 1.0
C      1  0.7020890000000  0.3694210000000  0.5528510000000 1.0
C      1  0.2946520000000  0.3656960000000  0.4493230000000 1.0
C      1  0.5528340000000  0.7020900000000  0.3694210000000 1.0
C      1  0.4492930000000  0.2946330000000  0.3656960000000 1.0
C      1  0.5488260000000  0.2927350000000  0.6359490000000 1.0
C      1  0.3656950000000  0.4492890000000  0.2946700000000 1.0
C      1  0.6359420000000  0.5487960000000  0.2927390000000 1.0
C      1  0.3694590000000  0.5528690000000  0.7021040000000 1.0
C      1  0.8085270000000  0.6192570000000  0.3822360000000 1.0
C      1  0.6193870000000  0.3821780000000  0.8085000000000 1.0
C      1  0.3821410000000  0.8085200000000  0.6193320000000 1.0
C      1  0.7974760000000  0.3871960000000  0.6115120000000 1.0
C      1  0.6220850000000  0.6081470000000  0.1970930000000 1.0
C      1  0.6079890000000  0.1969990000000  0.6219380000000 1.0
C      1  0.3872820000000  0.6114590000000  0.7975330000000 1.0
C      1  0.1970520000000  0.6220000000000  0.6081020000000 1.0
C      1  0.1972360000000  0.3773920000000  0.3924260000000 1.0
C      1  0.3774560000000  0.3924400000000  0.1972340000000 1.0
C      1  0.6113990000000  0.7975310000000  0.3872360000000 1.0
C      1  0.3922220000000  0.1973000000000  0.3772890000000 1.0
END
