TITL C-3036486-2224-618 5.46612896486135e-06 3375 -329.26254410186 0 0 60 (Td) n - 1
REM
REM in /home/bkarasulu/work/CARBON/AIRSS/Generating-Clusters/REBO/Higher-Symm/Only-C60
REM
REM
REM
REM
REM
REM ./C.cell (a2850807a9bf4ad07a5b6933b78d9264)
REM AIRSS Version 0.9.1 bugfix July 2018 build 013d7b7c2542+ Fri, 06 Jul 2018 19:26:36 +0100
REM compiler GCC version 9.2.1 20190827 (Red Hat 9.2.1-1)
REM options -cpp -mtune=generic -march=x86-64 -g -O0 -fpre-include=/usr/include/finclude/math-vector-fortran.h
REM seed -2065015147 1494260987 -381986386 1330010339 -242020556 2105551307 -1012526842 -648898933 -167409528 258817948 -1291745870 1795480770 1939598208 -1285896370 1212114314 -237691651 -117838470 302717983 -1707042473 -541920599 -1602042470 2064364431 204648298 -2066136509 1475296690 1530467672 -1277118517 793611420 -1161245576 -923731477 1016904732 93995607 101699631
REM
CELL 1.54180   15.00000   15.00000   15.00000   90.00000   90.00000   90.00000
LATT -1
SFAC C  
C      1  0.2828970000000  0.6368770000000  0.5564100000000 1.0
C      1  0.6368770000000  0.5564100000000  0.2828970000000 1.0
C      1  0.5564100000000  0.2828970000000  0.6368770000000 1.0
C      1  0.7171030000000  0.6368770000000  0.4435900000000 1.0
C      1  0.7171030000000  0.3631230000000  0.5564100000000 1.0
C      1  0.2828970000000  0.3631230000000  0.4435900000000 1.0
C      1  0.3631230000000  0.5564100000000  0.7171030000000 1.0
C      1  0.3631230000000  0.4435900000000  0.2828970000000 1.0
C      1  0.6368770000000  0.4435900000000  0.7171030000000 1.0
C      1  0.4435900000000  0.2828970000000  0.3631230000000 1.0
C      1  0.4435900000000  0.7171030000000  0.6368770000000 1.0
C      1  0.5564100000000  0.7171030000000  0.3631230000000 1.0
C      1  0.5564100000000  0.6368770000000  0.2828970000000 1.0
C      1  0.2828970000000  0.5564100000000  0.6368770000000 1.0
C      1  0.6368770000000  0.2828970000000  0.5564100000000 1.0
C      1  0.4435900000000  0.6368770000000  0.7171030000000 1.0
C      1  0.5564100000000  0.3631230000000  0.7171030000000 1.0
C      1  0.4435900000000  0.3631230000000  0.2828970000000 1.0
C      1  0.7171030000000  0.5564100000000  0.3631230000000 1.0
C      1  0.2828970000000  0.4435900000000  0.3631230000000 1.0
C      1  0.7171030000000  0.4435900000000  0.6368770000000 1.0
C      1  0.3631230000000  0.2828970000000  0.4435900000000 1.0
C      1  0.6368770000000  0.7171030000000  0.4435900000000 1.0
C      1  0.3631230000000  0.7171030000000  0.5564100000000 1.0
C      1  0.3545850000000  0.4253630000000  0.5027580000000 1.0
C      1  0.4253630000000  0.5027580000000  0.3545850000000 1.0
C      1  0.5027580000000  0.3545850000000  0.4253630000000 1.0
C      1  0.6454150000000  0.4253630000000  0.4972420000000 1.0
C      1  0.6454150000000  0.5746370000000  0.5027580000000 1.0
C      1  0.3545850000000  0.5746370000000  0.4972420000000 1.0
C      1  0.5746370000000  0.5027580000000  0.6454150000000 1.0
C      1  0.5746370000000  0.4972420000000  0.3545850000000 1.0
C      1  0.4253630000000  0.4972420000000  0.6454150000000 1.0
C      1  0.4972420000000  0.3545850000000  0.5746370000000 1.0
C      1  0.4972420000000  0.6454150000000  0.4253630000000 1.0
C      1  0.5027580000000  0.6454150000000  0.5746370000000 1.0
C      1  0.5027580000000  0.4253630000000  0.3545850000000 1.0
C      1  0.3545850000000  0.5027580000000  0.4253630000000 1.0
C      1  0.4253630000000  0.3545850000000  0.5027580000000 1.0
C      1  0.4972420000000  0.4253630000000  0.6454150000000 1.0
C      1  0.5027580000000  0.5746370000000  0.6454150000000 1.0
C      1  0.4972420000000  0.5746370000000  0.3545850000000 1.0
C      1  0.6454150000000  0.5027580000000  0.5746370000000 1.0
C      1  0.3545850000000  0.4972420000000  0.5746370000000 1.0
C      1  0.6454150000000  0.4972420000000  0.4253630000000 1.0
C      1  0.5746370000000  0.3545850000000  0.4972420000000 1.0
C      1  0.4253630000000  0.6454150000000  0.4972420000000 1.0
C      1  0.5746370000000  0.6454150000000  0.5027580000000 1.0
C      1  0.4652730000000  0.5347270000000  0.7665250000000 1.0
C      1  0.5347270000000  0.5347270000000  0.2334750000000 1.0
C      1  0.4652730000000  0.7665250000000  0.5347270000000 1.0
C      1  0.5347270000000  0.2334750000000  0.5347270000000 1.0
C      1  0.5347270000000  0.4652730000000  0.7665250000000 1.0
C      1  0.7665250000000  0.5347270000000  0.4652730000000 1.0
C      1  0.7665250000000  0.4652730000000  0.5347270000000 1.0
C      1  0.5347270000000  0.7665250000000  0.4652730000000 1.0
C      1  0.2334750000000  0.4652730000000  0.4652730000000 1.0
C      1  0.2334750000000  0.5347270000000  0.5347270000000 1.0
C      1  0.4652730000000  0.4652730000000  0.2334750000000 1.0
C      1  0.4652730000000  0.2334750000000  0.4652730000000 1.0
END
