TITL C-3036479-9801-240 -2.22159728741402e-06 3375 -359.443422200116 0 0 60 (S4) n - 1
REM
REM in /home/bkarasulu/work/CARBON/AIRSS/Generating-Clusters/REBO/Higher-Symm/Only-C60
REM
REM
REM
REM
REM
REM ./C.cell (a2850807a9bf4ad07a5b6933b78d9264)
REM AIRSS Version 0.9.1 bugfix July 2018 build 013d7b7c2542+ Fri, 06 Jul 2018 19:26:36 +0100
REM compiler GCC version 9.2.1 20190827 (Red Hat 9.2.1-1)
REM options -cpp -mtune=generic -march=x86-64 -g -O0 -fpre-include=/usr/include/finclude/math-vector-fortran.h
REM seed 1455387282 -227728101 1345246247 -2109251213 -604752636 482492022 -406425750 -581174374 -1188080808 776734700 -1796322230 1497736888 1405047275 644279657 -128656560 1175796404 680339653 286184743 -1385490840 -721351824 -157478854 -1233909286 -282706677 -109366910 -816400453 -2096012596 -1150875427 1183954791 -1109239934 -1915513123 561718923 -81860226 743419169
REM
CELL 1.54180   15.00000   15.00000   15.00000   90.00000   90.00000   90.00000
LATT -1
SFAC C  
C      1  0.3129680000000  0.5458490000000  0.4052680000000 1.0
C      1  0.3873070000000  0.3021490000000  0.5495820000000 1.0
C      1  0.5436630000000  0.3895910000000  0.3062880000000 1.0
C      1  0.6914420000000  0.5388870000000  0.6291500000000 1.0
C      1  0.3130040000000  0.4540990000000  0.5947760000000 1.0
C      1  0.6914230000000  0.4611670000000  0.3708050000000 1.0
C      1  0.6120850000000  0.3230160000000  0.4678380000000 1.0
C      1  0.3872400000000  0.6978200000000  0.4504440000000 1.0
C      1  0.6120430000000  0.6770150000000  0.5321360000000 1.0
C      1  0.4663350000000  0.3928580000000  0.6810660000000 1.0
C      1  0.5436780000000  0.6104220000000  0.6937020000000 1.0
C      1  0.4662620000000  0.6071320000000  0.3189420000000 1.0
C      1  0.3879110000000  0.5321340000000  0.3230140000000 1.0
C      1  0.5337140000000  0.3189420000000  0.3928590000000 1.0
C      1  0.3085900000000  0.3708010000000  0.5388830000000 1.0
C      1  0.6127420000000  0.5495850000000  0.6978220000000 1.0
C      1  0.6127100000000  0.4504470000000  0.3021520000000 1.0
C      1  0.3879620000000  0.4678350000000  0.6770120000000 1.0
C      1  0.4563690000000  0.3062870000000  0.6104210000000 1.0
C      1  0.4562890000000  0.6937010000000  0.3895890000000 1.0
C      1  0.5336890000000  0.6810670000000  0.6071330000000 1.0
C      1  0.6870220000000  0.4052720000000  0.4541030000000 1.0
C      1  0.6870060000000  0.5947800000000  0.5458530000000 1.0
C      1  0.3085450000000  0.6291460000000  0.4611620000000 1.0
C      1  0.4437590000000  0.3605890000000  0.3047160000000 1.0
C      1  0.3028420000000  0.4399470000000  0.3677900000000 1.0
C      1  0.3659360000000  0.2962480000000  0.4455920000000 1.0
C      1  0.5721520000000  0.3743150000000  0.7159070000000 1.0
C      1  0.4437660000000  0.6393960000000  0.6952970000000 1.0
C      1  0.5720660000000  0.6257050000000  0.2840760000000 1.0
C      1  0.7053360000000  0.4352840000000  0.6262960000000 1.0
C      1  0.3028570000000  0.5599980000000  0.6322570000000 1.0
C      1  0.7052880000000  0.5647730000000  0.3736550000000 1.0
C      1  0.6246850000000  0.2979680000000  0.5746380000000 1.0
C      1  0.3658920000000  0.7037140000000  0.5544390000000 1.0
C      1  0.6246110000000  0.7020670000000  0.4253330000000 1.0
C      1  0.2946980000000  0.3736510000000  0.4352800000000 1.0
C      1  0.3753390000000  0.4253310000000  0.2979650000000 1.0
C      1  0.4279060000000  0.2840750000000  0.3743130000000 1.0
C      1  0.6971760000000  0.3677940000000  0.5600020000000 1.0
C      1  0.6971250000000  0.6322610000000  0.4399520000000 1.0
C      1  0.2946780000000  0.6262920000000  0.5647680000000 1.0
C      1  0.6341170000000  0.4455950000000  0.7037170000000 1.0
C      1  0.6340540000000  0.5544420000000  0.2962510000000 1.0
C      1  0.3753650000000  0.5746350000000  0.7020640000000 1.0
C      1  0.5562810000000  0.3047170000000  0.6393970000000 1.0
C      1  0.5561930000000  0.6952990000000  0.3605900000000 1.0
C      1  0.4278760000000  0.7159050000000  0.6257040000000 1.0
C      1  0.6061840000000  0.4522620000000  0.5130290000000 1.0
C      1  0.4604460000000  0.6014840000000  0.5672700000000 1.0
C      1  0.5241200000000  0.3782090000000  0.5107570000000 1.0
C      1  0.5395270000000  0.5672710000000  0.3985060000000 1.0
C      1  0.5395690000000  0.4327400000000  0.6014840000000 1.0
C      1  0.3938210000000  0.4869440000000  0.4522600000000 1.0
C      1  0.6061670000000  0.5477670000000  0.4869460000000 1.0
C      1  0.3938280000000  0.5130260000000  0.5477650000000 1.0
C      1  0.5240830000000  0.6217980000000  0.4892380000000 1.0
C      1  0.4604580000000  0.3985050000000  0.4327390000000 1.0
C      1  0.4759120000000  0.5107560000000  0.6217970000000 1.0
C      1  0.4758860000000  0.4892370000000  0.3782080000000 1.0
END
