TITL C-3036483-1610-981 0.54831697639475 3375 -316.327951411838 0 0 60 (C1) n - 1
REM
REM in /home/bkarasulu/work/CARBON/AIRSS/Generating-Clusters/REBO/Higher-Symm/Only-C60
REM
REM
REM
REM
REM
REM ./C.cell (a2850807a9bf4ad07a5b6933b78d9264)
REM AIRSS Version 0.9.1 bugfix July 2018 build 013d7b7c2542+ Fri, 06 Jul 2018 19:26:36 +0100
REM compiler GCC version 9.2.1 20190827 (Red Hat 9.2.1-1)
REM options -cpp -mtune=generic -march=x86-64 -g -O0 -fpre-include=/usr/include/finclude/math-vector-fortran.h
REM seed -1970255760 774623732 1805689983 117906361 1323529301 1106372782 -974826845 1885186551 933016491 -1281583646 1270684239 1188036617 122307595 -1675344661 1690863520 -645334094 -79718940 -1203974917 -303539975 -1548541693 -968502412 880866721 1001307598 75396450 2103712906 -1658829635 -227452008 1919138844 -1990222443 820244746 2137874410 -2006039848 1237721104
REM
CELL 1.54180   15.00000   15.00000   15.00000   90.00000   90.00000   90.00000
LATT -1
SFAC C  
C      1  0.3214700000000  0.6373950000000  0.4996450000000 1.0
C      1  0.2936490000000  0.4435290000000  0.5008060000000 1.0
C      1  0.4184170000000  0.2930640000000  0.5007340000000 1.0
C      1  0.6144280000000  0.2972210000000  0.4955630000000 1.0
C      1  0.7215300000000  0.4633670000000  0.5004410000000 1.0
C      1  0.6670710000000  0.6503700000000  0.5075210000000 1.0
C      1  0.4929310000000  0.7333000000000  0.4980640000000 1.0
C      1  0.3370770000000  0.3525930000000  0.4463890000000 1.0
C      1  0.5152590000000  0.2774430000000  0.4420030000000 1.0
C      1  0.6617230000000  0.3860970000000  0.4420260000000 1.0
C      1  0.6938410000000  0.5588770000000  0.4459120000000 1.0
C      1  0.5813620000000  0.6899490000000  0.4448250000000 1.0
C      1  0.4069440000000  0.6848100000000  0.4411410000000 1.0
C      1  0.2821200000000  0.5438460000000  0.4473480000000 1.0
C      1  0.4109930000000  0.5993630000000  0.2674990000000 1.0
C      1  0.3580180000000  0.5101500000000  0.2658430000000 1.0
C      1  0.3882450000000  0.4173280000000  0.2686670000000 1.0
C      1  0.4763930000000  0.3760290000000  0.2699560000000 1.0
C      1  0.5705450000000  0.4162330000000  0.2721200000000 1.0
C      1  0.5991020000000  0.5264930000000  0.2720630000000 1.0
C      1  0.5241840000000  0.6124160000000  0.2670250000000 1.0
C      1  0.3919450000000  0.5699550000000  0.6460230000000 1.0
C      1  0.3735840000000  0.4692030000000  0.6298980000000 1.0
C      1  0.4425450000000  0.3863740000000  0.6374650000000 1.0
C      1  0.5421200000000  0.3900570000000  0.6578820000000 1.0
C      1  0.6032340000000  0.4828840000000  0.6754060000000 1.0
C      1  0.5624470000000  0.5876540000000  0.6916650000000 1.0
C      1  0.4725860000000  0.6164630000000  0.6712840000000 1.0
C      1  0.2975180000000  0.5421610000000  0.5582270000000 1.0
C      1  0.3460500000000  0.3601560000000  0.5588120000000 1.0
C      1  0.5182750000000  0.2735180000000  0.5539510000000 1.0
C      1  0.6851310000000  0.3679120000000  0.5508040000000 1.0
C      1  0.7238280000000  0.5637140000000  0.5543000000000 1.0
C      1  0.5904410000000  0.7196630000000  0.5555060000000 1.0
C      1  0.3971220000000  0.7044570000000  0.5515360000000 1.0
C      1  0.5157910000000  0.3799550000000  0.5264040000000 1.0
C      1  0.6007630000000  0.4379500000000  0.5502380000000 1.0
C      1  0.6222000000000  0.5434480000000  0.5822910000000 1.0
C      1  0.5498020000000  0.6182770000000  0.5627410000000 1.0
C      1  0.4596060000000  0.6111230000000  0.5388540000000 1.0
C      1  0.3993260000000  0.5300180000000  0.5087150000000 1.0
C      1  0.4253250000000  0.4264020000000  0.5121550000000 1.0
C      1  0.5556260000000  0.6296030000000  0.3711730000000 1.0
C      1  0.4415880000000  0.6236230000000  0.3697160000000 1.0
C      1  0.3752640000000  0.5348460000000  0.3955300000000 1.0
C      1  0.4050220000000  0.4255540000000  0.4005870000000 1.0
C      1  0.5089600000000  0.3815070000000  0.4111210000000 1.0
C      1  0.6031090000000  0.4324000000000  0.3731050000000 1.0
C      1  0.6294240000000  0.5430160000000  0.3754050000000 1.0
C      1  0.5297180000000  0.5071220000000  0.4950110000000 1.0
C      1  0.4813330000000  0.4983590000000  0.2200410000000 1.0
C      1  0.4820360000000  0.4983160000000  0.7957830000000 1.0
C      1  0.4974780000000  0.5020970000000  0.6030040000000 1.0
C      1  0.4754750000000  0.4895030000000  0.7094440000000 1.0
C      1  0.5166060000000  0.5068250000000  0.0505149000000 1.0
C      1  0.5041810000000  0.5071320000000  0.8790410000000 1.0
C      1  0.4792250000000  0.4994350000000  0.3201530000000 1.0
C      1  0.5043500000000  0.5136860000000  0.4086150000000 1.0
C      1  0.5209380000000  0.5104610000000  0.9640040000000 1.0
C      1  0.4967300000000  0.5000400000000  0.1345440000000 1.0
END
