TITL C-3036486-2224-1138 -1.29691725983101e-06 3375 -353.134898631446 0 0 60 (C1) n - 1
REM
REM in /home/bkarasulu/work/CARBON/AIRSS/Generating-Clusters/REBO/Higher-Symm/Only-C60
REM
REM
REM
REM
REM
REM ./C.cell (a2850807a9bf4ad07a5b6933b78d9264)
REM AIRSS Version 0.9.1 bugfix July 2018 build 013d7b7c2542+ Fri, 06 Jul 2018 19:26:36 +0100
REM compiler GCC version 9.2.1 20190827 (Red Hat 9.2.1-1)
REM options -cpp -mtune=generic -march=x86-64 -g -O0 -fpre-include=/usr/include/finclude/math-vector-fortran.h
REM seed 1476606908 -2083765295 1181044327 -582843209 894712369 -1627507275 669460998 1658260621 389306854 691176722 1273611223 -368402692 950101258 -1685145881 833374214 -500785918 461072184 -1791082351 -1166289267 -2106567218 1154057441 133697566 -203393288 662901372 -980476443 -970392013 189976786 957047153 -1092707649 1969389458 -932947570 1727055335 -1957828697
REM
CELL 1.54180   15.00000   15.00000   15.00000   90.00000   90.00000   90.00000
LATT -1
SFAC C  
C      1  0.5399980000000  0.2901490000000  0.4283620000000 1.0
C      1  0.5810300000000  0.2901140000000  0.5153750000000 1.0
C      1  0.5108110000000  0.2901470000000  0.5813320000000 1.0
C      1  0.4262190000000  0.2901410000000  0.5347570000000 1.0
C      1  0.4442240000000  0.2904720000000  0.4404560000000 1.0
C      1  0.5395620000000  0.7098590000000  0.4277690000000 1.0
C      1  0.5804960000000  0.7097730000000  0.5150470000000 1.0
C      1  0.5100670000000  0.7099310000000  0.5809800000000 1.0
C      1  0.4259660000000  0.7096920000000  0.5346830000000 1.0
C      1  0.4441180000000  0.7099520000000  0.4398020000000 1.0
C      1  0.2547950000000  0.5392230000000  0.4552000000000 1.0
C      1  0.4660610000000  0.5428740000000  0.2540230000000 1.0
C      1  0.7244980000000  0.5409670000000  0.3924380000000 1.0
C      1  0.6718470000000  0.5401010000000  0.6809460000000 1.0
C      1  0.3825730000000  0.5435670000000  0.7185390000000 1.0
C      1  0.2558740000000  0.4564430000000  0.4559620000000 1.0
C      1  0.4668040000000  0.4601360000000  0.2527470000000 1.0
C      1  0.7241810000000  0.4581980000000  0.3912430000000 1.0
C      1  0.6713210000000  0.4573500000000  0.6798910000000 1.0
C      1  0.3814570000000  0.4607810000000  0.7192050000000 1.0
C      1  0.5802120000000  0.5834460000000  0.4725770000000 1.0
C      1  0.5508530000000  0.5837530000000  0.5675780000000 1.0
C      1  0.4513950000000  0.5835690000000  0.5694410000000 1.0
C      1  0.4190850000000  0.5839630000000  0.4753590000000 1.0
C      1  0.4983650000000  0.5837190000000  0.4154300000000 1.0
C      1  0.5803200000000  0.4161870000000  0.4721530000000 1.0
C      1  0.5509290000000  0.4164840000000  0.5676060000000 1.0
C      1  0.4514990000000  0.4163860000000  0.5692200000000 1.0
C      1  0.4190290000000  0.4166180000000  0.4753030000000 1.0
C      1  0.4985440000000  0.4161570000000  0.4154600000000 1.0
C      1  0.3170670000000  0.6215150000000  0.4651430000000 1.0
C      1  0.4752900000000  0.6206200000000  0.3167100000000 1.0
C      1  0.6681350000000  0.6195030000000  0.4209670000000 1.0
C      1  0.6271410000000  0.6217800000000  0.6356150000000 1.0
C      1  0.4123610000000  0.6211920000000  0.6624120000000 1.0
C      1  0.3185610000000  0.3789070000000  0.4669540000000 1.0
C      1  0.4769150000000  0.3782190000000  0.3153830000000 1.0
C      1  0.6672530000000  0.3793440000000  0.4192880000000 1.0
C      1  0.6273290000000  0.3797780000000  0.6342740000000 1.0
C      1  0.4102420000000  0.3785250000000  0.6629670000000 1.0
C      1  0.5808040000000  0.5431750000000  0.3461320000000 1.0
C      1  0.6713650000000  0.5428400000000  0.5303150000000 1.0
C      1  0.5254770000000  0.5436810000000  0.6722000000000 1.0
C      1  0.3437530000000  0.5429360000000  0.5764490000000 1.0
C      1  0.3780560000000  0.5436300000000  0.3758420000000 1.0
C      1  0.5802580000000  0.4567360000000  0.3456610000000 1.0
C      1  0.6716440000000  0.4563720000000  0.5295930000000 1.0
C      1  0.5243510000000  0.4572090000000  0.6721910000000 1.0
C      1  0.3441180000000  0.4564960000000  0.5774870000000 1.0
C      1  0.3790640000000  0.4571900000000  0.3751650000000 1.0
C      1  0.3821880000000  0.3437210000000  0.3716170000000 1.0
C      1  0.5830190000000  0.3430940000000  0.3450930000000 1.0
C      1  0.6723410000000  0.3428740000000  0.5319990000000 1.0
C      1  0.5198010000000  0.3437590000000  0.6732820000000 1.0
C      1  0.3421310000000  0.3428390000000  0.5765690000000 1.0
C      1  0.3780020000000  0.6572320000000  0.3735450000000 1.0
C      1  0.5847360000000  0.6566290000000  0.3473050000000 1.0
C      1  0.6711540000000  0.6563180000000  0.5346000000000 1.0
C      1  0.5239610000000  0.6573340000000  0.6738420000000 1.0
C      1  0.3413520000000  0.6564000000000  0.5725180000000 1.0
END
