TITL C-3036486-2224-1157 -1.91434165804798e-06 3375 -328.498005043686 0 0 60 (C3) n - 1
REM
REM in /home/bkarasulu/work/CARBON/AIRSS/Generating-Clusters/REBO/Higher-Symm/Only-C60
REM
REM
REM
REM
REM
REM ./C.cell (a2850807a9bf4ad07a5b6933b78d9264)
REM AIRSS Version 0.9.1 bugfix July 2018 build 013d7b7c2542+ Fri, 06 Jul 2018 19:26:36 +0100
REM compiler GCC version 9.2.1 20190827 (Red Hat 9.2.1-1)
REM options -cpp -mtune=generic -march=x86-64 -g -O0 -fpre-include=/usr/include/finclude/math-vector-fortran.h
REM seed -1411418394 903451244 1639018248 1725633675 -2057587520 -781682399 1659317930 1077932767 -1847412211 1149318236 223598888 877310034 -1989858684 -674017949 -438076636 727488508 -1568909851 -1810905376 45542642 2040882578 -920799890 -1468462638 1827272939 1153382659 1196653064 -2086741304 -1193859799 715091181 1857605866 728939340 -1318156354 1769336947 -1568100331
REM
CELL 1.54180   15.00000   15.00000   15.00000   90.00000   90.00000   90.00000
LATT -1
SFAC C  
C      1  0.3594260000000  0.4341760000000  0.6204970000000 1.0
C      1  0.4659330000000  0.4341770000000  0.3180110000000 1.0
C      1  0.6746400000000  0.4341750000000  0.5614920000000 1.0
C      1  0.4169660000000  0.4644700000000  0.4405840000000 1.0
C      1  0.5929720000000  0.4644700000000  0.4577980000000 1.0
C      1  0.4900620000000  0.4644700000000  0.6016170000000 1.0
C      1  0.3596240000000  0.4581040000000  0.2861330000000 1.0
C      1  0.7554010000000  0.4581030000000  0.4853650000000 1.0
C      1  0.3849740000000  0.4581030000000  0.7285020000000 1.0
C      1  0.4682690000000  0.5855350000000  0.4241810000000 1.0
C      1  0.5815270000000  0.5855350000000  0.5104300000000 1.0
C      1  0.4502050000000  0.5855350000000  0.5653890000000 1.0
C      1  0.3243730000000  0.6243180000000  0.5860700000000 1.0
C      1  0.5132750000000  0.6243190000000  0.3048680000000 1.0
C      1  0.6623520000000  0.6243180000000  0.6090630000000 1.0
C      1  0.5999860000000  0.3716610000000  0.6986310000000 1.0
C      1  0.2779870000000  0.3716620000000  0.4872750000000 1.0
C      1  0.6220260000000  0.3716620000000  0.3140930000000 1.0
C      1  0.3526420000000  0.3323170000000  0.4477760000000 1.0
C      1  0.6189050000000  0.3323170000000  0.3984960000000 1.0
C      1  0.5284520000000  0.3323160000000  0.6537260000000 1.0
C      1  0.3773100000000  0.3710700000000  0.3548480000000 1.0
C      1  0.6870500000000  0.3710690000000  0.4663230000000 1.0
C      1  0.4356400000000  0.3710690000000  0.6788280000000 1.0
C      1  0.5676280000000  0.5807960000000  0.7362890000000 1.0
C      1  0.2615540000000  0.5807970000000  0.4404230000000 1.0
C      1  0.6708190000000  0.5807970000000  0.3232890000000 1.0
C      1  0.5686260000000  0.4051580000000  0.5495590000000 1.0
C      1  0.4227670000000  0.4051580000000  0.5346520000000 1.0
C      1  0.5086070000000  0.4051580000000  0.4157880000000 1.0
C      1  0.5420010000000  0.5321740000000  0.3957750000000 1.0
C      1  0.5692610000000  0.5321730000000  0.5884860000000 1.0
C      1  0.3887390000000  0.5321740000000  0.5157390000000 1.0
C      1  0.4312270000000  0.5365240000000  0.6663560000000 1.0
C      1  0.3903180000000  0.5365250000000  0.3572630000000 1.0
C      1  0.6784550000000  0.5365240000000  0.4763810000000 1.0
C      1  0.5808760000000  0.6422840000000  0.6627620000000 1.0
C      1  0.3186070000000  0.6422850000000  0.4886600000000 1.0
C      1  0.6005180000000  0.6422850000000  0.3485790000000 1.0
C      1  0.3964430000000  0.6639450000000  0.4316560000000 1.0
C      1  0.6109670000000  0.6639450000000  0.4444890000000 1.0
C      1  0.4925910000000  0.6639450000000  0.6238560000000 1.0
C      1  0.5347810000000  0.3029450000000  0.5541670000000 1.0
C      1  0.4356980000000  0.3029450000000  0.5030370000000 1.0
C      1  0.5295200000000  0.3029450000000  0.4427940000000 1.0
C      1  0.7074280000000  0.4466010000000  0.3825160000000 1.0
C      1  0.4980300000000  0.4466010000000  0.7383800000000 1.0
C      1  0.2945420000000  0.4466020000000  0.3791040000000 1.0
C      1  0.6663640000000  0.5132120000000  0.6338320000000 1.0
C      1  0.3009170000000  0.5132130000000  0.5771600000000 1.0
C      1  0.5327200000000  0.5132130000000  0.2890090000000 1.0
C      1  0.4765870000000  0.5774010000000  0.7516690000000 1.0
C      1  0.2937550000000  0.5774020000000  0.3538900000000 1.0
C      1  0.7296580000000  0.5774020000000  0.3944430000000 1.0
C      1  0.3874860000000  0.6765260000000  0.6379330000000 1.0
C      1  0.4368040000000  0.6765270000000  0.3335940000000 1.0
C      1  0.6757110000000  0.6765260000000  0.5284740000000 1.0
C      1  0.6370280000000  0.4807810000000  0.3003270000000 1.0
C      1  0.6044080000000  0.4807800000000  0.7185060000000 1.0
C      1  0.2585640000000  0.4807810000000  0.4811670000000 1.0
END
