TITL C-3036479-9801-47 -3.72893444017962e-06 3375 -363.586732007493 0 0 60 (C4) n - 1
REM
REM in /home/bkarasulu/work/CARBON/AIRSS/Generating-Clusters/REBO/Higher-Symm/Only-C60
REM
REM
REM
REM
REM
REM ./C.cell (a2850807a9bf4ad07a5b6933b78d9264)
REM AIRSS Version 0.9.1 bugfix July 2018 build 013d7b7c2542+ Fri, 06 Jul 2018 19:26:36 +0100
REM compiler GCC version 9.2.1 20190827 (Red Hat 9.2.1-1)
REM options -cpp -mtune=generic -march=x86-64 -g -O0 -fpre-include=/usr/include/finclude/math-vector-fortran.h
REM seed 432898076 -1047266964 2142499692 -151503630 412364812 -1804557929 -1158697410 -528307510 -646409639 -757397947 -1936079799 -425418118 941486909 742628681 867773024 -153251024 -1879229823 2040126912 217537502 -905122259 524525343 -30538131 -879397490 -1489592257 335326803 1937610604 -1669143870 776871896 -449895003 -525699113 1228935994 510306676 -1987647814
REM
CELL 1.54180   15.00000   15.00000   15.00000   90.00000   90.00000   90.00000
LATT -1
SFAC C  
C      1  0.6211180000000  0.7494070000000  0.5366970000000 1.0
C      1  0.4632800000000  0.7493980000000  0.6211310000000 1.0
C      1  0.3788460000000  0.7493890000000  0.4632940000000 1.0
C      1  0.5366840000000  0.7493990000000  0.3788590000000 1.0
C      1  0.6186150000000  0.7434410000000  0.4428820000000 1.0
C      1  0.4428700000000  0.7434270000000  0.3813630000000 1.0
C      1  0.3813500000000  0.7434260000000  0.5571090000000 1.0
C      1  0.5570950000000  0.7434400000000  0.6186270000000 1.0
C      1  0.3655600000000  0.4323260000000  0.5492430000000 1.0
C      1  0.4507660000000  0.4323280000000  0.3655560000000 1.0
C      1  0.6344510000000  0.4323430000000  0.4507600000000 1.0
C      1  0.5492450000000  0.4323410000000  0.6344470000000 1.0
C      1  0.3715460000000  0.4524060000000  0.4445140000000 1.0
C      1  0.4445150000000  0.4524150000000  0.6284620000000 1.0
C      1  0.6284610000000  0.4524270000000  0.5554880000000 1.0
C      1  0.5554930000000  0.4524180000000  0.3715400000000 1.0
C      1  0.4462690000000  0.3187240000000  0.3663110000000 1.0
C      1  0.6337050000000  0.3187400000000  0.4462580000000 1.0
C      1  0.5537570000000  0.3187380000000  0.6336960000000 1.0
C      1  0.3663220000000  0.3187230000000  0.5537490000000 1.0
C      1  0.4468910000000  0.3476260000000  0.6237810000000 1.0
C      1  0.6237840000000  0.3476370000000  0.5531210000000 1.0
C      1  0.5531310000000  0.3476280000000  0.3762250000000 1.0
C      1  0.3762380000000  0.3476170000000  0.4468850000000 1.0
C      1  0.7085760000000  0.5899670000000  0.4519330000000 1.0
C      1  0.5480580000000  0.5899600000000  0.7085810000000 1.0
C      1  0.2914110000000  0.5899390000000  0.5480640000000 1.0
C      1  0.4519290000000  0.5899450000000  0.2914160000000 1.0
C      1  0.7058530000000  0.5955080000000  0.5474430000000 1.0
C      1  0.5474390000000  0.5954920000000  0.2941370000000 1.0
C      1  0.2941330000000  0.5954770000000  0.4525540000000 1.0
C      1  0.4525480000000  0.5954940000000  0.7058590000000 1.0
C      1  0.3282390000000  0.6628920000000  0.5975690000000 1.0
C      1  0.4024170000000  0.6628910000000  0.3282480000000 1.0
C      1  0.6717380000000  0.6629130000000  0.4024250000000 1.0
C      1  0.5975600000000  0.6629130000000  0.6717460000000 1.0
C      1  0.3358060000000  0.6703800000000  0.4098550000000 1.0
C      1  0.4098450000000  0.6703910000000  0.6641790000000 1.0
C      1  0.6641690000000  0.6704070000000  0.5901390000000 1.0
C      1  0.5901300000000  0.6703970000000  0.3358140000000 1.0
C      1  0.3870310000000  0.2361400000000  0.4517980000000 1.0
C      1  0.5482280000000  0.2361500000000  0.3870130000000 1.0
C      1  0.6130070000000  0.2361590000000  0.5482120000000 1.0
C      1  0.4518100000000  0.2361480000000  0.6129980000000 1.0
C      1  0.3804680000000  0.2067230000000  0.5480150000000 1.0
C      1  0.5480290000000  0.2067360000000  0.6195600000000 1.0
C      1  0.6195740000000  0.2067380000000  0.4519970000000 1.0
C      1  0.4520130000000  0.2067240000000  0.3804520000000 1.0
C      1  0.3012230000000  0.5133730000000  0.4067060000000 1.0
C      1  0.5932940000000  0.5133930000000  0.3012210000000 1.0
C      1  0.6987760000000  0.5134060000000  0.5932930000000 1.0
C      1  0.4067040000000  0.5133870000000  0.6987790000000 1.0
C      1  0.2959410000000  0.5043250000000  0.5913960000000 1.0
C      1  0.5913950000000  0.5043480000000  0.7040590000000 1.0
C      1  0.7040600000000  0.5043510000000  0.4086040000000 1.0
C      1  0.4086050000000  0.5043260000000  0.2959410000000 1.0
C      1  0.3123920000000  0.5117970000000  0.6855460000000 1.0
C      1  0.6876060000000  0.5118170000000  0.3144530000000 1.0
C      1  0.6855450000000  0.5118230000000  0.6876050000000 1.0
C      1  0.3144540000000  0.5117890000000  0.3123940000000 1.0
END
