TITL C-3036485-3770-1125 -1.3648698781999e-06 3375 -332.224774236834 0 0 60 (C1) n - 1
REM
REM in /home/bkarasulu/work/CARBON/AIRSS/Generating-Clusters/REBO/Higher-Symm/Only-C60
REM
REM
REM
REM
REM
REM ./C.cell (a2850807a9bf4ad07a5b6933b78d9264)
REM AIRSS Version 0.9.1 bugfix July 2018 build 013d7b7c2542+ Fri, 06 Jul 2018 19:26:36 +0100
REM compiler GCC version 9.2.1 20190827 (Red Hat 9.2.1-1)
REM options -cpp -mtune=generic -march=x86-64 -g -O0 -fpre-include=/usr/include/finclude/math-vector-fortran.h
REM seed 572847872 1548133128 -787627645 907190143 64367216 551979025 -938650649 -1724494751 744459501 1088890778 -790460549 -1995829257 625905270 1325661112 -1669462703 -859527092 1381111660 -1803878988 -1508519116 -843725024 316631933 -570265002 443592865 -1519668504 -200754166 441480598 -105033354 674246375 1595051770 1186965160 1389786006 1041475210 668828516
REM
CELL 1.54180   15.00000   15.00000   15.00000   90.00000   90.00000   90.00000
LATT -1
SFAC C  
C      1  0.5545610000000  0.5029790000000  0.6898050000000 1.0
C      1  0.3110690000000  0.5007960000000  0.4522220000000 1.0
C      1  0.6372130000000  0.5021300000000  0.3603840000000 1.0
C      1  0.4124880000000  0.5172180000000  0.6550270000000 1.0
C      1  0.4114630000000  0.5141350000000  0.3480430000000 1.0
C      1  0.6790770000000  0.5177570000000  0.5002050000000 1.0
C      1  0.3573020000000  0.3530920000000  0.3790820000000 1.0
C      1  0.6801930000000  0.3566750000000  0.4386970000000 1.0
C      1  0.4662740000000  0.3570020000000  0.6862330000000 1.0
C      1  0.5772360000000  0.4855700000000  0.5793850000000 1.0
C      1  0.3941310000000  0.4813630000000  0.5282940000000 1.0
C      1  0.5308320000000  0.4827480000000  0.3970590000000 1.0
C      1  0.5818370000000  0.6082960000000  0.6818730000000 1.0
C      1  0.3024450000000  0.6056060000000  0.4796940000000 1.0
C      1  0.6167830000000  0.6067180000000  0.3389810000000 1.0
C      1  0.7242090000000  0.6027180000000  0.3556090000000 1.0
C      1  0.5134440000000  0.6035430000000  0.7666100000000 1.0
C      1  0.2637360000000  0.6003530000000  0.3777350000000 1.0
C      1  0.5061900000000  0.2697780000000  0.5422420000000 1.0
C      1  0.4279640000000  0.2523990000000  0.4679270000000 1.0
C      1  0.5308530000000  0.2461060000000  0.4383360000000 1.0
C      1  0.3254670000000  0.4095390000000  0.5854540000000 1.0
C      1  0.5126510000000  0.4075360000000  0.3127210000000 1.0
C      1  0.6601300000000  0.4119090000000  0.6075370000000 1.0
C      1  0.5940660000000  0.6906760000000  0.5330670000000 1.0
C      1  0.4239320000000  0.6900940000000  0.5650410000000 1.0
C      1  0.4814460000000  0.6891500000000  0.4015390000000 1.0
C      1  0.3032100000000  0.4382450000000  0.3560960000000 1.0
C      1  0.7249790000000  0.4414130000000  0.4019710000000 1.0
C      1  0.4749120000000  0.4413850000000  0.7441450000000 1.0
C      1  0.7514420000000  0.5403460000000  0.4172030000000 1.0
C      1  0.4473120000000  0.5402030000000  0.7593800000000 1.0
C      1  0.3036170000000  0.5370050000000  0.3243510000000 1.0
C      1  0.5278050000000  0.6667780000000  0.6030340000000 1.0
C      1  0.3970130000000  0.6655080000000  0.4728320000000 1.0
C      1  0.5753260000000  0.6661760000000  0.4242890000000 1.0
C      1  0.4070430000000  0.3422460000000  0.6140660000000 1.0
C      1  0.4518840000000  0.3361890000000  0.3683620000000 1.0
C      1  0.6470580000000  0.3417280000000  0.5266890000000 1.0
C      1  0.6932550000000  0.6686620000000  0.5753420000000 1.0
C      1  0.3379710000000  0.6669160000000  0.6296830000000 1.0
C      1  0.4681620000000  0.6645700000000  0.2950510000000 1.0
C      1  0.6154590000000  0.3911670000000  0.3507040000000 1.0
C      1  0.5742200000000  0.3922870000000  0.6741690000000 1.0
C      1  0.3110620000000  0.3905700000000  0.4774500000000 1.0
C      1  0.4786390000000  0.4515040000000  0.5933150000000 1.0
C      1  0.4318150000000  0.4473220000000  0.4362230000000 1.0
C      1  0.5937820000000  0.4511140000000  0.4753580000000 1.0
C      1  0.3097110000000  0.5109680000000  0.6250900000000 1.0
C      1  0.4894980000000  0.5087790000000  0.2744380000000 1.0
C      1  0.7038120000000  0.5132830000000  0.6046300000000 1.0
C      1  0.4111840000000  0.3530800000000  0.5007370000000 1.0
C      1  0.5472610000000  0.3556750000000  0.4301210000000 1.0
C      1  0.5435070000000  0.3576210000000  0.5733990000000 1.0
C      1  0.6817040000000  0.5999980000000  0.6451220000000 1.0
C      1  0.2844190000000  0.5972380000000  0.5849260000000 1.0
C      1  0.5348180000000  0.5959000000000  0.2712930000000 1.0
C      1  0.3988530000000  0.6179060000000  0.3699500000000 1.0
C      1  0.6647960000000  0.6212650000000  0.4776220000000 1.0
C      1  0.4374790000000  0.6210660000000  0.6541590000000 1.0
END
