TITL C-3036485-3770-71 -0.0150304072812978 3375 -336.965682932269 0 0 60 (C1) n - 1
REM
REM in /home/bkarasulu/work/CARBON/AIRSS/Generating-Clusters/REBO/Higher-Symm/Only-C60
REM
REM
REM
REM
REM
REM ./C.cell (a2850807a9bf4ad07a5b6933b78d9264)
REM AIRSS Version 0.9.1 bugfix July 2018 build 013d7b7c2542+ Fri, 06 Jul 2018 19:26:36 +0100
REM compiler GCC version 9.2.1 20190827 (Red Hat 9.2.1-1)
REM options -cpp -mtune=generic -march=x86-64 -g -O0 -fpre-include=/usr/include/finclude/math-vector-fortran.h
REM seed 1730289154 1255488787 531250775 -2053004650 -1025535147 -400291580 350012246 1445253870 97487228 78586957 598253673 968115430 -1471106084 -938052909 -972392 769026299 485645057 -678024277 224246645 -1043681134 1588248196 699737512 -1845282214 948437530 807099497 -1863711823 813156114 1573197236 -560552527 812995700 1124165402 -1717016524 -1852345622
REM
CELL 1.54180   15.00000   15.00000   15.00000   90.00000   90.00000   90.00000
LATT -1
SFAC C  
C      1  0.3715670000000  0.4700940000000  0.3343210000000 1.0
C      1  0.3737330000000  0.4654060000000  0.6768140000000 1.0
C      1  0.4478130000000  0.2966620000000  0.6293680000000 1.0
C      1  0.4581520000000  0.3042920000000  0.3768250000000 1.0
C      1  0.3021490000000  0.5741820000000  0.5520770000000 1.0
C      1  0.2951190000000  0.5730750000000  0.4560470000000 1.0
C      1  0.5406870000000  0.7733260000000  0.6208780000000 1.0
C      1  0.5550520000000  0.7807350000000  0.3743050000000 1.0
C      1  0.6024850000000  0.4562300000000  0.5442060000000 1.0
C      1  0.6097240000000  0.4601130000000  0.4410860000000 1.0
C      1  0.3009850000000  0.4984800000000  0.6065510000000 1.0
C      1  0.2994830000000  0.4923350000000  0.4082110000000 1.0
C      1  0.6671410000000  0.6224640000000  0.5436090000000 1.0
C      1  0.6687520000000  0.6248500000000  0.4525080000000 1.0
C      1  0.3597040000000  0.4206930000000  0.4570870000000 1.0
C      1  0.3383060000000  0.4095560000000  0.5618480000000 1.0
C      1  0.6843080000000  0.6088480000000  0.6405080000000 1.0
C      1  0.6852280000000  0.6164110000000  0.3544730000000 1.0
C      1  0.4904150000000  0.6724430000000  0.6356600000000 1.0
C      1  0.5030880000000  0.6828650000000  0.3499700000000 1.0
C      1  0.3813690000000  0.2481870000000  0.5561830000000 1.0
C      1  0.3966970000000  0.2552020000000  0.4490870000000 1.0
C      1  0.7074000000000  0.3713830000000  0.4306750000000 1.0
C      1  0.6914120000000  0.3583130000000  0.5429370000000 1.0
C      1  0.3399160000000  0.7374400000000  0.5422260000000 1.0
C      1  0.3325340000000  0.7367910000000  0.4578390000000 1.0
C      1  0.4460160000000  0.6689610000000  0.4415720000000 1.0
C      1  0.4527130000000  0.6679060000000  0.5280380000000 1.0
C      1  0.4230100000000  0.4854720000000  0.5545930000000 1.0
C      1  0.4380150000000  0.4999560000000  0.4456100000000 1.0
C      1  0.6220210000000  0.3908680000000  0.3569850000000 1.0
C      1  0.6146840000000  0.3822440000000  0.6268300000000 1.0
C      1  0.5748290000000  0.7185610000000  0.5445300000000 1.0
C      1  0.5775180000000  0.7219470000000  0.4524150000000 1.0
C      1  0.5266040000000  0.5176520000000  0.5742870000000 1.0
C      1  0.5342540000000  0.5248870000000  0.4156920000000 1.0
C      1  0.5682420000000  0.4762940000000  0.6708810000000 1.0
C      1  0.5692540000000  0.4828190000000  0.3166190000000 1.0
C      1  0.6254490000000  0.5684850000000  0.6963630000000 1.0
C      1  0.6265480000000  0.5772510000000  0.2978290000000 1.0
C      1  0.4054760000000  0.3806630000000  0.6735690000000 1.0
C      1  0.4110500000000  0.3879080000000  0.3349680000000 1.0
C      1  0.3217030000000  0.3217540000000  0.4643150000000 1.0
C      1  0.2972740000000  0.3108160000000  0.5690440000000 1.0
C      1  0.7165810000000  0.4717710000000  0.4784930000000 1.0
C      1  0.7098200000000  0.4625070000000  0.5861940000000 1.0
C      1  0.3667200000000  0.6457080000000  0.5941410000000 1.0
C      1  0.3486240000000  0.6445010000000  0.4031790000000 1.0
C      1  0.6216050000000  0.2732360000000  0.5508680000000 1.0
C      1  0.6385540000000  0.2897090000000  0.4418430000000 1.0
C      1  0.5656960000000  0.3018290000000  0.3555410000000 1.0
C      1  0.5582010000000  0.2955300000000  0.6425540000000 1.0
C      1  0.4189130000000  0.5601660000000  0.6402960000000 1.0
C      1  0.4201260000000  0.5690760000000  0.3570670000000 1.0
C      1  0.5128770000000  0.2412240000000  0.5541940000000 1.0
C      1  0.5293130000000  0.2616800000000  0.4555190000000 1.0
C      1  0.5631280000000  0.6117610000000  0.5752060000000 1.0
C      1  0.5663930000000  0.6180600000000  0.4148490000000 1.0
C      1  0.5131550000000  0.5823610000000  0.2981550000000 1.0
C      1  0.5124170000000  0.5760610000000  0.6924620000000 1.0
END
