TITL C-3036485-3770-777 3.51810388896802e-06 3375 -361.756682747014 0 0 60 (C3) n - 1
REM
REM in /home/bkarasulu/work/CARBON/AIRSS/Generating-Clusters/REBO/Higher-Symm/Only-C60
REM
REM
REM
REM
REM
REM ./C.cell (a2850807a9bf4ad07a5b6933b78d9264)
REM AIRSS Version 0.9.1 bugfix July 2018 build 013d7b7c2542+ Fri, 06 Jul 2018 19:26:36 +0100
REM compiler GCC version 9.2.1 20190827 (Red Hat 9.2.1-1)
REM options -cpp -mtune=generic -march=x86-64 -g -O0 -fpre-include=/usr/include/finclude/math-vector-fortran.h
REM seed 1236807119 29448003 -1593006962 -510434394 722855948 1847750229 45881065 637540775 -1455060168 396474985 -1486815714 -519458385 1420838026 -154278275 -1599100246 -1186146857 381332891 -1577682048 -660891955 -1353725809 1447733428 1914947574 -1845193694 -761850498 92708750 -1608643240 -4339893 470989582 -304640576 -1967799536 -1246454636 -2016770014 -130555130
REM
CELL 1.54180   15.00000   15.00000   15.00000   90.00000   90.00000   90.00000
LATT -1
SFAC C  
C      1  0.4464280000000  0.6333560000000  0.6928700000000 1.0
C      1  0.7001880000000  0.4314180000000  0.6184170000000 1.0
C      1  0.6338080000000  0.6920290000000  0.4506450000000 1.0
C      1  0.5526360000000  0.6365340000000  0.3105370000000 1.0
C      1  0.4506210000000  0.3661960000000  0.3079740000000 1.0
C      1  0.5686120000000  0.3815270000000  0.7001440000000 1.0
C      1  0.3105120000000  0.4473370000000  0.3635110000000 1.0
C      1  0.6928260000000  0.5536180000000  0.3665980000000 1.0
C      1  0.3079990000000  0.5493340000000  0.6338560000000 1.0
C      1  0.3634880000000  0.6894590000000  0.5527100000000 1.0
C      1  0.6184730000000  0.2998300000000  0.5685390000000 1.0
C      1  0.3666210000000  0.3071530000000  0.4464030000000 1.0
C      1  0.7010800000000  0.6198030000000  0.4328360000000 1.0
C      1  0.6337310000000  0.4487110000000  0.6922410000000 1.0
C      1  0.4299660000000  0.6987430000000  0.6178280000000 1.0
C      1  0.2982330000000  0.6144420000000  0.5670340000000 1.0
C      1  0.3012360000000  0.3822020000000  0.4299740000000 1.0
C      1  0.6922790000000  0.3663020000000  0.5512310000000 1.0
C      1  0.3855160000000  0.4330250000000  0.2982370000000 1.0
C      1  0.3802400000000  0.5671210000000  0.7011190000000 1.0
C      1  0.6177640000000  0.5700690000000  0.3012320000000 1.0
C      1  0.5669660000000  0.7017880000000  0.3855550000000 1.0
C      1  0.5513010000000  0.3077220000000  0.6336720000000 1.0
C      1  0.4328430000000  0.2989150000000  0.3802010000000 1.0
C      1  0.4534190000000  0.7050280000000  0.3667290000000 1.0
C      1  0.3721780000000  0.4520310000000  0.6981180000000 1.0
C      1  0.7143470000000  0.3611990000000  0.4393740000000 1.0
C      1  0.5429930000000  0.7061200000000  0.6371970000000 1.0
C      1  0.4394500000000  0.2856330000000  0.6388020000000 1.0
C      1  0.5479320000000  0.3019120000000  0.3721180000000 1.0
C      1  0.6371530000000  0.4570470000000  0.2938430000000 1.0
C      1  0.3666670000000  0.5465690000000  0.2950100000000 1.0
C      1  0.6388450000000  0.5605620000000  0.7143360000000 1.0
C      1  0.2938790000000  0.3628050000000  0.5429970000000 1.0
C      1  0.6981060000000  0.6278570000000  0.5479270000000 1.0
C      1  0.2949720000000  0.6332970000000  0.4534910000000 1.0
C      1  0.3663250000000  0.7099520000000  0.4404730000000 1.0
C      1  0.7171950000000  0.4424210000000  0.3597810000000 1.0
C      1  0.4539390000000  0.3714420000000  0.6982750000000 1.0
C      1  0.6303340000000  0.7072010000000  0.5636790000000 1.0
C      1  0.6285360000000  0.3017280000000  0.4538640000000 1.0
C      1  0.3598360000000  0.2827740000000  0.5576010000000 1.0
C      1  0.2928200000000  0.4363020000000  0.6303570000000 1.0
C      1  0.2900270000000  0.5595750000000  0.3663800000000 1.0
C      1  0.6982990000000  0.5460900000000  0.6285110000000 1.0
C      1  0.5636510000000  0.3696920000000  0.2927750000000 1.0
C      1  0.5576300000000  0.6401600000000  0.7172200000000 1.0
C      1  0.4403940000000  0.6336780000000  0.2900720000000 1.0
C      1  0.5281310000000  0.7099280000000  0.5291660000000 1.0
C      1  0.7063850000000  0.5227740000000  0.5228040000000 1.0
C      1  0.4688320000000  0.7103010000000  0.4745160000000 1.0
C      1  0.5228370000000  0.2936210000000  0.4772070000000 1.0
C      1  0.4655840000000  0.2882400000000  0.5335320000000 1.0
C      1  0.4744560000000  0.5311770000000  0.2897080000000 1.0
C      1  0.4772640000000  0.4771450000000  0.7063830000000 1.0
C      1  0.2896950000000  0.5255060000000  0.4688780000000 1.0
C      1  0.7117520000000  0.4664630000000  0.4655350000000 1.0
C      1  0.2900760000000  0.4708410000000  0.5281630000000 1.0
C      1  0.5291180000000  0.4718880000000  0.2900630000000 1.0
C      1  0.5335790000000  0.5344090000000  0.7117540000000 1.0
END
