TITL C-3036480-97-421 0.00563610200245 3375 -339.797537757605 0 0 60 (C1) n - 1
REM
REM in /home/bkarasulu/work/CARBON/AIRSS/Generating-Clusters/REBO/Higher-Symm/Only-C60
REM
REM
REM
REM
REM
REM ./C.cell (a2850807a9bf4ad07a5b6933b78d9264)
REM AIRSS Version 0.9.1 bugfix July 2018 build 013d7b7c2542+ Fri, 06 Jul 2018 19:26:36 +0100
REM compiler GCC version 9.2.1 20190827 (Red Hat 9.2.1-1)
REM options -cpp -mtune=generic -march=x86-64 -g -O0 -fpre-include=/usr/include/finclude/math-vector-fortran.h
REM seed 1174027779 325106362 740322196 -1253907863 1786952709 -837334707 -1426834787 -947093400 365280948 -221499976 -1699488115 -1452783479 -1188415955 484907898 -901258949 -371405469 -900246856 -1085878935 1413096571 -2137081212 -972039895 -525284074 931238742 -1520200880 -2301083 -662103509 -1431409328 2046435161 -1401593947 -2134553639 1635783046 -987329746 -758396578
REM
CELL 1.54180   15.00000   15.00000   15.00000   90.00000   90.00000   90.00000
LATT -1
SFAC C  
C      1  0.3108960000000  0.5755280000000  0.6445850000000 1.0
C      1  0.4142170000000  0.2493950000000  0.5570650000000 1.0
C      1  0.4113270000000  0.3843130000000  0.6471710000000 1.0
C      1  0.3521550000000  0.6630990000000  0.5894760000000 1.0
C      1  0.4721010000000  0.4042340000000  0.4284210000000 1.0
C      1  0.4512300000000  0.2921180000000  0.6343600000000 1.0
C      1  0.5229940000000  0.4961500000000  0.3977110000000 1.0
C      1  0.4319970000000  0.7027680000000  0.5600910000000 1.0
C      1  0.2718280000000  0.4680510000000  0.4034520000000 1.0
C      1  0.3176250000000  0.5952820000000  0.5138700000000 1.0
C      1  0.6054000000000  0.2758690000000  0.5478210000000 1.0
C      1  0.4787170000000  0.5525790000000  0.4792590000000 1.0
C      1  0.5651420000000  0.2841860000000  0.4628750000000 1.0
C      1  0.4306100000000  0.6730900000000  0.3771290000000 1.0
C      1  0.4669170000000  0.4416540000000  0.7002180000000 1.0
C      1  0.6418370000000  0.6126150000000  0.3589520000000 1.0
C      1  0.3952010000000  0.5473690000000  0.3521440000000 1.0
C      1  0.2591940000000  0.5044610000000  0.5909320000000 1.0
C      1  0.4712760000000  0.6507460000000  0.4730410000000 1.0
C      1  0.5808330000000  0.3823990000000  0.4359920000000 1.0
C      1  0.5614190000000  0.3536660000000  0.3073540000000 1.0
C      1  0.6473260000000  0.5716850000000  0.6658640000000 1.0
C      1  0.2882350000000  0.5711780000000  0.4270620000000 1.0
C      1  0.5350080000000  0.6515680000000  0.3383330000000 1.0
C      1  0.3796200000000  0.4013160000000  0.5436570000000 1.0
C      1  0.6632300000000  0.4190540000000  0.4245410000000 1.0
C      1  0.7120440000000  0.5753500000000  0.4232460000000 1.0
C      1  0.7050720000000  0.5538210000000  0.5844230000000 1.0
C      1  0.5878070000000  0.5313240000000  0.3172450000000 1.0
C      1  0.3107600000000  0.3968560000000  0.3557280000000 1.0
C      1  0.5958370000000  0.5079640000000  0.5241530000000 1.0
C      1  0.4970390000000  0.7717060000000  0.5873960000000 1.0
C      1  0.4918610000000  0.3042710000000  0.3776110000000 1.0
C      1  0.3801150000000  0.3148830000000  0.3948980000000 1.0
C      1  0.4700710000000  0.4655200000000  0.5515470000000 1.0
C      1  0.4764180000000  0.6211780000000  0.6808080000000 1.0
C      1  0.6846920000000  0.4563120000000  0.5549270000000 1.0
C      1  0.5513810000000  0.7227020000000  0.5053960000000 1.0
C      1  0.5591440000000  0.6358930000000  0.6378480000000 1.0
C      1  0.4709250000000  0.5344850000000  0.7314160000000 1.0
C      1  0.6024870000000  0.7050870000000  0.4073370000000 1.0
C      1  0.5715400000000  0.5595880000000  0.7505330000000 1.0
C      1  0.4724850000000  0.4528010000000  0.3043860000000 1.0
C      1  0.5823880000000  0.5961320000000  0.5501560000000 1.0
C      1  0.4073360000000  0.3885780000000  0.3128820000000 1.0
C      1  0.7081980000000  0.6154210000000  0.5104730000000 1.0
C      1  0.6635650000000  0.3600100000000  0.5734500000000 1.0
C      1  0.6583590000000  0.6957760000000  0.5055270000000 1.0
C      1  0.3909400000000  0.5368450000000  0.5777240000000 1.0
C      1  0.5595390000000  0.4120060000000  0.5649390000000 1.0
C      1  0.3978310000000  0.4839020000000  0.4410860000000 1.0
C      1  0.3801330000000  0.3102020000000  0.4967480000000 1.0
C      1  0.7256720000000  0.4832160000000  0.4174350000000 1.0
C      1  0.6214830000000  0.4727980000000  0.7159900000000 1.0
C      1  0.3376930000000  0.6313130000000  0.3586590000000 1.0
C      1  0.5588330000000  0.4053780000000  0.6976920000000 1.0
C      1  0.6022460000000  0.4252740000000  0.2955030000000 1.0
C      1  0.3061920000000  0.4631570000000  0.5068180000000 1.0
C      1  0.5512420000000  0.3204620000000  0.6323290000000 1.0
C      1  0.4823350000000  0.5654160000000  0.2923160000000 1.0
END
