TITL C-3036486-2224-270 -1.60649379545352e-05 3375 -328.570589086437 0 0 60 (C1) n - 1
REM
REM in /home/bkarasulu/work/CARBON/AIRSS/Generating-Clusters/REBO/Higher-Symm/Only-C60
REM
REM
REM
REM
REM
REM ./C.cell (a2850807a9bf4ad07a5b6933b78d9264)
REM AIRSS Version 0.9.1 bugfix July 2018 build 013d7b7c2542+ Fri, 06 Jul 2018 19:26:36 +0100
REM compiler GCC version 9.2.1 20190827 (Red Hat 9.2.1-1)
REM options -cpp -mtune=generic -march=x86-64 -g -O0 -fpre-include=/usr/include/finclude/math-vector-fortran.h
REM seed -1258233962 -632963827 1838777519 -296708138 -9998528 -21810673 244881971 -1396328283 933400008 -1701763406 595080660 -1633100721 -545497718 607323817 1508440703 -2085364636 -89311930 -1252231998 23249219 -1510880527 45286848 1030262533 2106605621 743992242 928939149 -105664034 643696108 588933833 1637176641 -1092724359 -494662578 -1002542254 580837307
REM
CELL 1.54180   15.00000   15.00000   15.00000   90.00000   90.00000   90.00000
LATT -1
SFAC C  
C      1  0.6602640000000  0.3861440000000  0.6748690000000 1.0
C      1  0.6555820000000  0.3766600000000  0.3208560000000 1.0
C      1  0.7088910000000  0.5219960000000  0.3371650000000 1.0
C      1  0.7064100000000  0.5305260000000  0.6641850000000 1.0
C      1  0.4786540000000  0.3807580000000  0.4256770000000 1.0
C      1  0.4835640000000  0.3880390000000  0.5787260000000 1.0
C      1  0.3070120000000  0.5545540000000  0.5995940000000 1.0
C      1  0.2806560000000  0.5489420000000  0.3820710000000 1.0
C      1  0.2012080000000  0.5554180000000  0.5592990000000 1.0
C      1  0.1950380000000  0.5429910000000  0.4564730000000 1.0
C      1  0.3588400000000  0.5467800000000  0.6859140000000 1.0
C      1  0.3587170000000  0.5524160000000  0.3071450000000 1.0
C      1  0.5315670000000  0.7245190000000  0.4502180000000 1.0
C      1  0.5541390000000  0.7233870000000  0.5592560000000 1.0
C      1  0.5746960000000  0.3192600000000  0.3590370000000 1.0
C      1  0.5808590000000  0.3246660000000  0.6422110000000 1.0
C      1  0.5775150000000  0.6775310000000  0.6590400000000 1.0
C      1  0.5772220000000  0.6763850000000  0.3616110000000 1.0
C      1  0.4261520000000  0.4676570000000  0.7099810000000 1.0
C      1  0.4237830000000  0.4703160000000  0.2865480000000 1.0
C      1  0.4069500000000  0.6246070000000  0.7108500000000 1.0
C      1  0.4106590000000  0.6300860000000  0.2912180000000 1.0
C      1  0.2592440000000  0.4541250000000  0.4371310000000 1.0
C      1  0.2661280000000  0.4676080000000  0.5391770000000 1.0
C      1  0.3609210000000  0.6201230000000  0.5373580000000 1.0
C      1  0.3494400000000  0.6071430000000  0.4303550000000 1.0
C      1  0.6387210000000  0.4717550000000  0.2987350000000 1.0
C      1  0.6384110000000  0.4761890000000  0.7015260000000 1.0
C      1  0.5139610000000  0.6097800000000  0.3206920000000 1.0
C      1  0.5096160000000  0.6100430000000  0.6843350000000 1.0
C      1  0.4744030000000  0.3513820000000  0.3171360000000 1.0
C      1  0.4799870000000  0.3487630000000  0.6851050000000 1.0
C      1  0.4496120000000  0.5781860000000  0.5935100000000 1.0
C      1  0.4480290000000  0.5711560000000  0.4043260000000 1.0
C      1  0.7159740000000  0.4076120000000  0.4050900000000 1.0
C      1  0.7221380000000  0.4004480000000  0.5910560000000 1.0
C      1  0.6332060000000  0.5476970000000  0.4427070000000 1.0
C      1  0.6475700000000  0.5509950000000  0.5469800000000 1.0
C      1  0.5243240000000  0.2850820000000  0.4549510000000 1.0
C      1  0.5255490000000  0.2874890000000  0.5515460000000 1.0
C      1  0.4815730000000  0.4944500000000  0.5525120000000 1.0
C      1  0.4766930000000  0.4891370000000  0.4510650000000 1.0
C      1  0.6174940000000  0.6515060000000  0.4647820000000 1.0
C      1  0.6415830000000  0.6525440000000  0.5734250000000 1.0
C      1  0.5297560000000  0.5003200000000  0.3143190000000 1.0
C      1  0.5300790000000  0.5021820000000  0.6798150000000 1.0
C      1  0.4353890000000  0.6770310000000  0.4430510000000 1.0
C      1  0.4557030000000  0.6816770000000  0.5503930000000 1.0
C      1  0.7452000000000  0.5025980000000  0.5604570000000 1.0
C      1  0.7368280000000  0.5075750000000  0.4472030000000 1.0
C      1  0.5730440000000  0.4738450000000  0.4139920000000 1.0
C      1  0.5818320000000  0.4780730000000  0.5815070000000 1.0
C      1  0.3740710000000  0.3939920000000  0.3484360000000 1.0
C      1  0.3773150000000  0.3861200000000  0.6550620000000 1.0
C      1  0.3722940000000  0.3922960000000  0.4560370000000 1.0
C      1  0.3740520000000  0.3904520000000  0.5499610000000 1.0
C      1  0.4217810000000  0.4449480000000  0.1949400000000 1.0
C      1  0.4266520000000  0.4479230000000  0.8031340000000 1.0
C      1  0.6180180000000  0.3825840000000  0.5494500000000 1.0
C      1  0.6150310000000  0.3815310000000  0.4468030000000 1.0
END
