TITL C-3036479-9801-234 8.19275523060438e-07 3375 -342.678769819873 0 0 60 (C1) n - 1
REM
REM in /home/bkarasulu/work/CARBON/AIRSS/Generating-Clusters/REBO/Higher-Symm/Only-C60
REM
REM
REM
REM
REM
REM ./C.cell (a2850807a9bf4ad07a5b6933b78d9264)
REM AIRSS Version 0.9.1 bugfix July 2018 build 013d7b7c2542+ Fri, 06 Jul 2018 19:26:36 +0100
REM compiler GCC version 9.2.1 20190827 (Red Hat 9.2.1-1)
REM options -cpp -mtune=generic -march=x86-64 -g -O0 -fpre-include=/usr/include/finclude/math-vector-fortran.h
REM seed 876900654 83326935 -197566454 -441198177 341273828 2044868955 -1832501001 681630507 -2129693805 -1293885063 -1862646199 407640966 1786994800 1608145501 -1822983157 1285558518 -733531878 853431087 1823239017 -858336376 -2101434910 -1426557036 -938071809 -937555964 -854511994 -1599684234 997036483 -1246954769 1126573444 -331147100 -1188504932 -1682399196 -863767119
REM
CELL 1.54180   15.00000   15.00000   15.00000   90.00000   90.00000   90.00000
LATT -1
SFAC C  
C      1  0.6355610000000  0.4785390000000  0.5352100000000 1.0
C      1  0.3207120000000  0.4638720000000  0.5573760000000 1.0
C      1  0.4468050000000  0.3529500000000  0.4527020000000 1.0
C      1  0.5444790000000  0.3454380000000  0.4521900000000 1.0
C      1  0.4245940000000  0.6438100000000  0.6869430000000 1.0
C      1  0.6022480000000  0.6466370000000  0.6729310000000 1.0
C      1  0.6422090000000  0.4226130000000  0.2823100000000 1.0
C      1  0.3665840000000  0.4271900000000  0.2784610000000 1.0
C      1  0.3065200000000  0.5132390000000  0.3226960000000 1.0
C      1  0.7047770000000  0.5088690000000  0.3229760000000 1.0
C      1  0.5833290000000  0.3846570000000  0.6148310000000 1.0
C      1  0.4032520000000  0.3819750000000  0.6213840000000 1.0
C      1  0.6465870000000  0.4444260000000  0.7154650000000 1.0
C      1  0.3567120000000  0.4380830000000  0.7328560000000 1.0
C      1  0.5490090000000  0.3564350000000  0.2882540000000 1.0
C      1  0.4564310000000  0.3569750000000  0.2872930000000 1.0
C      1  0.6892250000000  0.4625510000000  0.6341940000000 1.0
C      1  0.2923030000000  0.4408190000000  0.6648960000000 1.0
C      1  0.5613590000000  0.5357540000000  0.4404430000000 1.0
C      1  0.4493710000000  0.5305060000000  0.4449830000000 1.0
C      1  0.7008360000000  0.4791110000000  0.4526930000000 1.0
C      1  0.2933610000000  0.4671750000000  0.4508310000000 1.0
C      1  0.5331350000000  0.4426000000000  0.4998580000000 1.0
C      1  0.4183740000000  0.4412840000000  0.5030230000000 1.0
C      1  0.5414520000000  0.3328460000000  0.6808490000000 1.0
C      1  0.4507390000000  0.3356080000000  0.6872380000000 1.0
C      1  0.4019060000000  0.7043670000000  0.5098340000000 1.0
C      1  0.6128950000000  0.7102500000000  0.5044030000000 1.0
C      1  0.5635910000000  0.6673670000000  0.5785450000000 1.0
C      1  0.4556820000000  0.6657030000000  0.5877030000000 1.0
C      1  0.7656400000000  0.6489310000000  0.4656570000000 1.0
C      1  0.2485940000000  0.6416190000000  0.4741570000000 1.0
C      1  0.5509220000000  0.4724980000000  0.7491340000000 1.0
C      1  0.4539990000000  0.4705210000000  0.7528870000000 1.0
C      1  0.3715120000000  0.6369900000000  0.4231980000000 1.0
C      1  0.6424360000000  0.6454200000000  0.4152670000000 1.0
C      1  0.6521530000000  0.3490880000000  0.5612650000000 1.0
C      1  0.3553760000000  0.3354550000000  0.5536520000000 1.0
C      1  0.4031080000000  0.3401450000000  0.3715090000000 1.0
C      1  0.5957920000000  0.3403100000000  0.3753640000000 1.0
C      1  0.4065510000000  0.5293740000000  0.3533630000000 1.0
C      1  0.6053990000000  0.5285580000000  0.3531870000000 1.0
C      1  0.4132810000000  0.5559760000000  0.7079650000000 1.0
C      1  0.5869620000000  0.5619580000000  0.7009510000000 1.0
C      1  0.3158400000000  0.3582590000000  0.4769970000000 1.0
C      1  0.7021850000000  0.3721780000000  0.4909400000000 1.0
C      1  0.5347420000000  0.5686220000000  0.5424660000000 1.0
C      1  0.4276380000000  0.5657140000000  0.5482150000000 1.0
C      1  0.2940970000000  0.5651180000000  0.4154290000000 1.0
C      1  0.7179010000000  0.5716190000000  0.4101370000000 1.0
C      1  0.5510090000000  0.7016370000000  0.4119260000000 1.0
C      1  0.4607350000000  0.6970280000000  0.4154880000000 1.0
C      1  0.5615860000000  0.4951220000000  0.6184970000000 1.0
C      1  0.4055900000000  0.4955190000000  0.6230880000000 1.0
C      1  0.6885480000000  0.3919200000000  0.3814600000000 1.0
C      1  0.3079110000000  0.3904340000000  0.3686160000000 1.0
C      1  0.5500690000000  0.4892380000000  0.2804470000000 1.0
C      1  0.4614440000000  0.4897750000000  0.2803730000000 1.0
C      1  0.2948970000000  0.7006550000000  0.5117490000000 1.0
C      1  0.7200450000000  0.7086700000000  0.5032450000000 1.0
END
