TITL C-3036481-494-1056 -0.156065835503192 3375 -340.388940014697 0 0 60 (D3) n - 1
REM
REM in /home/bkarasulu/work/CARBON/AIRSS/Generating-Clusters/REBO/Higher-Symm/Only-C60
REM
REM
REM
REM
REM
REM ./C.cell (a2850807a9bf4ad07a5b6933b78d9264)
REM AIRSS Version 0.9.1 bugfix July 2018 build 013d7b7c2542+ Fri, 06 Jul 2018 19:26:36 +0100
REM compiler GCC version 9.2.1 20190827 (Red Hat 9.2.1-1)
REM options -cpp -mtune=generic -march=x86-64 -g -O0 -fpre-include=/usr/include/finclude/math-vector-fortran.h
REM seed -1769816149 745223110 18870931 1318100023 1763841531 542206344 -433049147 -1084738318 791806147 599247145 1196639008 826708292 -74727004 1588026177 97672414 -112134381 -1509849965 227634209 1956006265 1463294225 -1775433481 -1012813349 -1896917218 1655509149 -1586920483 -899367451 -464813269 1881351114 245327404 1561166002 1458510348 1792036775 734873586
REM
CELL 1.54180   15.00000   15.00000   15.00000   90.00000   90.00000   90.00000
LATT -1
SFAC C  
C      1  0.4197440000000  0.3605680000000  0.5590180000000 1.0
C      1  0.6608910000000  0.5002350000000  0.5590440000000 1.0
C      1  0.4193800000000  0.6392060000000  0.5590230000000 1.0
C      1  0.5802570000000  0.3605200000000  0.4409430000000 1.0
C      1  0.3391290000000  0.5002520000000  0.4409940000000 1.0
C      1  0.5806140000000  0.6391440000000  0.4410190000000 1.0
C      1  0.5285910000000  0.2775850000000  0.4050390000000 1.0
C      1  0.6782940000000  0.6359650000000  0.4050570000000 1.0
C      1  0.2931390000000  0.5864740000000  0.4050750000000 1.0
C      1  0.4713830000000  0.2775910000000  0.5949490000000 1.0
C      1  0.3217200000000  0.6359610000000  0.5949110000000 1.0
C      1  0.7068910000000  0.5864460000000  0.5949160000000 1.0
C      1  0.6603570000000  0.4887120000000  0.4608250000000 1.0
C      1  0.4295650000000  0.6444650000000  0.4608560000000 1.0
C      1  0.4100240000000  0.3667690000000  0.4608280000000 1.0
C      1  0.3396200000000  0.4887470000000  0.5391820000000 1.0
C      1  0.5704270000000  0.6445160000000  0.5391880000000 1.0
C      1  0.5898960000000  0.3667160000000  0.5391410000000 1.0
C      1  0.5231620000000  0.6964250000000  0.3815440000000 1.0
C      1  0.3183140000000  0.4218650000000  0.3815320000000 1.0
C      1  0.6585300000000  0.3816820000000  0.3814900000000 1.0
C      1  0.4767870000000  0.6964460000000  0.6185010000000 1.0
C      1  0.6818110000000  0.4218890000000  0.6185440000000 1.0
C      1  0.3414780000000  0.3817050000000  0.6185050000000 1.0
C      1  0.5556340000000  0.3056870000000  0.6207450000000 1.0
C      1  0.6404520000000  0.6453280000000  0.6207300000000 1.0
C      1  0.3039170000000  0.5489860000000  0.6207650000000 1.0
C      1  0.4443640000000  0.3057150000000  0.3792620000000 1.0
C      1  0.3596100000000  0.6453260000000  0.3792460000000 1.0
C      1  0.6961170000000  0.5489730000000  0.3792550000000 1.0
C      1  0.4535930000000  0.7484720000000  0.4250740000000 1.0
C      1  0.3081600000000  0.3356640000000  0.4250450000000 1.0
C      1  0.7382090000000  0.4160510000000  0.4250470000000 1.0
C      1  0.5463570000000  0.7483200000000  0.5749110000000 1.0
C      1  0.6917810000000  0.3357300000000  0.5749610000000 1.0
C      1  0.2617630000000  0.4160240000000  0.5749470000000 1.0
C      1  0.3752060000000  0.4257080000000  0.6960420000000 1.0
C      1  0.6267480000000  0.4290780000000  0.6960550000000 1.0
C      1  0.4980590000000  0.6452160000000  0.6960110000000 1.0
C      1  0.6248070000000  0.4257070000000  0.3039610000000 1.0
C      1  0.3732750000000  0.4290620000000  0.3039670000000 1.0
C      1  0.5019160000000  0.6451780000000  0.3040240000000 1.0
C      1  0.5632450000000  0.5733880000000  0.2984630000000 1.0
C      1  0.4048080000000  0.5180400000000  0.2984170000000 1.0
C      1  0.5319740000000  0.4085520000000  0.2984050000000 1.0
C      1  0.4367840000000  0.5733870000000  0.7015510000000 1.0
C      1  0.5951760000000  0.5180420000000  0.7015630000000 1.0
C      1  0.4680550000000  0.4085440000000  0.7015490000000 1.0
C      1  0.4895300000000  0.4315450000000  0.4090550000000 1.0
C      1  0.5645090000000  0.5250630000000  0.4090250000000 1.0
C      1  0.4459700000000  0.5433430000000  0.4090310000000 1.0
C      1  0.5104800000000  0.4315890000000  0.5909280000000 1.0
C      1  0.4354470000000  0.5251060000000  0.5909430000000 1.0
C      1  0.5540200000000  0.5433220000000  0.5909360000000 1.0
C      1  0.3546680000000  0.5194830000000  0.6970610000000 1.0
C      1  0.5558100000000  0.3644010000000  0.6970140000000 1.0
C      1  0.5895270000000  0.6161140000000  0.6970070000000 1.0
C      1  0.6453570000000  0.5194760000000  0.3029600000000 1.0
C      1  0.4442120000000  0.3644000000000  0.3029710000000 1.0
C      1  0.4104540000000  0.6160970000000  0.3029480000000 1.0
END
