TITL C-3036485-3770-264 2.70887507238492e-06 3375 -381.900819710748 0 0 60 (S4) n - 1
REM
REM in /home/bkarasulu/work/CARBON/AIRSS/Generating-Clusters/REBO/Higher-Symm/Only-C60
REM
REM
REM
REM
REM
REM ./C.cell (a2850807a9bf4ad07a5b6933b78d9264)
REM AIRSS Version 0.9.1 bugfix July 2018 build 013d7b7c2542+ Fri, 06 Jul 2018 19:26:36 +0100
REM compiler GCC version 9.2.1 20190827 (Red Hat 9.2.1-1)
REM options -cpp -mtune=generic -march=x86-64 -g -O0 -fpre-include=/usr/include/finclude/math-vector-fortran.h
REM seed 1072383333 -2145893345 248560727 1929683112 165187051 -1221697726 1681013622 -774309204 -94454800 2046072558 -681049655 1907677799 -1119468439 -392705217 -55648268 1593623766 463334829 -333382783 -2035239986 -414656475 -570470631 853169108 551961562 -285714622 -1171237336 2096219615 199040555 -1357847914 580995772 390408278 1173304886 -11891999 549206759
REM
CELL 1.54180   15.00000   15.00000   15.00000   90.00000   90.00000   90.00000
LATT -1
SFAC C  
C      1  0.5442760000000  0.7156900000000  0.6128190000000 1.0
C      1  0.7105610000000  0.6069580000000  0.5453680000000 1.0
C      1  0.6073350000000  0.5458460000000  0.7127880000000 1.0
C      1  0.4557140000000  0.7156790000000  0.3871640000000 1.0
C      1  0.4680460000000  0.2717230000000  0.6021100000000 1.0
C      1  0.5319640000000  0.2717160000000  0.3979090000000 1.0
C      1  0.2894340000000  0.6069450000000  0.4546230000000 1.0
C      1  0.2658310000000  0.3922250000000  0.5316840000000 1.0
C      1  0.7341740000000  0.3922330000000  0.4683250000000 1.0
C      1  0.3926630000000  0.5458240000000  0.2872090000000 1.0
C      1  0.3923010000000  0.4687370000000  0.7315300000000 1.0
C      1  0.6077010000000  0.4687230000000  0.2684730000000 1.0
C      1  0.6020960000000  0.7282850000000  0.5319500000000 1.0
C      1  0.5316770000000  0.6077810000000  0.7341670000000 1.0
C      1  0.7315280000000  0.5312800000000  0.6076990000000 1.0
C      1  0.3978940000000  0.7282770000000  0.4680320000000 1.0
C      1  0.6128330000000  0.2843160000000  0.4557280000000 1.0
C      1  0.3871770000000  0.2843140000000  0.5442900000000 1.0
C      1  0.4683180000000  0.6077600000000  0.2658250000000 1.0
C      1  0.5453750000000  0.3930410000000  0.2894420000000 1.0
C      1  0.4546300000000  0.3930560000000  0.7105670000000 1.0
C      1  0.2684710000000  0.5312610000000  0.3922990000000 1.0
C      1  0.7127910000000  0.4541650000000  0.3926660000000 1.0
C      1  0.2872110000000  0.4541650000000  0.6073380000000 1.0
C      1  0.3897370000000  0.4574780000000  0.3231040000000 1.0
C      1  0.4498030000000  0.3188010000000  0.3909690000000 1.0
C      1  0.3100450000000  0.3819060000000  0.4484420000000 1.0
C      1  0.6102650000000  0.4574970000000  0.6768990000000 1.0
C      1  0.6170530000000  0.5513440000000  0.3141520000000 1.0
C      1  0.3829450000000  0.5513540000000  0.6858440000000 1.0
C      1  0.5502050000000  0.3188120000000  0.6090460000000 1.0
C      1  0.5442550000000  0.6817750000000  0.3815550000000 1.0
C      1  0.4557370000000  0.6817830000000  0.6184300000000 1.0
C      1  0.6899600000000  0.3819190000000  0.5515670000000 1.0
C      1  0.6739060000000  0.6090280000000  0.4573100000000 1.0
C      1  0.3260890000000  0.6090240000000  0.5426820000000 1.0
C      1  0.3141550000000  0.4486420000000  0.3829480000000 1.0
C      1  0.3815660000000  0.3182160000000  0.4557480000000 1.0
C      1  0.4573160000000  0.3909660000000  0.3260960000000 1.0
C      1  0.6858470000000  0.4486600000000  0.6170560000000 1.0
C      1  0.3231010000000  0.5425130000000  0.6102620000000 1.0
C      1  0.6768970000000  0.5425120000000  0.3897340000000 1.0
C      1  0.6184420000000  0.3182250000000  0.5442670000000 1.0
C      1  0.3909570000000  0.6811940000000  0.5501930000000 1.0
C      1  0.6090350000000  0.6811940000000  0.4497920000000 1.0
C      1  0.5426890000000  0.3909820000000  0.6739120000000 1.0
C      1  0.4484350000000  0.6180940000000  0.6899520000000 1.0
C      1  0.5515600000000  0.6180810000000  0.3100380000000 1.0
C      1  0.3228500000000  0.3942730000000  0.6929350000000 1.0
C      1  0.6771540000000  0.3942650000000  0.3070740000000 1.0
C      1  0.3070670000000  0.6057200000000  0.3228440000000 1.0
C      1  0.6955280000000  0.3222870000000  0.3932540000000 1.0
C      1  0.3932430000000  0.6777020000000  0.3044690000000 1.0
C      1  0.6052700000000  0.3078970000000  0.3252030000000 1.0
C      1  0.3947380000000  0.3079070000000  0.6748120000000 1.0
C      1  0.3044800000000  0.3222870000000  0.6067600000000 1.0
C      1  0.3251910000000  0.6920900000000  0.3947260000000 1.0
C      1  0.6748010000000  0.6921060000000  0.6052580000000 1.0
C      1  0.6929280000000  0.6057430000000  0.6771480000000 1.0
C      1  0.6067490000000  0.6777230000000  0.6955170000000 1.0
END
