TITL C-3036479-9801-381 2.31329550297168e-06 3375 -340.634030570006 0 0 60 (C3i) n - 1
REM
REM in /home/bkarasulu/work/CARBON/AIRSS/Generating-Clusters/REBO/Higher-Symm/Only-C60
REM
REM
REM
REM
REM
REM ./C.cell (a2850807a9bf4ad07a5b6933b78d9264)
REM AIRSS Version 0.9.1 bugfix July 2018 build 013d7b7c2542+ Fri, 06 Jul 2018 19:26:36 +0100
REM compiler GCC version 9.2.1 20190827 (Red Hat 9.2.1-1)
REM options -cpp -mtune=generic -march=x86-64 -g -O0 -fpre-include=/usr/include/finclude/math-vector-fortran.h
REM seed -411856804 -2140165679 219715758 -505831292 336618189 199017800 -1018979202 781408655 -261127011 -311105655 289282118 1316050898 635979797 -134943284 -114440146 1720447751 1111809419 844739917 1451615858 162122083 186688744 -622191894 1806500413 106142541 -975683728 -42680509 1172637322 -479302650 -1633094206 1997591100 1306960315 -1852219179 936389723
REM
CELL 1.54180   15.00000   15.00000   15.00000   90.00000   90.00000   90.00000
LATT -1
SFAC C  
C      1  0.5261840000000  0.6032150000000  0.7146390000000 1.0
C      1  0.4237330000000  0.5742520000000  0.2853400000000 1.0
C      1  0.3975340000000  0.4711080000000  0.7146510000000 1.0
C      1  0.4738160000000  0.3967850000000  0.2853610000000 1.0
C      1  0.5762670000000  0.4257480000000  0.7146600000000 1.0
C      1  0.6024660000000  0.5288920000000  0.2853490000000 1.0
C      1  0.6377890000000  0.3691470000000  0.6366460000000 1.0
C      1  0.6822350000000  0.5538820000000  0.3633700000000 1.0
C      1  0.5444360000000  0.6847810000000  0.6366090000000 1.0
C      1  0.3622110000000  0.6308530000000  0.3633540000000 1.0
C      1  0.3177650000000  0.4461180000000  0.6366300000000 1.0
C      1  0.4555640000000  0.3152190000000  0.3633910000000 1.0
C      1  0.7477910000000  0.4551410000000  0.5421950000000 1.0
C      1  0.6627500000000  0.6921570000000  0.4577980000000 1.0
C      1  0.4149560000000  0.7370300000000  0.5421560000000 1.0
C      1  0.2522090000000  0.5448590000000  0.4578050000000 1.0
C      1  0.3372500000000  0.3078430000000  0.5422020000000 1.0
C      1  0.5850440000000  0.2629700000000  0.4578440000000 1.0
C      1  0.7377810000000  0.4987610000000  0.4376810000000 1.0
C      1  0.6199550000000  0.7053140000000  0.5623050000000 1.0
C      1  0.3821780000000  0.7065320000000  0.4376490000000 1.0
C      1  0.2622190000000  0.5012390000000  0.5623190000000 1.0
C      1  0.3800450000000  0.2946860000000  0.4376950000000 1.0
C      1  0.6178220000000  0.2934680000000  0.5623510000000 1.0
C      1  0.4820260000000  0.6967850000000  0.4731630000000 1.0
C      1  0.3205890000000  0.5828300000000  0.5268010000000 1.0
C      1  0.3385650000000  0.3860370000000  0.4731940000000 1.0
C      1  0.5179740000000  0.3032150000000  0.5268370000000 1.0
C      1  0.6794110000000  0.4171700000000  0.4731990000000 1.0
C      1  0.6614350000000  0.6139630000000  0.5268060000000 1.0
C      1  0.3931330000000  0.6796790000000  0.6941480000000 1.0
C      1  0.2909860000000  0.4972620000000  0.3058250000000 1.0
C      1  0.3978390000000  0.3176480000000  0.6941890000000 1.0
C      1  0.6068670000000  0.3203210000000  0.3058520000000 1.0
C      1  0.7090140000000  0.5027380000000  0.6941750000000 1.0
C      1  0.6021610000000  0.6823520000000  0.3058110000000 1.0
C      1  0.4672870000000  0.3952020000000  0.7143590000000 1.0
C      1  0.5744300000000  0.4192390000000  0.2856620000000 1.0
C      1  0.6071280000000  0.5241090000000  0.7143480000000 1.0
C      1  0.5327130000000  0.6047980000000  0.2856410000000 1.0
C      1  0.4255700000000  0.5807610000000  0.7143380000000 1.0
C      1  0.3928720000000  0.4758910000000  0.2856520000000 1.0
C      1  0.3959930000000  0.5275900000000  0.6201730000000 1.0
C      1  0.4241180000000  0.4237050000000  0.3798290000000 1.0
C      1  0.5281170000000  0.3961550000000  0.6201900000000 1.0
C      1  0.6040070000000  0.4724100000000  0.3798270000000 1.0
C      1  0.5758820000000  0.5762950000000  0.6201710000000 1.0
C      1  0.4718830000000  0.6038450000000  0.3798100000000 1.0
C      1  0.4178630000000  0.5431860000000  0.5201570000000 1.0
C      1  0.4215340000000  0.4504570000000  0.4798400000000 1.0
C      1  0.5036690000000  0.4072780000000  0.5201740000000 1.0
C      1  0.5821370000000  0.4568140000000  0.4798430000000 1.0
C      1  0.5784660000000  0.5495430000000  0.5201600000000 1.0
C      1  0.4963310000000  0.5927220000000  0.4798260000000 1.0
C      1  0.6651760000000  0.6577580000000  0.3693060000000 1.0
C      1  0.4459480000000  0.7219450000000  0.6306540000000 1.0
C      1  0.2807810000000  0.5641430000000  0.3693080000000 1.0
C      1  0.3348240000000  0.3422420000000  0.6306940000000 1.0
C      1  0.5540520000000  0.2780550000000  0.3693460000000 1.0
C      1  0.7192190000000  0.4358570000000  0.6306920000000 1.0
END
