TITL C-3036485-3770-1060 0.00631701697897182 3375 -339.979358349542 0 0 60 (Th) n - 1
REM
REM in /home/bkarasulu/work/CARBON/AIRSS/Generating-Clusters/REBO/Higher-Symm/Only-C60
REM
REM
REM
REM
REM
REM ./C.cell (a2850807a9bf4ad07a5b6933b78d9264)
REM AIRSS Version 0.9.1 bugfix July 2018 build 013d7b7c2542+ Fri, 06 Jul 2018 19:26:36 +0100
REM compiler GCC version 9.2.1 20190827 (Red Hat 9.2.1-1)
REM options -cpp -mtune=generic -march=x86-64 -g -O0 -fpre-include=/usr/include/finclude/math-vector-fortran.h
REM seed 1914475448 -969510673 -1194868021 -1323260026 1599747390 1404949801 -1102952587 -1202968239 1871965676 -1405953703 -1853295748 -1874628967 113264045 -2126862912 1462644620 -112816486 867089715 1126035044 606321511 1372284160 1297685486 -698951939 -1291616668 135125601 1103585440 654311838 1473312339 450739219 -1110068934 129697386 2019239227 -194278260 717362004
REM
CELL 1.54180   15.00000   15.00000   15.00000   90.00000   90.00000   90.00000
LATT -1
SFAC C  
C      1  0.4057200000000  0.7175670000000  0.4514670000000 1.0
C      1  0.4514660000000  0.4057200000000  0.7175370000000 1.0
C      1  0.7175480000000  0.4514620000000  0.4057260000000 1.0
C      1  0.5942800000000  0.7175680000000  0.5485410000000 1.0
C      1  0.4057090000000  0.2824160000000  0.5485260000000 1.0
C      1  0.5943100000000  0.2824000000000  0.4514640000000 1.0
C      1  0.5485310000000  0.4057240000000  0.2824880000000 1.0
C      1  0.4514580000000  0.5943140000000  0.2824200000000 1.0
C      1  0.5485410000000  0.5942900000000  0.7175680000000 1.0
C      1  0.2824450000000  0.4514620000000  0.5942680000000 1.0
C      1  0.7175630000000  0.5485440000000  0.5942860000000 1.0
C      1  0.2824560000000  0.5485410000000  0.4057120000000 1.0
C      1  0.4056980000000  0.2824050000000  0.4514490000000 1.0
C      1  0.4514600000000  0.5942920000000  0.7175630000000 1.0
C      1  0.7175490000000  0.5485420000000  0.4057190000000 1.0
C      1  0.5943100000000  0.2824000000000  0.5485520000000 1.0
C      1  0.4057220000000  0.7175680000000  0.5485390000000 1.0
C      1  0.5942770000000  0.7175730000000  0.4514600000000 1.0
C      1  0.5485340000000  0.5943030000000  0.2824230000000 1.0
C      1  0.4514390000000  0.4057250000000  0.2824760000000 1.0
C      1  0.5485490000000  0.4057180000000  0.7175380000000 1.0
C      1  0.2824460000000  0.5485450000000  0.5942740000000 1.0
C      1  0.7175660000000  0.4514630000000  0.5942850000000 1.0
C      1  0.2824320000000  0.4514640000000  0.4057230000000 1.0
C      1  0.6787840000000  0.6602510000000  0.5833930000000 1.0
C      1  0.5833920000000  0.6787940000000  0.6602490000000 1.0
C      1  0.6602430000000  0.5833930000000  0.6787840000000 1.0
C      1  0.3212200000000  0.6602540000000  0.4166090000000 1.0
C      1  0.6787810000000  0.3397510000000  0.4166210000000 1.0
C      1  0.3212160000000  0.3397590000000  0.5833720000000 1.0
C      1  0.4166120000000  0.6788050000000  0.3397570000000 1.0
C      1  0.5833750000000  0.3212040000000  0.3397790000000 1.0
C      1  0.4166150000000  0.3212130000000  0.6602190000000 1.0
C      1  0.3397610000000  0.5834060000000  0.3212120000000 1.0
C      1  0.6602270000000  0.4166240000000  0.3212330000000 1.0
C      1  0.3397640000000  0.4166100000000  0.6787730000000 1.0
C      1  0.6787960000000  0.3397580000000  0.5833960000000 1.0
C      1  0.5833960000000  0.3212090000000  0.6602330000000 1.0
C      1  0.6602480000000  0.4166110000000  0.6787810000000 1.0
C      1  0.3212110000000  0.3397410000000  0.4165900000000 1.0
C      1  0.6787810000000  0.6602490000000  0.4166060000000 1.0
C      1  0.3212210000000  0.6602520000000  0.5833890000000 1.0
C      1  0.4166070000000  0.3211900000000  0.3397640000000 1.0
C      1  0.5833950000000  0.6787960000000  0.3397550000000 1.0
C      1  0.4166100000000  0.6787940000000  0.6602430000000 1.0
C      1  0.3397460000000  0.4166080000000  0.3212160000000 1.0
C      1  0.6602280000000  0.5833910000000  0.3212250000000 1.0
C      1  0.3397630000000  0.5833920000000  0.6787760000000 1.0
C      1  0.6050830000000  0.4999890000000  0.2744290000000 1.0
C      1  0.2744030000000  0.6051200000000  0.5000060000000 1.0
C      1  0.5000050000000  0.2743790000000  0.6051010000000 1.0
C      1  0.3948990000000  0.4999990000000  0.7255850000000 1.0
C      1  0.6051070000000  0.4999990000000  0.7255960000000 1.0
C      1  0.3948910000000  0.4999800000000  0.2743970000000 1.0
C      1  0.7256030000000  0.6051220000000  0.5000010000000 1.0
C      1  0.2743940000000  0.3948970000000  0.4999910000000 1.0
C      1  0.7256030000000  0.3948860000000  0.5000000000000 1.0
C      1  0.5000070000000  0.2743480000000  0.3949110000000 1.0
C      1  0.5000020000000  0.7256130000000  0.3948800000000 1.0
C      1  0.5000030000000  0.7256110000000  0.6051180000000 1.0
END
