TITL C-3036481-494-508 -8.75595188671683e-06 3375 -334.168430265972 0 0 60 (Ci) n - 1
REM
REM in /home/bkarasulu/work/CARBON/AIRSS/Generating-Clusters/REBO/Higher-Symm/Only-C60
REM
REM
REM
REM
REM
REM ./C.cell (a2850807a9bf4ad07a5b6933b78d9264)
REM AIRSS Version 0.9.1 bugfix July 2018 build 013d7b7c2542+ Fri, 06 Jul 2018 19:26:36 +0100
REM compiler GCC version 9.2.1 20190827 (Red Hat 9.2.1-1)
REM options -cpp -mtune=generic -march=x86-64 -g -O0 -fpre-include=/usr/include/finclude/math-vector-fortran.h
REM seed -1342349705 -1686458596 369403313 1707606343 -1676997387 2067395952 -1277832764 204100972 -1462845741 -371930517 629158297 296488223 -1515872989 1514433738 -483462142 681869376 -1023753877 1430705760 -1149039966 -398929930 1724126892 1143135369 -1566139993 251317371 972554151 -52451180 2147060902 -1785204360 1521964125 903923655 494630462 -1657602626 1583358035
REM
CELL 1.54180   15.00000   15.00000   15.00000   90.00000   90.00000   90.00000
LATT -1
SFAC C  
C      1  0.5336990000000  0.6025120000000  0.7238590000000 1.0
C      1  0.3170940000000  0.4088240000000  0.6206980000000 1.0
C      1  0.2940960000000  0.6046900000000  0.4117760000000 1.0
C      1  0.4663010000000  0.3974880000000  0.2761410000000 1.0
C      1  0.6829060000000  0.5911760000000  0.3793020000000 1.0
C      1  0.7059040000000  0.3953100000000  0.5882240000000 1.0
C      1  0.5375610000000  0.4930470000000  0.7316000000000 1.0
C      1  0.3205180000000  0.5030300000000  0.6488240000000 1.0
C      1  0.2760510000000  0.4941220000000  0.3958520000000 1.0
C      1  0.4624390000000  0.5069530000000  0.2684010000000 1.0
C      1  0.6794820000000  0.4969700000000  0.3511760000000 1.0
C      1  0.7239490000000  0.5058780000000  0.6041480000000 1.0
C      1  0.4800880000000  0.3171250000000  0.4357910000000 1.0
C      1  0.5465130000000  0.6863340000000  0.4528290000000 1.0
C      1  0.5625800000000  0.3275720000000  0.5163930000000 1.0
C      1  0.5199120000000  0.6828750000000  0.5642090000000 1.0
C      1  0.4534870000000  0.3136660000000  0.5471710000000 1.0
C      1  0.4374200000000  0.6724280000000  0.4836070000000 1.0
C      1  0.6141970000000  0.3397670000000  0.3229300000000 1.0
C      1  0.6671090000000  0.6607250000000  0.5218250000000 1.0
C      1  0.5583500000000  0.3611910000000  0.6723840000000 1.0
C      1  0.3858030000000  0.6602330000000  0.6770700000000 1.0
C      1  0.3328910000000  0.3392750000000  0.4781750000000 1.0
C      1  0.4416500000000  0.6388090000000  0.3276160000000 1.0
C      1  0.4697430000000  0.5818970000000  0.4221600000000 1.0
C      1  0.5577930000000  0.3927650000000  0.4023310000000 1.0
C      1  0.5821260000000  0.5898880000000  0.4927700000000 1.0
C      1  0.5302570000000  0.4181030000000  0.5778400000000 1.0
C      1  0.4422070000000  0.6072350000000  0.5976690000000 1.0
C      1  0.4178740000000  0.4101120000000  0.5072300000000 1.0
C      1  0.4358570000000  0.5947490000000  0.7298140000000 1.0
C      1  0.2873870000000  0.4077330000000  0.5309670000000 1.0
C      1  0.3627680000000  0.5801810000000  0.3434550000000 1.0
C      1  0.5641430000000  0.4052510000000  0.2701860000000 1.0
C      1  0.7126130000000  0.5922670000000  0.4690330000000 1.0
C      1  0.6372320000000  0.4198190000000  0.6565450000000 1.0
C      1  0.3223500000000  0.4091020000000  0.3555440000000 1.0
C      1  0.5342160000000  0.5916680000000  0.2928310000000 1.0
C      1  0.6936120000000  0.4248950000000  0.4219910000000 1.0
C      1  0.6776500000000  0.5908980000000  0.6444560000000 1.0
C      1  0.4657840000000  0.4083320000000  0.7071690000000 1.0
C      1  0.3063880000000  0.5751050000000  0.5780090000000 1.0
C      1  0.4094010000000  0.5046050000000  0.7002110000000 1.0
C      1  0.3090030000000  0.5020420000000  0.4947820000000 1.0
C      1  0.4014500000000  0.4840910000000  0.3536540000000 1.0
C      1  0.5905990000000  0.4953950000000  0.2997890000000 1.0
C      1  0.6909970000000  0.4979580000000  0.5052180000000 1.0
C      1  0.5985500000000  0.5159090000000  0.6463460000000 1.0
C      1  0.4388880000000  0.4743960000000  0.5946700000000 1.0
C      1  0.4145880000000  0.5426780000000  0.5084970000000 1.0
C      1  0.4624470000000  0.4481730000000  0.4272240000000 1.0
C      1  0.5611120000000  0.5256040000000  0.4053300000000 1.0
C      1  0.5854120000000  0.4573220000000  0.4915030000000 1.0
C      1  0.5375530000000  0.5518270000000  0.5727770000000 1.0
C      1  0.6711390000000  0.3575480000000  0.5032360000000 1.0
C      1  0.5845870000000  0.6479700000000  0.6510450000000 1.0
C      1  0.3988800000000  0.3553960000000  0.6375400000000 1.0
C      1  0.3288610000000  0.6424520000000  0.4967640000000 1.0
C      1  0.4154130000000  0.3520300000000  0.3489550000000 1.0
C      1  0.6011200000000  0.6446040000000  0.3624600000000 1.0
END
