TITL C-3036483-1610-39 -0.00170929296386813 3375 -321.501761754237 0 0 60 (C3i) n - 1
REM
REM in /home/bkarasulu/work/CARBON/AIRSS/Generating-Clusters/REBO/Higher-Symm/Only-C60
REM
REM
REM
REM
REM
REM ./C.cell (a2850807a9bf4ad07a5b6933b78d9264)
REM AIRSS Version 0.9.1 bugfix July 2018 build 013d7b7c2542+ Fri, 06 Jul 2018 19:26:36 +0100
REM compiler GCC version 9.2.1 20190827 (Red Hat 9.2.1-1)
REM options -cpp -mtune=generic -march=x86-64 -g -O0 -fpre-include=/usr/include/finclude/math-vector-fortran.h
REM seed 1233008235 -1985225839 -1185491126 -1182227812 -1985295402 844812610 -1145252913 -465566451 2060482887 2012530283 1288798537 1973944872 -733672594 -1524376825 578438408 -430194301 -1013032971 -2081800786 -1020219106 -263209474 -994922413 -562772464 1401248621 -1496065450 458168616 -64710332 1945308760 799963393 -1613974753 41571872 358364035 2118879478 1804080642
REM
CELL 1.54180   15.00000   15.00000   15.00000   90.00000   90.00000   90.00000
LATT -1
SFAC C  
C      1  0.6791440000000  0.3203830000000  0.4030560000000 1.0
C      1  0.6735360000000  0.6796120000000  0.6066690000000 1.0
C      1  0.4943780000000  0.3203890000000  0.7036210000000 1.0
C      1  0.3208580000000  0.6796180000000  0.5969470000000 1.0
C      1  0.3264650000000  0.3203890000000  0.3933290000000 1.0
C      1  0.5056200000000  0.6796100000000  0.2963790000000 1.0
C      1  0.3556590000000  0.5077190000000  0.6241860000000 1.0
C      1  0.3202780000000  0.4922880000000  0.4370910000000 1.0
C      1  0.4646210000000  0.5077130000000  0.3129030000000 1.0
C      1  0.6443420000000  0.4922810000000  0.3758130000000 1.0
C      1  0.6797210000000  0.5077120000000  0.5629090000000 1.0
C      1  0.5353770000000  0.4922870000000  0.6870970000000 1.0
C      1  0.4946330000000  0.4201640000000  0.4082470000000 1.0
C      1  0.5767800000000  0.5798330000000  0.4494760000000 1.0
C      1  0.5821430000000  0.4201630000000  0.5412320000000 1.0
C      1  0.5053680000000  0.5798360000000  0.5917520000000 1.0
C      1  0.4232200000000  0.4201670000000  0.5505230000000 1.0
C      1  0.4178560000000  0.5798370000000  0.4587680000000 1.0
C      1  0.6720950000000  0.5751340000000  0.4850090000000 1.0
C      1  0.5990250000000  0.4248610000000  0.6415460000000 1.0
C      1  0.4269370000000  0.5751400000000  0.6565300000000 1.0
C      1  0.3279040000000  0.4248650000000  0.5149900000000 1.0
C      1  0.4009730000000  0.5751390000000  0.3584550000000 1.0
C      1  0.5730650000000  0.4248590000000  0.3434700000000 1.0
C      1  0.5887680000000  0.3397460000000  0.6873280000000 1.0
C      1  0.3821650000000  0.6602570000000  0.6705420000000 1.0
C      1  0.2933820000000  0.3397490000000  0.4832200000000 1.0
C      1  0.4112300000000  0.6602540000000  0.3126730000000 1.0
C      1  0.6178380000000  0.3397420000000  0.3294600000000 1.0
C      1  0.7066180000000  0.6602500000000  0.5167780000000 1.0
C      1  0.4805380000000  0.6687310000000  0.4261880000000 1.0
C      1  0.5541860000000  0.3312670000000  0.4462410000000 1.0
C      1  0.5736570000000  0.6687310000000  0.5200460000000 1.0
C      1  0.5194610000000  0.3312690000000  0.5738120000000 1.0
C      1  0.4458150000000  0.6687330000000  0.5537600000000 1.0
C      1  0.4263430000000  0.3312690000000  0.4799530000000 1.0
C      1  0.6663730000000  0.5782820000000  0.3510080000000 1.0
C      1  0.7122150000000  0.4217110000000  0.5695880000000 1.0
C      1  0.5458460000000  0.5782880000000  0.7185760000000 1.0
C      1  0.3336260000000  0.4217190000000  0.6489900000000 1.0
C      1  0.2877840000000  0.5782900000000  0.4304140000000 1.0
C      1  0.4541540000000  0.4217120000000  0.2814240000000 1.0
C      1  0.6128530000000  0.2919200000000  0.5289460000000 1.0
C      1  0.5313670000000  0.7080780000000  0.6122060000000 1.0
C      1  0.4185020000000  0.2919250000000  0.5832680000000 1.0
C      1  0.3871470000000  0.7080800000000  0.4710550000000 1.0
C      1  0.4686340000000  0.2919210000000  0.3877940000000 1.0
C      1  0.5814980000000  0.7080750000000  0.4167310000000 1.0
C      1  0.5483590000000  0.6654040000000  0.6912140000000 1.0
C      1  0.3585750000000  0.3346020000000  0.6374850000000 1.0
C      1  0.3102270000000  0.6654060000000  0.4462670000000 1.0
C      1  0.4516430000000  0.3345960000000  0.3087860000000 1.0
C      1  0.6414240000000  0.6653990000000  0.3625130000000 1.0
C      1  0.6897730000000  0.3345940000000  0.5537350000000 1.0
C      1  0.3907840000000  0.4130630000000  0.3984100000000 1.0
C      1  0.5333760000000  0.5869350000000  0.3546210000000 1.0
C      1  0.6425870000000  0.4130590000000  0.4562150000000 1.0
C      1  0.6092170000000  0.5869380000000  0.6015910000000 1.0
C      1  0.4666230000000  0.4130650000000  0.6453780000000 1.0
C      1  0.3574130000000  0.5869420000000  0.5437850000000 1.0
END
