TITL C-3036480-97-241 4.50032233461519e-05 3375 -346.485685686099 0 0 60 (C3) n - 1
REM
REM in /home/bkarasulu/work/CARBON/AIRSS/Generating-Clusters/REBO/Higher-Symm/Only-C60
REM
REM
REM
REM
REM
REM ./C.cell (a2850807a9bf4ad07a5b6933b78d9264)
REM AIRSS Version 0.9.1 bugfix July 2018 build 013d7b7c2542+ Fri, 06 Jul 2018 19:26:36 +0100
REM compiler GCC version 9.2.1 20190827 (Red Hat 9.2.1-1)
REM options -cpp -mtune=generic -march=x86-64 -g -O0 -fpre-include=/usr/include/finclude/math-vector-fortran.h
REM seed -1425008156 789166699 -1536736156 -425612859 -745469007 1459104795 -2033740197 -403277653 -1346834694 -790564157 -294482551 -20390936 -1494172033 1248451438 1331660540 -1184277733 -325724618 1452273240 -849124931 1108769431 -784169832 -376624004 775269972 1545162354 910936459 1420593739 -201247573 2014709744 -1374622685 1579452870 27266574 492320200 -1706163031
REM
CELL 1.54180   15.00000   15.00000   15.00000   90.00000   90.00000   90.00000
LATT -1
SFAC C  
C      1  0.3746800000000  0.4191140000000  0.5544300000000 1.0
C      1  0.6098020000000  0.4191090000000  0.5813140000000 1.0
C      1  0.5155190000000  0.4191180000000  0.3642510000000 1.0
C      1  0.6717350000000  0.5576990000000  0.5552160000000 1.0
C      1  0.4619570000000  0.5577190000000  0.3236760000000 1.0
C      1  0.3663150000000  0.5577110000000  0.6211150000000 1.0
C      1  0.4400350000000  0.3383630000000  0.4467430000000 1.0
C      1  0.4838680000000  0.3383600000000  0.5785520000000 1.0
C      1  0.5760990000000  0.3383580000000  0.4746900000000 1.0
C      1  0.6145120000000  0.7289680000000  0.6496450000000 1.0
C      1  0.5723270000000  0.7289910000000  0.3260310000000 1.0
C      1  0.3131600000000  0.7289840000000  0.5243610000000 1.0
C      1  0.3510230000000  0.5500040000000  0.3169260000000 1.0
C      1  0.4159390000000  0.5499910000000  0.7205590000000 1.0
C      1  0.7330430000000  0.5499920000000  0.4625180000000 1.0
C      1  0.5119710000000  0.4307990000000  0.5760180000000 1.0
C      1  0.5598510000000  0.4307970000000  0.4516200000000 1.0
C      1  0.4281790000000  0.4308010000000  0.4723540000000 1.0
C      1  0.3071530000000  0.3397400000000  0.4399230000000 1.0
C      1  0.5444010000000  0.3397310000000  0.6970410000000 1.0
C      1  0.6484450000000  0.3397370000000  0.3630200000000 1.0
C      1  0.3432020000000  0.6949970000000  0.4203030000000 1.0
C      1  0.5093720000000  0.6949890000000  0.6756580000000 1.0
C      1  0.6474230000000  0.6949930000000  0.4040710000000 1.0
C      1  0.6110390000000  0.5671310000000  0.3975230000000 1.0
C      1  0.3557360000000  0.5671360000000  0.4550840000000 1.0
C      1  0.5332260000000  0.5671320000000  0.6473950000000 1.0
C      1  0.4758810000000  0.6689090000000  0.3166640000000 1.0
C      1  0.3532790000000  0.6688990000000  0.6125650000000 1.0
C      1  0.6708310000000  0.6688820000000  0.5707940000000 1.0
C      1  0.4588120000000  0.3288000000000  0.3411390000000 1.0
C      1  0.3830230000000  0.3287920000000  0.6150900000000 1.0
C      1  0.6581650000000  0.3287900000000  0.5437530000000 1.0
C      1  0.4251150000000  0.5128920000000  0.4210550000000 1.0
C      1  0.4690690000000  0.5128860000000  0.6043250000000 1.0
C      1  0.6058180000000  0.5128830000000  0.4746180000000 1.0
C      1  0.6828860000000  0.4386840000000  0.3405710000000 1.0
C      1  0.2704930000000  0.4386890000000  0.4213270000000 1.0
C      1  0.5466230000000  0.4386820000000  0.7380870000000 1.0
C      1  0.4264250000000  0.6520310000000  0.6923550000000 1.0
C      1  0.7033610000000  0.6520310000000  0.4675480000000 1.0
C      1  0.3702100000000  0.6520410000000  0.3401190000000 1.0
C      1  0.3868340000000  0.6464710000000  0.5104730000000 1.0
C      1  0.5656320000000  0.6464770000000  0.5927710000000 1.0
C      1  0.5475200000000  0.6464640000000  0.3967630000000 1.0
C      1  0.4444350000000  0.4635040000000  0.7440810000000 1.0
C      1  0.7391700000000  0.4635070000000  0.4260720000000 1.0
C      1  0.3164000000000  0.4635170000000  0.3298360000000 1.0
C      1  0.5721720000000  0.2945750000000  0.6091850000000 1.0
C      1  0.5584730000000  0.2945830000000  0.3828950000000 1.0
C      1  0.3693520000000  0.2945820000000  0.5079010000000 1.0
C      1  0.5312400000000  0.4881750000000  0.3016170000000 1.0
C      1  0.3125750000000  0.4881670000000  0.5721370000000 1.0
C      1  0.6561910000000  0.4881610000000  0.6262490000000 1.0
C      1  0.5962020000000  0.5132090000000  0.6979450000000 1.0
C      1  0.6233350000000  0.5132120000000  0.3177040000000 1.0
C      1  0.2804630000000  0.5132130000000  0.4843390000000 1.0
C      1  0.3542330000000  0.3659490000000  0.3487200000000 1.0
C      1  0.4418760000000  0.3659380000000  0.7018710000000 1.0
C      1  0.7038910000000  0.3659410000000  0.4493940000000 1.0
END
