TITL C-3036481-494-383 -9.08689641070045e-06 3375 -345.812589885485 0 0 60 (T23) n - 1
REM
REM in /home/bkarasulu/work/CARBON/AIRSS/Generating-Clusters/REBO/Higher-Symm/Only-C60
REM
REM
REM
REM
REM
REM ./C.cell (a2850807a9bf4ad07a5b6933b78d9264)
REM AIRSS Version 0.9.1 bugfix July 2018 build 013d7b7c2542+ Fri, 06 Jul 2018 19:26:36 +0100
REM compiler GCC version 9.2.1 20190827 (Red Hat 9.2.1-1)
REM options -cpp -mtune=generic -march=x86-64 -g -O0 -fpre-include=/usr/include/finclude/math-vector-fortran.h
REM seed -191232282 -1619885773 -1768893017 -384640242 -779887043 1532751839 -1207450677 -1508918057 -568671971 1082679164 222811118 -404573860 -1794162164 1276232204 -1920928568 731478324 1241153472 -797211393 2063329923 741375639 1962220239 968731178 -12129623 2080932057 1118166458 -2142768525 -1412797261 -1491946587 817009762 598964092 -391625641 1222697371 1313323759
REM
CELL 1.54180   15.00000   15.00000   15.00000   90.00000   90.00000   90.00000
LATT -1
SFAC C  
C      1  0.5324980000000  0.4532790000000  0.7301870000000 1.0
C      1  0.7301870000000  0.5324980000000  0.4532790000000 1.0
C      1  0.4532790000000  0.7301870000000  0.5324980000000 1.0
C      1  0.4675020000000  0.4532790000000  0.2698130000000 1.0
C      1  0.5324980000000  0.5467210000000  0.2698130000000 1.0
C      1  0.4675020000000  0.5467210000000  0.7301870000000 1.0
C      1  0.2698130000000  0.5324980000000  0.5467210000000 1.0
C      1  0.7301870000000  0.4675020000000  0.5467210000000 1.0
C      1  0.2698130000000  0.4675020000000  0.4532790000000 1.0
C      1  0.5467210000000  0.7301870000000  0.4675020000000 1.0
C      1  0.4532790000000  0.2698130000000  0.4675020000000 1.0
C      1  0.5467210000000  0.2698130000000  0.5324980000000 1.0
C      1  0.5995720000000  0.4913870000000  0.5530410000000 1.0
C      1  0.5530410000000  0.5995720000000  0.4913870000000 1.0
C      1  0.4913870000000  0.5530410000000  0.5995720000000 1.0
C      1  0.4004280000000  0.4913870000000  0.4469590000000 1.0
C      1  0.5995720000000  0.5086130000000  0.4469590000000 1.0
C      1  0.4004280000000  0.5086130000000  0.5530410000000 1.0
C      1  0.4469590000000  0.5995720000000  0.5086130000000 1.0
C      1  0.5530410000000  0.4004280000000  0.5086130000000 1.0
C      1  0.4469590000000  0.4004280000000  0.4913870000000 1.0
C      1  0.5086130000000  0.5530410000000  0.4004280000000 1.0
C      1  0.4913870000000  0.4469590000000  0.4004280000000 1.0
C      1  0.5086130000000  0.4469590000000  0.5995720000000 1.0
C      1  0.2984620000000  0.5785980000000  0.4478950000000 1.0
C      1  0.4478950000000  0.2984620000000  0.5785980000000 1.0
C      1  0.5785980000000  0.4478950000000  0.2984620000000 1.0
C      1  0.7015380000000  0.5785980000000  0.5521050000000 1.0
C      1  0.2984620000000  0.4214020000000  0.5521050000000 1.0
C      1  0.7015380000000  0.4214020000000  0.4478950000000 1.0
C      1  0.5521050000000  0.2984620000000  0.4214020000000 1.0
C      1  0.4478950000000  0.7015380000000  0.4214020000000 1.0
C      1  0.5521050000000  0.7015380000000  0.5785980000000 1.0
C      1  0.4214020000000  0.4478950000000  0.7015380000000 1.0
C      1  0.5785980000000  0.5521050000000  0.7015380000000 1.0
C      1  0.4214020000000  0.5521050000000  0.2984620000000 1.0
C      1  0.3219790000000  0.5854620000000  0.6277700000000 1.0
C      1  0.6277700000000  0.3219790000000  0.5854620000000 1.0
C      1  0.5854620000000  0.6277700000000  0.3219790000000 1.0
C      1  0.6780210000000  0.5854620000000  0.3722300000000 1.0
C      1  0.3219790000000  0.4145380000000  0.3722300000000 1.0
C      1  0.6780210000000  0.4145380000000  0.6277700000000 1.0
C      1  0.3722300000000  0.3219790000000  0.4145380000000 1.0
C      1  0.6277700000000  0.6780210000000  0.4145380000000 1.0
C      1  0.3722300000000  0.6780210000000  0.5854620000000 1.0
C      1  0.4145380000000  0.6277700000000  0.6780210000000 1.0
C      1  0.5854620000000  0.3722300000000  0.6780210000000 1.0
C      1  0.4145380000000  0.3722300000000  0.3219790000000 1.0
C      1  0.5253890000000  0.3610660000000  0.3450180000000 1.0
C      1  0.3450180000000  0.5253890000000  0.3610660000000 1.0
C      1  0.3610660000000  0.3450180000000  0.5253890000000 1.0
C      1  0.4746110000000  0.3610660000000  0.6549820000000 1.0
C      1  0.5253890000000  0.6389340000000  0.6549820000000 1.0
C      1  0.4746110000000  0.6389340000000  0.3450180000000 1.0
C      1  0.6549820000000  0.5253890000000  0.6389340000000 1.0
C      1  0.3450180000000  0.4746110000000  0.6389340000000 1.0
C      1  0.6549820000000  0.4746110000000  0.3610660000000 1.0
C      1  0.6389340000000  0.3450180000000  0.4746110000000 1.0
C      1  0.3610660000000  0.6549820000000  0.4746110000000 1.0
C      1  0.6389340000000  0.6549820000000  0.5253890000000 1.0
END
