TITL C-3036481-494-28 2.29062660427329e-06 3375 -340.419351668857 0 0 60 (C1) n - 1
REM
REM in /home/bkarasulu/work/CARBON/AIRSS/Generating-Clusters/REBO/Higher-Symm/Only-C60
REM
REM
REM
REM
REM
REM ./C.cell (a2850807a9bf4ad07a5b6933b78d9264)
REM AIRSS Version 0.9.1 bugfix July 2018 build 013d7b7c2542+ Fri, 06 Jul 2018 19:26:36 +0100
REM compiler GCC version 9.2.1 20190827 (Red Hat 9.2.1-1)
REM options -cpp -mtune=generic -march=x86-64 -g -O0 -fpre-include=/usr/include/finclude/math-vector-fortran.h
REM seed 1467033773 -542493318 1018931679 -1943676243 389977980 -2112477106 -1767769209 441076116 2053765419 -1536661568 1726567465 -1080227279 1175941263 1862510026 -960290834 -1484201260 -2102994693 658128688 -990509475 1505058349 -1601270539 -995391375 -1129937611 489693393 -629429591 -1050307067 -1155936928 -1871124407 16441354 1798910085 -1573787797 1047457082 391660039
REM
CELL 1.54180   15.00000   15.00000   15.00000   90.00000   90.00000   90.00000
LATT -1
SFAC C  
C      1  0.5394250000000  0.6691330000000  0.3279670000000 1.0
C      1  0.4032310000000  0.3431120000000  0.4520930000000 1.0
C      1  0.4840480000000  0.3186850000000  0.3113840000000 1.0
C      1  0.6126840000000  0.4147500000000  0.8269650000000 1.0
C      1  0.5702700000000  0.5405230000000  0.4731340000000 1.0
C      1  0.4014510000000  0.5852110000000  0.6305860000000 1.0
C      1  0.4222150000000  0.2457500000000  0.5858990000000 1.0
C      1  0.4909290000000  0.5187570000000  0.6257060000000 1.0
C      1  0.3358060000000  0.5735470000000  0.3231680000000 1.0
C      1  0.4066350000000  0.6883270000000  0.5865060000000 1.0
C      1  0.5998600000000  0.7347970000000  0.3504170000000 1.0
C      1  0.3097440000000  0.4880080000000  0.3531160000000 1.0
C      1  0.5668230000000  0.5007290000000  0.7705590000000 1.0
C      1  0.5541210000000  0.4387260000000  0.4587530000000 1.0
C      1  0.5992050000000  0.4417810000000  0.5595020000000 1.0
C      1  0.5518110000000  0.2751990000000  0.3655540000000 1.0
C      1  0.4010140000000  0.4649780000000  0.7079100000000 1.0
C      1  0.6858900000000  0.4750710000000  0.4651110000000 1.0
C      1  0.6586900000000  0.5894750000000  0.6594660000000 1.0
C      1  0.4712010000000  0.4045710000000  0.5090370000000 1.0
C      1  0.6612700000000  0.6784030000000  0.4833210000000 1.0
C      1  0.4587420000000  0.3084880000000  0.6424950000000 1.0
C      1  0.6204300000000  0.3314980000000  0.4156230000000 1.0
C      1  0.6700920000000  0.5865520000000  0.4469200000000 1.0
C      1  0.5077130000000  0.7373950000000  0.5915240000000 1.0
C      1  0.5697250000000  0.4070740000000  0.3614810000000 1.0
C      1  0.5186030000000  0.5069180000000  0.2353640000000 1.0
C      1  0.5718230000000  0.5917890000000  0.7050380000000 1.0
C      1  0.6796280000000  0.3360110000000  0.5662920000000 1.0
C      1  0.6581390000000  0.7443410000000  0.4203400000000 1.0
C      1  0.3327190000000  0.3975010000000  0.3142000000000 1.0
C      1  0.3818990000000  0.6745430000000  0.4759600000000 1.0
C      1  0.4470690000000  0.5222030000000  0.3751630000000 1.0
C      1  0.3612480000000  0.6601970000000  0.3779710000000 1.0
C      1  0.3872940000000  0.2566870000000  0.5026350000000 1.0
C      1  0.6080180000000  0.4066030000000  0.7218410000000 1.0
C      1  0.3440470000000  0.4649300000000  0.6307580000000 1.0
C      1  0.5599180000000  0.5679480000000  0.5745220000000 1.0
C      1  0.6218970000000  0.3805820000000  0.6360090000000 1.0
C      1  0.6658090000000  0.5269960000000  0.5650920000000 1.0
C      1  0.2524340000000  0.4543450000000  0.6385160000000 1.0
C      1  0.4007870000000  0.3407580000000  0.3486050000000 1.0
C      1  0.4796840000000  0.4161960000000  0.6124490000000 1.0
C      1  0.3846910000000  0.4729760000000  0.5381160000000 1.0
C      1  0.5805530000000  0.6702130000000  0.5444020000000 1.0
C      1  0.6775960000000  0.3712360000000  0.4772800000000 1.0
C      1  0.4461070000000  0.3765910000000  0.7187510000000 1.0
C      1  0.6449970000000  0.5166140000000  0.3663220000000 1.0
C      1  0.6161310000000  0.4637710000000  0.2755240000000 1.0
C      1  0.4303890000000  0.5559770000000  0.2665220000000 1.0
C      1  0.5459160000000  0.5607330000000  0.3324320000000 1.0
C      1  0.5258940000000  0.3967830000000  0.2563180000000 1.0
C      1  0.1659590000000  0.4443590000000  0.6458390000000 1.0
C      1  0.4839210000000  0.5937990000000  0.4490600000000 1.0
C      1  0.3788240000000  0.4515410000000  0.4269590000000 1.0
C      1  0.4887580000000  0.6502760000000  0.6609330000000 1.0
C      1  0.4904500000000  0.7013230000000  0.4848000000000 1.0
C      1  0.4723920000000  0.5401710000000  0.7335700000000 1.0
C      1  0.4000230000000  0.5739160000000  0.5201560000000 1.0
C      1  0.4433590000000  0.6506310000000  0.3180640000000 1.0
END
