TITL C-3036485-3770-850 -0.00272888452022263 3375 -352.836114704058 0 0 60 (C1) n - 1
REM
REM in /home/bkarasulu/work/CARBON/AIRSS/Generating-Clusters/REBO/Higher-Symm/Only-C60
REM
REM
REM
REM
REM
REM ./C.cell (a2850807a9bf4ad07a5b6933b78d9264)
REM AIRSS Version 0.9.1 bugfix July 2018 build 013d7b7c2542+ Fri, 06 Jul 2018 19:26:36 +0100
REM compiler GCC version 9.2.1 20190827 (Red Hat 9.2.1-1)
REM options -cpp -mtune=generic -march=x86-64 -g -O0 -fpre-include=/usr/include/finclude/math-vector-fortran.h
REM seed 791268108 -1400434644 -2059053516 -515109904 -2028080355 -709060981 866735178 -1324471818 -806481578 -375544971 1449676245 279839993 319287655 -1961685860 -1342699716 1519457461 829833123 -1980930979 -1298499568 -1979070450 1080626827 -2014140017 -665248341 539274106 -1304905144 576275229 -1185060789 1938516979 1422058359 -1801747588 -1714860740 -1846281859 -295823300
REM
CELL 1.54180   15.00000   15.00000   15.00000   90.00000   90.00000   90.00000
LATT -1
SFAC C  
C      1  0.4036020000000  0.3036640000000  0.5249980000000 1.0
C      1  0.2886670000000  0.4391180000000  0.5308610000000 1.0
C      1  0.3256320000000  0.6446230000000  0.5591020000000 1.0
C      1  0.5280940000000  0.7365320000000  0.5554580000000 1.0
C      1  0.6955460000000  0.6336520000000  0.5140340000000 1.0
C      1  0.7092340000000  0.4361640000000  0.5220780000000 1.0
C      1  0.5879430000000  0.3033520000000  0.5264600000000 1.0
C      1  0.6020380000000  0.4122460000000  0.2988440000000 1.0
C      1  0.4964020000000  0.3840800000000  0.3078200000000 1.0
C      1  0.4029540000000  0.4333540000000  0.3167410000000 1.0
C      1  0.3960470000000  0.5287730000000  0.3332580000000 1.0
C      1  0.4602600000000  0.6016150000000  0.3380570000000 1.0
C      1  0.5542770000000  0.6080190000000  0.3219470000000 1.0
C      1  0.6148830000000  0.5214910000000  0.3081390000000 1.0
C      1  0.6557230000000  0.3964240000000  0.6747530000000 1.0
C      1  0.5156990000000  0.2996080000000  0.6709350000000 1.0
C      1  0.3519130000000  0.3696530000000  0.6733350000000 1.0
C      1  0.3046180000000  0.5120660000000  0.6772290000000 1.0
C      1  0.3807020000000  0.6613460000000  0.6578270000000 1.0
C      1  0.5549110000000  0.6940380000000  0.6582600000000 1.0
C      1  0.6761140000000  0.5522630000000  0.6707200000000 1.0
C      1  0.5609030000000  0.3843150000000  0.7333960000000 1.0
C      1  0.4500290000000  0.3700180000000  0.7309220000000 1.0
C      1  0.3810680000000  0.4575210000000  0.7405150000000 1.0
C      1  0.3900040000000  0.5692270000000  0.7244640000000 1.0
C      1  0.4761400000000  0.6387950000000  0.7179260000000 1.0
C      1  0.5816970000000  0.5966120000000  0.7157590000000 1.0
C      1  0.6100270000000  0.4866820000000  0.7325250000000 1.0
C      1  0.6965240000000  0.4426810000000  0.4280180000000 1.0
C      1  0.5830520000000  0.3171010000000  0.4307740000000 1.0
C      1  0.4104640000000  0.3195660000000  0.4303930000000 1.0
C      1  0.3059820000000  0.4523660000000  0.4392660000000 1.0
C      1  0.3585100000000  0.6225550000000  0.4585410000000 1.0
C      1  0.5223930000000  0.6961120000000  0.4512000000000 1.0
C      1  0.6764500000000  0.6180170000000  0.4233140000000 1.0
C      1  0.7126380000000  0.5341550000000  0.5663000000000 1.0
C      1  0.6681960000000  0.3512830000000  0.5708750000000 1.0
C      1  0.4915680000000  0.2687910000000  0.5655540000000 1.0
C      1  0.3264630000000  0.3547410000000  0.5694440000000 1.0
C      1  0.2758990000000  0.5429740000000  0.5760580000000 1.0
C      1  0.4176880000000  0.7114740000000  0.5417430000000 1.0
C      1  0.6340250000000  0.6941050000000  0.5520600000000 1.0
C      1  0.6047830000000  0.5631870000000  0.5789400000000 1.0
C      1  0.6066600000000  0.4617410000000  0.6024050000000 1.0
C      1  0.5232750000000  0.3885090000000  0.6059320000000 1.0
C      1  0.4223070000000  0.4321020000000  0.6165140000000 1.0
C      1  0.3816310000000  0.5186560000000  0.5831220000000 1.0
C      1  0.4411380000000  0.5932370000000  0.5980640000000 1.0
C      1  0.5264370000000  0.6113880000000  0.5958610000000 1.0
C      1  0.6460120000000  0.3735430000000  0.3834180000000 1.0
C      1  0.4966010000000  0.3162170000000  0.3878830000000 1.0
C      1  0.3538540000000  0.3862810000000  0.3874180000000 1.0
C      1  0.3332210000000  0.5418260000000  0.4104090000000 1.0
C      1  0.4394620000000  0.6564890000000  0.4196720000000 1.0
C      1  0.5942970000000  0.6615780000000  0.3933040000000 1.0
C      1  0.6860500000000  0.5297560000000  0.3847270000000 1.0
C      1  0.5199500000000  0.4836900000000  0.3550290000000 1.0
C      1  0.5025290000000  0.4967580000000  0.4492890000000 1.0
C      1  0.5011330000000  0.4956380000000  0.5306160000000 1.0
C      1  0.5093850000000  0.4898540000000  0.6455360000000 1.0
END
