TITL C-3036483-1610-221 -0.000196170317324495 3375 -326.377422505532 0 0 60 (C1) n - 1
REM
REM in /home/bkarasulu/work/CARBON/AIRSS/Generating-Clusters/REBO/Higher-Symm/Only-C60
REM
REM
REM
REM
REM
REM ./C.cell (a2850807a9bf4ad07a5b6933b78d9264)
REM AIRSS Version 0.9.1 bugfix July 2018 build 013d7b7c2542+ Fri, 06 Jul 2018 19:26:36 +0100
REM compiler GCC version 9.2.1 20190827 (Red Hat 9.2.1-1)
REM options -cpp -mtune=generic -march=x86-64 -g -O0 -fpre-include=/usr/include/finclude/math-vector-fortran.h
REM seed 850879136 2019598582 1124273822 151100183 -2115558636 858099637 1364804631 -452237192 -1334265317 2039467160 2122670860 198643008 2074566398 1648412392 1006472018 474841340 752827976 1291693703 -497476647 -947673331 -2048899989 2005120606 1570423569 -477454146 1797328806 -1502735065 1577181225 551131834 -539429589 1129875945 -96434277 -1433761911 836646451
REM
CELL 1.54180   15.00000   15.00000   15.00000   90.00000   90.00000   90.00000
LATT -1
SFAC C  
C      1  0.3550000000000  0.3992810000000  0.4538600000000 1.0
C      1  0.4043470000000  0.4360650000000  0.3642770000000 1.0
C      1  0.4482980000000  0.3492940000000  0.4148390000000 1.0
C      1  0.3598520000000  0.5996050000000  0.5535350000000 1.0
C      1  0.6505320000000  0.4011890000000  0.5537120000000 1.0
C      1  0.6429090000000  0.6014520000000  0.4371450000000 1.0
C      1  0.4059750000000  0.5627670000000  0.6438780000000 1.0
C      1  0.6009580000000  0.4426670000000  0.6448660000000 1.0
C      1  0.5951530000000  0.5622140000000  0.3469440000000 1.0
C      1  0.4502510000000  0.6498690000000  0.5918750000000 1.0
C      1  0.5557410000000  0.3596980000000  0.5910660000000 1.0
C      1  0.5505140000000  0.6485240000000  0.4023590000000 1.0
C      1  0.6422700000000  0.4122710000000  0.4457920000000 1.0
C      1  0.5920720000000  0.4532830000000  0.3564000000000 1.0
C      1  0.5568190000000  0.3596680000000  0.4021900000000 1.0
C      1  0.6483210000000  0.5893730000000  0.5454920000000 1.0
C      1  0.3632880000000  0.4128010000000  0.5607040000000 1.0
C      1  0.3530760000000  0.5849370000000  0.4454360000000 1.0
C      1  0.5944230000000  0.5496350000000  0.6345770000000 1.0
C      1  0.4140810000000  0.4529730000000  0.6511000000000 1.0
C      1  0.4098970000000  0.5443290000000  0.3561720000000 1.0
C      1  0.5578560000000  0.6402120000000  0.5871300000000 1.0
C      1  0.4480440000000  0.3567800000000  0.6013830000000 1.0
C      1  0.4436790000000  0.6356500000000  0.4077560000000 1.0
C      1  0.5410600000000  0.7365810000000  0.5481270000000 1.0
C      1  0.7485670000000  0.5493030000000  0.5584060000000 1.0
C      1  0.5563790000000  0.5327370000000  0.7316900000000 1.0
C      1  0.5463960000000  0.2632700000000  0.4398280000000 1.0
C      1  0.4573650000000  0.7335190000000  0.4445190000000 1.0
C      1  0.4259650000000  0.2548370000000  0.5715610000000 1.0
C      1  0.7361780000000  0.4535270000000  0.4665890000000 1.0
C      1  0.2537580000000  0.5417970000000  0.4358800000000 1.0
C      1  0.2674240000000  0.4512170000000  0.5391350000000 1.0
C      1  0.5465370000000  0.4710580000000  0.2634120000000 1.0
C      1  0.4453300000000  0.5572870000000  0.2543310000000 1.0
C      1  0.4598930000000  0.4418430000000  0.7497640000000 1.0
C      1  0.4328850000000  0.7495460000000  0.5551600000000 1.0
C      1  0.2643870000000  0.5637230000000  0.5422520000000 1.0
C      1  0.4451290000000  0.5490880000000  0.7376540000000 1.0
C      1  0.4387550000000  0.2506420000000  0.4581620000000 1.0
C      1  0.5651590000000  0.7491400000000  0.4371100000000 1.0
C      1  0.5321410000000  0.2664090000000  0.5518280000000 1.0
C      1  0.2529120000000  0.4275930000000  0.4331910000000 1.0
C      1  0.7383170000000  0.5650770000000  0.4506940000000 1.0
C      1  0.7513090000000  0.4361840000000  0.5729680000000 1.0
C      1  0.4360840000000  0.4490340000000  0.2671880000000 1.0
C      1  0.5572590000000  0.5780970000000  0.2472230000000 1.0
C      1  0.5727220000000  0.4257830000000  0.7469630000000 1.0
C      1  0.1906150000000  0.4866810000000  0.3681330000000 1.0
C      1  0.5020550000000  0.3916290000000  0.2038740000000 1.0
C      1  0.3810440000000  0.8032730000000  0.4777650000000 1.0
C      1  0.6080220000000  0.2036500000000  0.5053730000000 1.0
C      1  0.2021100000000  0.5044830000000  0.6076590000000 1.0
C      1  0.8115520000000  0.5027340000000  0.6324980000000 1.0
C      1  0.7993180000000  0.4991930000000  0.3907150000000 1.0
C      1  0.5086850000000  0.3683130000000  0.8117640000000 1.0
C      1  0.4854040000000  0.6325230000000  0.1882580000000 1.0
C      1  0.5133730000000  0.6095880000000  0.7954760000000 1.0
C      1  0.3663700000000  0.1896830000000  0.5098590000000 1.0
C      1  0.6161850000000  0.8064190000000  0.5125030000000 1.0
END
