TITL C-3036485-3770-173 0.00389811666084939 3375 -345.881962328746 0 0 60 (C1) n - 1
REM
REM in /home/bkarasulu/work/CARBON/AIRSS/Generating-Clusters/REBO/Higher-Symm/Only-C60
REM
REM
REM
REM
REM
REM ./C.cell (a2850807a9bf4ad07a5b6933b78d9264)
REM AIRSS Version 0.9.1 bugfix July 2018 build 013d7b7c2542+ Fri, 06 Jul 2018 19:26:36 +0100
REM compiler GCC version 9.2.1 20190827 (Red Hat 9.2.1-1)
REM options -cpp -mtune=generic -march=x86-64 -g -O0 -fpre-include=/usr/include/finclude/math-vector-fortran.h
REM seed -1865742008 -29995480 1083744145 -990697907 -1663908881 985988138 -693413657 -272399106 -111323743 1694326869 -2099678591 1804438434 1720128157 333164486 -1851559638 -2056796590 -491536714 1154950792 344518857 881302092 -956985616 -1432143186 2099071588 -715993786 -177281094 -1268493763 -1595522519 1705678231 -1529875434 -1536081385 986889467 30906362 -501669135
REM
CELL 1.54180   15.00000   15.00000   15.00000   90.00000   90.00000   90.00000
LATT -1
SFAC C  
C      1  0.5531250000000  0.7192770000000  0.3573740000000 1.0
C      1  0.5639930000000  0.2808050000000  0.6422850000000 1.0
C      1  0.4480300000000  0.6944380000000  0.3500550000000 1.0
C      1  0.4580140000000  0.3027830000000  0.6498200000000 1.0
C      1  0.5675640000000  0.7120930000000  0.6482260000000 1.0
C      1  0.5833000000000  0.2872410000000  0.3547590000000 1.0
C      1  0.4635640000000  0.6949850000000  0.6394300000000 1.0
C      1  0.4781810000000  0.3025930000000  0.3588180000000 1.0
C      1  0.5508610000000  0.6249380000000  0.3053230000000 1.0
C      1  0.5592930000000  0.3743860000000  0.6950240000000 1.0
C      1  0.4480850000000  0.6135220000000  0.2848680000000 1.0
C      1  0.4565900000000  0.3839470000000  0.7146300000000 1.0
C      1  0.5495510000000  0.6261250000000  0.7123290000000 1.0
C      1  0.5670610000000  0.3746260000000  0.2925210000000 1.0
C      1  0.4439360000000  0.6174390000000  0.7019090000000 1.0
C      1  0.4615970000000  0.3830870000000  0.2988250000000 1.0
C      1  0.5792530000000  0.5564240000000  0.4629960000000 1.0
C      1  0.5844590000000  0.4451140000000  0.5382610000000 1.0
C      1  0.3808650000000  0.5436410000000  0.4290700000000 1.0
C      1  0.3873720000000  0.4509340000000  0.5704080000000 1.0
C      1  0.5899280000000  0.5511990000000  0.5725090000000 1.0
C      1  0.5949240000000  0.4502100000000  0.4295970000000 1.0
C      1  0.3921940000000  0.5596590000000  0.5407580000000 1.0
C      1  0.3986630000000  0.4355670000000  0.4583970000000 1.0
C      1  0.7113690000000  0.5331430000000  0.6517990000000 1.0
C      1  0.7340930000000  0.4479320000000  0.3375520000000 1.0
C      1  0.2723070000000  0.5637330000000  0.6399330000000 1.0
C      1  0.2926430000000  0.4622280000000  0.3656650000000 1.0
C      1  0.7134870000000  0.5449470000000  0.3561990000000 1.0
C      1  0.7230470000000  0.4344120000000  0.6366920000000 1.0
C      1  0.2738640000000  0.5593820000000  0.3511850000000 1.0
C      1  0.2846050000000  0.4648650000000  0.6540710000000 1.0
C      1  0.6065240000000  0.5511860000000  0.6793710000000 1.0
C      1  0.6249300000000  0.4502270000000  0.3276680000000 1.0
C      1  0.3826160000000  0.5541130000000  0.6541470000000 1.0
C      1  0.3975670000000  0.4425280000000  0.3444170000000 1.0
C      1  0.6066640000000  0.5585820000000  0.3538120000000 1.0
C      1  0.6136600000000  0.4434810000000  0.6465630000000 1.0
C      1  0.3811450000000  0.5483220000000  0.3168200000000 1.0
C      1  0.3899420000000  0.4479390000000  0.6829680000000 1.0
C      1  0.2230540000000  0.6130470000000  0.5802360000000 1.0
C      1  0.2456280000000  0.4089370000000  0.4252690000000 1.0
C      1  0.7565500000000  0.5913310000000  0.5942980000000 1.0
C      1  0.7817890000000  0.3959410000000  0.3982550000000 1.0
C      1  0.2239540000000  0.6124570000000  0.4072360000000 1.0
C      1  0.2399140000000  0.4056770000000  0.5975700000000 1.0
C      1  0.7610220000000  0.5934130000000  0.4202930000000 1.0
C      1  0.7726540000000  0.3899610000000  0.5729520000000 1.0
C      1  0.5548230000000  0.6510140000000  0.5535170000000 1.0
C      1  0.5646990000000  0.3494740000000  0.4477390000000 1.0
C      1  0.4416750000000  0.6583530000000  0.5442060000000 1.0
C      1  0.4517020000000  0.3378940000000  0.4545750000000 1.0
C      1  0.5307930000000  0.6551420000000  0.4459450000000 1.0
C      1  0.5395530000000  0.3442440000000  0.5539490000000 1.0
C      1  0.4179250000000  0.6442400000000  0.4413250000000 1.0
C      1  0.4264670000000  0.3513640000000  0.5577490000000 1.0
C      1  0.7924220000000  0.3774300000000  0.4859640000000 1.0
C      1  0.2060570000000  0.6306800000000  0.4936310000000 1.0
C      1  0.7738410000000  0.6098610000000  0.5078470000000 1.0
C      1  0.2266110000000  0.3874860000000  0.5103930000000 1.0
END
