TITL C-3036480-97-267 3.24717048442076e-06 3375 -360.416120415079 0 0 60 (T23) n - 1
REM
REM in /home/bkarasulu/work/CARBON/AIRSS/Generating-Clusters/REBO/Higher-Symm/Only-C60
REM
REM
REM
REM
REM
REM ./C.cell (a2850807a9bf4ad07a5b6933b78d9264)
REM AIRSS Version 0.9.1 bugfix July 2018 build 013d7b7c2542+ Fri, 06 Jul 2018 19:26:36 +0100
REM compiler GCC version 9.2.1 20190827 (Red Hat 9.2.1-1)
REM options -cpp -mtune=generic -march=x86-64 -g -O0 -fpre-include=/usr/include/finclude/math-vector-fortran.h
REM seed 1412721226 -855534099 1240812468 998812048 -1477781467 1507996440 984743557 1547044198 408613220 1970633600 1438289273 444556968 23109256 1557574629 -353128703 -772445284 759588460 -1994986382 754209659 -480828593 -1729065959 319959607 -1609326515 2071758074 607222053 -374134037 -1324367869 1199927987 2083301307 -1446568454 -1423350503 -989238229 90630439
REM
CELL 1.54180   15.00000   15.00000   15.00000   90.00000   90.00000   90.00000
LATT -1
SFAC C  
C      1  0.5611140000000  0.3142090000000  0.4167200000000 1.0
C      1  0.4167200000000  0.5611120000000  0.3142090000000 1.0
C      1  0.3142090000000  0.4167190000000  0.5611130000000 1.0
C      1  0.4388870000000  0.3142100000000  0.5832810000000 1.0
C      1  0.5611120000000  0.6857910000000  0.5832810000000 1.0
C      1  0.4388870000000  0.6857900000000  0.4167180000000 1.0
C      1  0.5832800000000  0.5611140000000  0.6857910000000 1.0
C      1  0.4167190000000  0.4388870000000  0.6857900000000 1.0
C      1  0.5832820000000  0.4388870000000  0.3142100000000 1.0
C      1  0.6857910000000  0.4167190000000  0.4388880000000 1.0
C      1  0.3142100000000  0.5832800000000  0.4388860000000 1.0
C      1  0.6857900000000  0.5832810000000  0.5611130000000 1.0
C      1  0.2387840000000  0.5814370000000  0.5810710000000 1.0
C      1  0.5810720000000  0.2387850000000  0.5814390000000 1.0
C      1  0.5814380000000  0.5810710000000  0.2387840000000 1.0
C      1  0.7612160000000  0.5814380000000  0.4189290000000 1.0
C      1  0.2387850000000  0.4185620000000  0.4189280000000 1.0
C      1  0.7612160000000  0.4185630000000  0.5810730000000 1.0
C      1  0.4189290000000  0.2387840000000  0.4185630000000 1.0
C      1  0.5810720000000  0.7612160000000  0.4185620000000 1.0
C      1  0.4189270000000  0.7612160000000  0.5814370000000 1.0
C      1  0.4185610000000  0.5810720000000  0.7612150000000 1.0
C      1  0.5814370000000  0.4189290000000  0.7612160000000 1.0
C      1  0.4185630000000  0.4189270000000  0.2387840000000 1.0
C      1  0.2356390000000  0.5702190000000  0.4901760000000 1.0
C      1  0.4901770000000  0.2356390000000  0.5702200000000 1.0
C      1  0.5702200000000  0.4901770000000  0.2356390000000 1.0
C      1  0.7643610000000  0.5702200000000  0.5098230000000 1.0
C      1  0.2356390000000  0.4297800000000  0.5098220000000 1.0
C      1  0.7643610000000  0.4297810000000  0.4901780000000 1.0
C      1  0.5098240000000  0.2356390000000  0.4297810000000 1.0
C      1  0.4901770000000  0.7643610000000  0.4297800000000 1.0
C      1  0.5098220000000  0.7643610000000  0.5702190000000 1.0
C      1  0.4297800000000  0.4901780000000  0.7643610000000 1.0
C      1  0.5702190000000  0.5098240000000  0.7643610000000 1.0
C      1  0.4297810000000  0.5098220000000  0.2356390000000 1.0
C      1  0.3495300000000  0.5276690000000  0.3718540000000 1.0
C      1  0.3718550000000  0.3495300000000  0.5276690000000 1.0
C      1  0.5276700000000  0.3718540000000  0.3495300000000 1.0
C      1  0.6504700000000  0.5276700000000  0.6281460000000 1.0
C      1  0.3495300000000  0.4723310000000  0.6281450000000 1.0
C      1  0.6504700000000  0.4723310000000  0.3718550000000 1.0
C      1  0.6281460000000  0.3495300000000  0.4723310000000 1.0
C      1  0.3718540000000  0.6504700000000  0.4723300000000 1.0
C      1  0.6281450000000  0.6504700000000  0.5276690000000 1.0
C      1  0.4723300000000  0.3718550000000  0.6504700000000 1.0
C      1  0.5276690000000  0.6281460000000  0.6504700000000 1.0
C      1  0.4723310000000  0.6281450000000  0.3495300000000 1.0
C      1  0.6658310000000  0.4266200000000  0.6253250000000 1.0
C      1  0.6253240000000  0.6658310000000  0.4266200000000 1.0
C      1  0.4266190000000  0.6253240000000  0.6658300000000 1.0
C      1  0.3341700000000  0.4266190000000  0.3746760000000 1.0
C      1  0.6658310000000  0.5733800000000  0.3746760000000 1.0
C      1  0.3341680000000  0.5733800000000  0.6253230000000 1.0
C      1  0.3746750000000  0.6658310000000  0.5733800000000 1.0
C      1  0.6253240000000  0.3341690000000  0.5733810000000 1.0
C      1  0.3746760000000  0.3341690000000  0.4266200000000 1.0
C      1  0.5733810000000  0.6253240000000  0.3341690000000 1.0
C      1  0.4266200000000  0.3746750000000  0.3341690000000 1.0
C      1  0.5733800000000  0.3746760000000  0.6658320000000 1.0
END
