TITL C-3036480-97-443 1.5083551435027e-05 3375 -359.312051608525 0 0 60 (C1) n - 1
REM
REM in /home/bkarasulu/work/CARBON/AIRSS/Generating-Clusters/REBO/Higher-Symm/Only-C60
REM
REM
REM
REM
REM
REM ./C.cell (a2850807a9bf4ad07a5b6933b78d9264)
REM AIRSS Version 0.9.1 bugfix July 2018 build 013d7b7c2542+ Fri, 06 Jul 2018 19:26:36 +0100
REM compiler GCC version 9.2.1 20190827 (Red Hat 9.2.1-1)
REM options -cpp -mtune=generic -march=x86-64 -g -O0 -fpre-include=/usr/include/finclude/math-vector-fortran.h
REM seed -602437322 -1150521964 -708193666 -1873035275 230576205 -968330349 628036886 -346751596 861660160 -191311698 1857307768 613043807 2117899976 -961688186 2005608258 1747047312 1485527322 -1711333863 -231196368 -1687513505 -503948277 484182214 -1959187657 -842672318 1351553878 821360446 1606882503 -2083292636 -389523940 1889667102 -754423219 -1891741539 -815488163
REM
CELL 1.54180   15.00000   15.00000   15.00000   90.00000   90.00000   90.00000
LATT -1
SFAC C  
C      1  0.6616450000000  0.4200830000000  0.6618460000000 1.0
C      1  0.7061260000000  0.4179830000000  0.3963330000000 1.0
C      1  0.4649130000000  0.4220160000000  0.2667750000000 1.0
C      1  0.2472200000000  0.4184680000000  0.4956140000000 1.0
C      1  0.4135990000000  0.4097150000000  0.7387770000000 1.0
C      1  0.3313770000000  0.4148520000000  0.6626210000000 1.0
C      1  0.2926890000000  0.4243760000000  0.3925320000000 1.0
C      1  0.5775850000000  0.4165210000000  0.2558390000000 1.0
C      1  0.7502120000000  0.4185760000000  0.4988770000000 1.0
C      1  0.5810640000000  0.4152510000000  0.7380810000000 1.0
C      1  0.4527450000000  0.6430400000000  0.6626960000000 1.0
C      1  0.6263330000000  0.6566260000000  0.5935190000000 1.0
C      1  0.6262150000000  0.6463900000000  0.4110340000000 1.0
C      1  0.4526630000000  0.6422990000000  0.3451880000000 1.0
C      1  0.3416660000000  0.6452250000000  0.5046140000000 1.0
C      1  0.5548040000000  0.6537270000000  0.6523230000000 1.0
C      1  0.3819040000000  0.6449480000000  0.6014890000000 1.0
C      1  0.3762690000000  0.6463540000000  0.4176740000000 1.0
C      1  0.5472450000000  0.6418030000000  0.3421940000000 1.0
C      1  0.6641950000000  0.6497280000000  0.4964580000000 1.0
C      1  0.6186400000000  0.3478880000000  0.4081510000000 1.0
C      1  0.4519970000000  0.3529390000000  0.3557320000000 1.0
C      1  0.3359480000000  0.3477110000000  0.5008320000000 1.0
C      1  0.4507500000000  0.3397030000000  0.6571880000000 1.0
C      1  0.6210770000000  0.3460990000000  0.5857770000000 1.0
C      1  0.3792180000000  0.3530000000000  0.4091020000000 1.0
C      1  0.5524050000000  0.3487960000000  0.3431710000000 1.0
C      1  0.6611080000000  0.3481020000000  0.5013820000000 1.0
C      1  0.5473170000000  0.3412790000000  0.6582880000000 1.0
C      1  0.3755540000000  0.3444760000000  0.5853800000000 1.0
C      1  0.7068960000000  0.5915720000000  0.6078740000000 1.0
C      1  0.6676910000000  0.5865240000000  0.3352340000000 1.0
C      1  0.4025650000000  0.5881480000000  0.2683050000000 1.0
C      1  0.2532990000000  0.5879920000000  0.5191600000000 1.0
C      1  0.4434930000000  0.5790200000000  0.7454480000000 1.0
C      1  0.2958780000000  0.5865410000000  0.6143940000000 1.0
C      1  0.3297170000000  0.5926530000000  0.3408100000000 1.0
C      1  0.5917540000000  0.5853930000000  0.2642610000000 1.0
C      1  0.7491980000000  0.5890090000000  0.5125770000000 1.0
C      1  0.5494160000000  0.5866020000000  0.7340870000000 1.0
C      1  0.4459500000000  0.5213440000000  0.2199350000000 1.0
C      1  0.2258300000000  0.5211480000000  0.4575730000000 1.0
C      1  0.3748870000000  0.5134890000000  0.7499390000000 1.0
C      1  0.6953250000000  0.5267940000000  0.6742630000000 1.0
C      1  0.7309720000000  0.5222180000000  0.3616320000000 1.0
C      1  0.5465550000000  0.5158290000000  0.2189380000000 1.0
C      1  0.7719300000000  0.5181690000000  0.4543550000000 1.0
C      1  0.6194340000000  0.5210140000000  0.7420100000000 1.0
C      1  0.3004330000000  0.5211800000000  0.6812830000000 1.0
C      1  0.2654660000000  0.5289350000000  0.3649920000000 1.0
C      1  0.3807300000000  0.4776620000000  0.5829280000000 1.0
C      1  0.5406930000000  0.4733630000000  0.6469560000000 1.0
C      1  0.6535220000000  0.4807900000000  0.5011990000000 1.0
C      1  0.5526130000000  0.4816630000000  0.3470540000000 1.0
C      1  0.3849790000000  0.4861460000000  0.4127430000000 1.0
C      1  0.6118590000000  0.4789560000000  0.5803860000000 1.0
C      1  0.4506420000000  0.4722740000000  0.6493460000000 1.0
C      1  0.3439190000000  0.4803340000000  0.5018100000000 1.0
C      1  0.4554000000000  0.4861540000000  0.3594870000000 1.0
C      1  0.6144700000000  0.4811120000000  0.4115310000000 1.0
END
