TITL C-3036480-97-309 7.38289398952958e-07 3375 -361.855503628707 0 0 60 (C5) n - 1
REM
REM in /home/bkarasulu/work/CARBON/AIRSS/Generating-Clusters/REBO/Higher-Symm/Only-C60
REM
REM
REM
REM
REM
REM ./C.cell (a2850807a9bf4ad07a5b6933b78d9264)
REM AIRSS Version 0.9.1 bugfix July 2018 build 013d7b7c2542+ Fri, 06 Jul 2018 19:26:36 +0100
REM compiler GCC version 9.2.1 20190827 (Red Hat 9.2.1-1)
REM options -cpp -mtune=generic -march=x86-64 -g -O0 -fpre-include=/usr/include/finclude/math-vector-fortran.h
REM seed 1318700781 -811036773 988993123 -1136462175 737506058 -155394353 380900624 -346166630 -1282199171 -1569470708 -1468519391 1512801972 -1236572581 2009574278 -2049777569 1887175663 658595942 103891860 -1896146889 1422196535 -1009992998 1415904779 1916633870 282096532 -108097292 -34051485 2016817085 1188927336 -1752818081 -270100041 -1643906043 1232555381 -112264833
REM
CELL 1.54180   15.00000   15.00000   15.00000   90.00000   90.00000   90.00000
LATT -1
SFAC C  
C      1  0.3214350000000  0.3461720000000  0.4720400000000 1.0
C      1  0.3213970000000  0.4258580000000  0.6376020000000 1.0
C      1  0.3213510000000  0.6079410000000  0.6129780000000 1.0
C      1  0.3213610000000  0.6407890000000  0.4321970000000 1.0
C      1  0.3214130000000  0.4790070000000  0.3450930000000 1.0
C      1  0.4694070000000  0.6330270000000  0.3667940000000 1.0
C      1  0.4694680000000  0.4144180000000  0.3323110000000 1.0
C      1  0.4694750000000  0.3140700000000  0.5295640000000 1.0
C      1  0.4694170000000  0.4706590000000  0.6859560000000 1.0
C      1  0.4693760000000  0.6677850000000  0.5853580000000 1.0
C      1  0.4949410000000  0.2824680000000  0.6296240000000 1.0
C      1  0.4948560000000  0.5560590000000  0.7469390000000 1.0
C      1  0.4948280000000  0.7521760000000  0.5229920000000 1.0
C      1  0.4948940000000  0.5997940000000  0.2672690000000 1.0
C      1  0.4949640000000  0.3094970000000  0.3331720000000 1.0
C      1  0.3972270000000  0.4693470000000  0.2867860000000 1.0
C      1  0.3972570000000  0.2877410000000  0.4632340000000 1.0
C      1  0.3972040000000  0.3994330000000  0.6904760000000 1.0
C      1  0.3971420000000  0.6500680000000  0.6544730000000 1.0
C      1  0.3971560000000  0.6932770000000  0.4049790000000 1.0
C      1  0.5883720000000  0.5187120000000  0.7211070000000 1.0
C      1  0.5883380000000  0.7160750000000  0.5505580000000 1.0
C      1  0.5883890000000  0.6148620000000  0.3101520000000 1.0
C      1  0.5884550000000  0.3549450000000  0.3321220000000 1.0
C      1  0.5884450000000  0.2955220000000  0.5861070000000 1.0
C      1  0.4588080000000  0.4208790000000  0.5188270000000 1.0
C      1  0.4587830000000  0.4934530000000  0.5810530000000 1.0
C      1  0.4587660000000  0.5750590000000  0.5312600000000 1.0
C      1  0.4587810000000  0.5529210000000  0.4382610000000 1.0
C      1  0.4588070000000  0.4576330000000  0.4305770000000 1.0
C      1  0.5690740000000  0.6298580000000  0.6088810000000 1.0
C      1  0.5690900000000  0.6436860000000  0.4101660000000 1.0
C      1  0.5691470000000  0.4589700000000  0.3356080000000 1.0
C      1  0.5691650000000  0.3309810000000  0.4882440000000 1.0
C      1  0.5691200000000  0.4365950000000  0.6571360000000 1.0
C      1  0.6755710000000  0.5167890000000  0.6565780000000 1.0
C      1  0.6755470000000  0.6541170000000  0.5324740000000 1.0
C      1  0.6755840000000  0.5785240000000  0.3635170000000 1.0
C      1  0.6756310000000  0.3944770000000  0.3832000000000 1.0
C      1  0.6756230000000  0.3563220000000  0.5643210000000 1.0
C      1  0.5877210000000  0.4899190000000  0.4210530000000 1.0
C      1  0.5877320000000  0.4218090000000  0.4852190000000 1.0
C      1  0.5877130000000  0.4617870000000  0.5698250000000 1.0
C      1  0.5876900000000  0.5546060000000  0.5579470000000 1.0
C      1  0.5876940000000  0.5719930000000  0.4660010000000 1.0
C      1  0.4336740000000  0.7663890000000  0.4533170000000 1.0
C      1  0.4337570000000  0.5379150000000  0.2322020000000 1.0
C      1  0.4338150000000  0.2570200000000  0.3811660000000 1.0
C      1  0.4337690000000  0.3118920000000  0.6943450000000 1.0
C      1  0.4336810000000  0.6266990000000  0.7389360000000 1.0
C      1  0.3003410000000  0.6365490000000  0.5246870000000 1.0
C      1  0.3003750000000  0.5656580000000  0.3776990000000 1.0
C      1  0.3004160000000  0.4039580000000  0.3996990000000 1.0
C      1  0.3004070000000  0.3749130000000  0.5602830000000 1.0
C      1  0.3003610000000  0.5186620000000  0.6375300000000 1.0
C      1  0.7033290000000  0.6325800000000  0.4410290000000 1.0
C      1  0.7033770000000  0.4849010000000  0.3557510000000 1.0
C      1  0.7033990000000  0.3581620000000  0.4698490000000 1.0
C      1  0.7033640000000  0.4275110000000  0.6256440000000 1.0
C      1  0.7033210000000  0.5971110000000  0.6078320000000 1.0
END
