TITL C-3036482-790-893 0.00617351587133183 3375 -343.317658774523 0 0 60 (C2) n - 1
REM
REM in /home/bkarasulu/work/CARBON/AIRSS/Generating-Clusters/REBO/Higher-Symm/Only-C60
REM
REM
REM
REM
REM
REM ./C.cell (a2850807a9bf4ad07a5b6933b78d9264)
REM AIRSS Version 0.9.1 bugfix July 2018 build 013d7b7c2542+ Fri, 06 Jul 2018 19:26:36 +0100
REM compiler GCC version 9.2.1 20190827 (Red Hat 9.2.1-1)
REM options -cpp -mtune=generic -march=x86-64 -g -O0 -fpre-include=/usr/include/finclude/math-vector-fortran.h
REM seed 1734963754 226876482 -251104831 1490387763 585832076 2014256138 -529592458 1586730790 961721216 1457931393 -496793226 -1863310532 -495851220 -24214036 1433343809 1280663495 -2188121 -968147844 -1356743652 1485170212 194236337 480752903 1446131448 -2126416455 624814511 524093804 1844062063 110243290 535600734 -716645061 414724394 494698558 1315094279
REM
CELL 1.54180   15.00000   15.00000   15.00000   90.00000   90.00000   90.00000
LATT -1
SFAC C  
C      1  0.2946140000000  0.4005940000000  0.4928830000000 1.0
C      1  0.2946140000000  0.5995620000000  0.5071930000000 1.0
C      1  0.7100590000000  0.4006780000000  0.5003780000000 1.0
C      1  0.7100980000000  0.5992440000000  0.4996190000000 1.0
C      1  0.4471210000000  0.4044930000000  0.4931000000000 1.0
C      1  0.4470770000000  0.5953910000000  0.5069460000000 1.0
C      1  0.5512410000000  0.4164950000000  0.5074920000000 1.0
C      1  0.5512240000000  0.5834590000000  0.4924080000000 1.0
C      1  0.7061580000000  0.5442570000000  0.4112230000000 1.0
C      1  0.7060790000000  0.4556730000000  0.5887650000000 1.0
C      1  0.2963880000000  0.5525960000000  0.4146570000000 1.0
C      1  0.2962220000000  0.4475170000000  0.5854340000000 1.0
C      1  0.5593850000000  0.4620210000000  0.6005710000000 1.0
C      1  0.5593800000000  0.5379400000000  0.3993280000000 1.0
C      1  0.4544410000000  0.4554670000000  0.5898510000000 1.0
C      1  0.4544070000000  0.5444650000000  0.4101220000000 1.0
C      1  0.6595270000000  0.5026480000000  0.7230510000000 1.0
C      1  0.6595810000000  0.4973950000000  0.2767780000000 1.0
C      1  0.3427660000000  0.4887060000000  0.7140870000000 1.0
C      1  0.3428490000000  0.5113500000000  0.2860280000000 1.0
C      1  0.3157460000000  0.4588670000000  0.4191210000000 1.0
C      1  0.3156400000000  0.5412330000000  0.5809650000000 1.0
C      1  0.6871060000000  0.4506130000000  0.4224080000000 1.0
C      1  0.6870550000000  0.5493240000000  0.5775650000000 1.0
C      1  0.5434670000000  0.6172060000000  0.6683470000000 1.0
C      1  0.5435970000000  0.3828660000000  0.3315230000000 1.0
C      1  0.4519180000000  0.6112380000000  0.6719080000000 1.0
C      1  0.4520470000000  0.3888050000000  0.3280100000000 1.0
C      1  0.3573720000000  0.3513060000000  0.5749780000000 1.0
C      1  0.3574420000000  0.6488560000000  0.4251440000000 1.0
C      1  0.6440730000000  0.3596160000000  0.5839190000000 1.0
C      1  0.6441480000000  0.6403020000000  0.4160580000000 1.0
C      1  0.6269450000000  0.3211420000000  0.3722320000000 1.0
C      1  0.6268430000000  0.6787800000000  0.6273740000000 1.0
C      1  0.3654210000000  0.3210520000000  0.3509940000000 1.0
C      1  0.3651250000000  0.6789730000000  0.6492560000000 1.0
C      1  0.5437860000000  0.3194940000000  0.4488110000000 1.0
C      1  0.5433210000000  0.6804450000000  0.5509850000000 1.0
C      1  0.4317930000000  0.3088310000000  0.4334010000000 1.0
C      1  0.4313800000000  0.6909570000000  0.5667560000000 1.0
C      1  0.3954230000000  0.5745980000000  0.3228620000000 1.0
C      1  0.3953960000000  0.4255340000000  0.6772550000000 1.0
C      1  0.6105510000000  0.5653840000000  0.3114410000000 1.0
C      1  0.6105140000000  0.4346270000000  0.6884540000000 1.0
C      1  0.5876860000000  0.4418660000000  0.4126950000000 1.0
C      1  0.5875910000000  0.5580900000000  0.5871430000000 1.0
C      1  0.4145040000000  0.4502240000000  0.4080290000000 1.0
C      1  0.4144080000000  0.5497090000000  0.5920680000000 1.0
C      1  0.4497810000000  0.3336320000000  0.6417340000000 1.0
C      1  0.4499410000000  0.6664130000000  0.3584780000000 1.0
C      1  0.5587220000000  0.3420730000000  0.6580700000000 1.0
C      1  0.5588240000000  0.6579200000000  0.3418970000000 1.0
C      1  0.3489970000000  0.4181840000000  0.2965780000000 1.0
C      1  0.3489140000000  0.5818300000000  0.7035180000000 1.0
C      1  0.6492710000000  0.4061340000000  0.3004680000000 1.0
C      1  0.6491590000000  0.5939760000000  0.6994250000000 1.0
C      1  0.4419530000000  0.2819190000000  0.5420770000000 1.0
C      1  0.4421290000000  0.7180590000000  0.4581850000000 1.0
C      1  0.5543320000000  0.2939210000000  0.5577160000000 1.0
C      1  0.5544500000000  0.7060540000000  0.4422370000000 1.0
END
