TITL C-3036480-97-866 0.413567871903949 3375 -334.202988264809 0 0 60 (C2v) n - 1
REM
REM in /home/bkarasulu/work/CARBON/AIRSS/Generating-Clusters/REBO/Higher-Symm/Only-C60
REM
REM
REM
REM
REM
REM ./C.cell (a2850807a9bf4ad07a5b6933b78d9264)
REM AIRSS Version 0.9.1 bugfix July 2018 build 013d7b7c2542+ Fri, 06 Jul 2018 19:26:36 +0100
REM compiler GCC version 9.2.1 20190827 (Red Hat 9.2.1-1)
REM options -cpp -mtune=generic -march=x86-64 -g -O0 -fpre-include=/usr/include/finclude/math-vector-fortran.h
REM seed 1682196639 -1009361512 252354863 1880920130 1805648224 -1155392038 1003508813 55524163 2134515135 -1312321191 -1555433805 -2125896925 -111698022 1901900885 -208161894 318307909 -1803435082 -2081365875 -21508894 -1868602792 -242731727 -1736654458 -1155513999 279757806 1068548976 1576237207 295005075 2011083635 1214317711 -134001937 -1529112629 1218197568 113215127
REM
CELL 1.54180   15.00000   15.00000   15.00000   90.00000   90.00000   90.00000
LATT -1
SFAC C  
C      1  0.5503120000000  0.6476780000000  0.3787010000000 1.0
C      1  0.4558710000000  0.3565200000000  0.3786980000000 1.0
C      1  0.4559050000000  0.6474170000000  0.3787260000000 1.0
C      1  0.5502800000000  0.3563210000000  0.3786740000000 1.0
C      1  0.5896740000000  0.4160970000000  0.7192500000000 1.0
C      1  0.4162850000000  0.5878750000000  0.7192090000000 1.0
C      1  0.4163350000000  0.4161030000000  0.7191900000000 1.0
C      1  0.5896880000000  0.5878350000000  0.7192810000000 1.0
C      1  0.3211060000000  0.5586040000000  0.4419960000000 1.0
C      1  0.6847710000000  0.4453800000000  0.4420900000000 1.0
C      1  0.6847700000000  0.5585960000000  0.4420970000000 1.0
C      1  0.3211090000000  0.4453660000000  0.4419800000000 1.0
C      1  0.6441790000000  0.6101980000000  0.6439130000000 1.0
C      1  0.3618210000000  0.3937640000000  0.6439620000000 1.0
C      1  0.3618340000000  0.6101930000000  0.6439440000000 1.0
C      1  0.6441670000000  0.3937480000000  0.6439000000000 1.0
C      1  0.3335840000000  0.3620820000000  0.5008360000000 1.0
C      1  0.6724680000000  0.6418870000000  0.5010170000000 1.0
C      1  0.6724680000000  0.3620800000000  0.5009930000000 1.0
C      1  0.3335960000000  0.6418720000000  0.5008720000000 1.0
C      1  0.4092160000000  0.3234930000000  0.5736610000000 1.0
C      1  0.5968070000000  0.6805450000000  0.5737360000000 1.0
C      1  0.5967860000000  0.3234090000000  0.5737070000000 1.0
C      1  0.4092240000000  0.6804850000000  0.5736680000000 1.0
C      1  0.7032490000000  0.4451500000000  0.5737710000000 1.0
C      1  0.3028440000000  0.5587240000000  0.5737170000000 1.0
C      1  0.3028490000000  0.4452180000000  0.5737060000000 1.0
C      1  0.7032470000000  0.5588030000000  0.5737780000000 1.0
C      1  0.5866210000000  0.3078010000000  0.4612640000000 1.0
C      1  0.4195470000000  0.6959970000000  0.4612540000000 1.0
C      1  0.4195400000000  0.3079550000000  0.4612520000000 1.0
C      1  0.5866290000000  0.6961900000000  0.4613030000000 1.0
C      1  0.4007900000000  0.5856970000000  0.3344150000000 1.0
C      1  0.6051880000000  0.4180480000000  0.3341450000000 1.0
C      1  0.6052580000000  0.5859960000000  0.3341670000000 1.0
C      1  0.4007330000000  0.4182100000000  0.3343920000000 1.0
C      1  0.5029670000000  0.4128500000000  0.5398570000000 1.0
C      1  0.5029520000000  0.5911010000000  0.5398360000000 1.0
C      1  0.5029780000000  0.8015850000000  0.5734380000000 1.0
C      1  0.5029810000000  0.2023930000000  0.5733850000000 1.0
C      1  0.6356860000000  0.5020080000000  0.3153990000000 1.0
C      1  0.3705170000000  0.5019700000000  0.3154440000000 1.0
C      1  0.7657640000000  0.5019810000000  0.4976390000000 1.0
C      1  0.2402030000000  0.5019740000000  0.4976620000000 1.0
C      1  0.5029950000000  0.3299250000000  0.6177020000000 1.0
C      1  0.5030060000000  0.6740620000000  0.6177310000000 1.0
C      1  0.5866100000000  0.5019870000000  0.4392280000000 1.0
C      1  0.4195660000000  0.5019890000000  0.4389720000000 1.0
C      1  0.5030300000000  0.6278760000000  0.7087740000000 1.0
C      1  0.5030150000000  0.3761310000000  0.7087690000000 1.0
C      1  0.5987150000000  0.5019690000000  0.7588180000000 1.0
C      1  0.4074390000000  0.5019670000000  0.7586670000000 1.0
C      1  0.5030250000000  0.7461990000000  0.5057790000000 1.0
C      1  0.5030360000000  0.2577440000000  0.5057710000000 1.0
C      1  0.5030880000000  0.5018830000000  0.2184340000000 1.0
C      1  0.5029240000000  0.5018850000000  0.6658930000000 1.0
C      1  0.5022960000000  0.5018860000000  0.3067100000000 1.0
C      1  0.5030220000000  0.5019870000000  0.5750330000000 1.0
C      1  0.5029260000000  0.5019510000000  0.3997640000000 1.0
C      1  0.5030430000000  0.5018810000000  0.1314450000000 1.0
END
