TITL C-3036479-9801-895 -0.0196056394551311 3375 -326.067428357684 0 0 60 (C3) n - 1
REM
REM in /home/bkarasulu/work/CARBON/AIRSS/Generating-Clusters/REBO/Higher-Symm/Only-C60
REM
REM
REM
REM
REM
REM ./C.cell (a2850807a9bf4ad07a5b6933b78d9264)
REM AIRSS Version 0.9.1 bugfix July 2018 build 013d7b7c2542+ Fri, 06 Jul 2018 19:26:36 +0100
REM compiler GCC version 9.2.1 20190827 (Red Hat 9.2.1-1)
REM options -cpp -mtune=generic -march=x86-64 -g -O0 -fpre-include=/usr/include/finclude/math-vector-fortran.h
REM seed -910305609 -1293597239 -208915810 -911622392 -1605315749 950948992 -1267577321 -1886115918 -387630274 -541339891 -2118456352 2115377889 619159890 -1580073844 118682663 -723015193 578238890 -1977516425 -1489885578 -454882299 65911688 850684894 -1074926907 1793121015 -381643892 -1730140630 89578076 472914269 -1157754568 1300358956 -1619833091 740626257 -967455171
REM
CELL 1.54180   15.00000   15.00000   15.00000   90.00000   90.00000   90.00000
LATT -1
SFAC C  
C      1  0.4816540000000  0.5931860000000  0.4815090000000 1.0
C      1  0.4817240000000  0.4374190000000  0.4292670000000 1.0
C      1  0.4814270000000  0.4695410000000  0.5898500000000 1.0
C      1  0.4658280000000  0.6155210000000  0.2730400000000 1.0
C      1  0.4657300000000  0.2458320000000  0.5132320000000 1.0
C      1  0.4659520000000  0.6385850000000  0.7137360000000 1.0
C      1  0.3900500000000  0.6163700000000  0.5448080000000 1.0
C      1  0.3903200000000  0.4805360000000  0.3771010000000 1.0
C      1  0.3898790000000  0.4029650000000  0.5784480000000 1.0
C      1  0.4446360000000  0.3098490000000  0.6040600000000 1.0
C      1  0.4447610000000  0.6852760000000  0.6127290000000 1.0
C      1  0.4445980000000  0.5048060000000  0.2833000000000 1.0
C      1  0.3703240000000  0.3575190000000  0.3283550000000 1.0
C      1  0.3695540000000  0.4220960000000  0.7093300000000 1.0
C      1  0.3698010000000  0.7202630000000  0.4624620000000 1.0
C      1  0.5648070000000  0.5841870000000  0.7067280000000 1.0
C      1  0.5647250000000  0.6367660000000  0.3235760000000 1.0
C      1  0.5645480000000  0.2787380000000  0.4695060000000 1.0
C      1  0.6551800000000  0.3985370000000  0.5339810000000 1.0
C      1  0.6549730000000  0.5804040000000  0.5716090000000 1.0
C      1  0.6552420000000  0.5217740000000  0.3944660000000 1.0
C      1  0.5981750000000  0.7149430000000  0.5382890000000 1.0
C      1  0.5981610000000  0.4258720000000  0.2947800000000 1.0
C      1  0.5982410000000  0.3593090000000  0.6667700000000 1.0
C      1  0.5227310000000  0.3574140000000  0.2845170000000 1.0
C      1  0.5224990000000  0.3850050000000  0.7309100000000 1.0
C      1  0.5226260000000  0.7576550000000  0.4839060000000 1.0
C      1  0.5632470000000  0.4780060000000  0.4116830000000 1.0
C      1  0.5630270000000  0.4345070000000  0.5633090000000 1.0
C      1  0.5630750000000  0.5876700000000  0.5253460000000 1.0
C      1  0.7027700000000  0.5909010000000  0.4476760000000 1.0
C      1  0.7027970000000  0.4090940000000  0.4472560000000 1.0
C      1  0.7029380000000  0.5000040000000  0.6052570000000 1.0
C      1  0.4363810000000  0.3975520000000  0.2717020000000 1.0
C      1  0.4362560000000  0.3534280000000  0.7026630000000 1.0
C      1  0.4363600000000  0.7489740000000  0.5253840000000 1.0
C      1  0.2898600000000  0.6522170000000  0.4426030000000 1.0
C      1  0.2899240000000  0.3740720000000  0.3966610000000 1.0
C      1  0.2896400000000  0.4734830000000  0.6607180000000 1.0
C      1  0.5513270000000  0.3247160000000  0.5734590000000 1.0
C      1  0.5516100000000  0.6516230000000  0.6152630000000 1.0
C      1  0.5513450000000  0.5238100000000  0.3114580000000 1.0
C      1  0.3013240000000  0.5634630000000  0.5037030000000 1.0
C      1  0.3012570000000  0.4713920000000  0.4430760000000 1.0
C      1  0.3010060000000  0.4649870000000  0.5532300000000 1.0
C      1  0.4185940000000  0.5018560000000  0.6628380000000 1.0
C      1  0.4188280000000  0.6400570000000  0.4169760000000 1.0
C      1  0.4187700000000  0.3580290000000  0.4207820000000 1.0
C      1  0.6654140000000  0.5888540000000  0.3164300000000 1.0
C      1  0.6652610000000  0.2975120000000  0.5135520000000 1.0
C      1  0.6655920000000  0.6142080000000  0.6688530000000 1.0
C      1  0.6572120000000  0.3880920000000  0.3681160000000 1.0
C      1  0.6573040000000  0.4417810000000  0.6627790000000 1.0
C      1  0.6572150000000  0.6700060000000  0.4690220000000 1.0
C      1  0.3476420000000  0.5646310000000  0.6282150000000 1.0
C      1  0.3479890000000  0.5785530000000  0.3799270000000 1.0
C      1  0.3474760000000  0.3565720000000  0.4921130000000 1.0
C      1  0.5733980000000  0.6980020000000  0.4088550000000 1.0
C      1  0.5734860000000  0.3218590000000  0.3736700000000 1.0
C      1  0.5735320000000  0.4797230000000  0.7171610000000 1.0
END
