TITL C-3036481-494-532 0.0762811730116754 3375 -345.302482093577 0 0 60 (Ci) n - 1
REM
REM in /home/bkarasulu/work/CARBON/AIRSS/Generating-Clusters/REBO/Higher-Symm/Only-C60
REM
REM
REM
REM
REM
REM ./C.cell (a2850807a9bf4ad07a5b6933b78d9264)
REM AIRSS Version 0.9.1 bugfix July 2018 build 013d7b7c2542+ Fri, 06 Jul 2018 19:26:36 +0100
REM compiler GCC version 9.2.1 20190827 (Red Hat 9.2.1-1)
REM options -cpp -mtune=generic -march=x86-64 -g -O0 -fpre-include=/usr/include/finclude/math-vector-fortran.h
REM seed -1772643072 -1252752338 927462905 1709471795 -416299736 -454658712 -1923094185 -673252506 1762283898 -359147809 -1874762641 -333097335 -2001520301 -19769052 2075515654 1570495620 -664417462 1313199567 -729898080 -1920885075 -1749005368 425577500 -1478471343 426584766 1798417798 -258529279 -552106906 -1510866893 -541664579 -2043730691 -159202219 -2103580626 -1046667279
REM
CELL 1.54180   15.00000   15.00000   15.00000   90.00000   90.00000   90.00000
LATT -1
SFAC C  
C      1  0.3134780000000  0.5502740000000  0.4114440000000 1.0
C      1  0.4826960000000  0.4248240000000  0.3011410000000 1.0
C      1  0.6791590000000  0.5609670000000  0.3753940000000 1.0
C      1  0.6865240000000  0.4497400000000  0.5885550000000 1.0
C      1  0.5173080000000  0.5751860000000  0.6988530000000 1.0
C      1  0.3207430000000  0.4390010000000  0.6246660000000 1.0
C      1  0.5590410000000  0.4119660000000  0.7189240000000 1.0
C      1  0.3622920000000  0.5769160000000  0.6828480000000 1.0
C      1  0.2689970000000  0.4078670000000  0.4556190000000 1.0
C      1  0.4408110000000  0.5880770000000  0.2806820000000 1.0
C      1  0.6376980000000  0.4230570000000  0.3171320000000 1.0
C      1  0.7309810000000  0.5921040000000  0.5444370000000 1.0
C      1  0.4924700000000  0.5708350000000  0.4023030000000 1.0
C      1  0.5768750000000  0.4249660000000  0.4388170000000 1.0
C      1  0.5889570000000  0.5721110000000  0.5326620000000 1.0
C      1  0.5077840000000  0.4290660000000  0.5977480000000 1.0
C      1  0.4231640000000  0.5750940000000  0.5611550000000 1.0
C      1  0.4110490000000  0.4278840000000  0.4673770000000 1.0
C      1  0.3899730000000  0.6830380000000  0.4932980000000 1.0
C      1  0.4474220000000  0.3152540000000  0.4063710000000 1.0
C      1  0.5625240000000  0.6832560000000  0.4068360000000 1.0
C      1  0.6100530000000  0.3169760000000  0.5067520000000 1.0
C      1  0.5525940000000  0.6847650000000  0.5936120000000 1.0
C      1  0.4374820000000  0.3167600000000  0.5931970000000 1.0
C      1  0.3091490000000  0.6146310000000  0.5048130000000 1.0
C      1  0.4040750000000  0.3736260000000  0.3361800000000 1.0
C      1  0.6001540000000  0.6246780000000  0.3350640000000 1.0
C      1  0.6908060000000  0.3853980000000  0.4951560000000 1.0
C      1  0.5959260000000  0.6263680000000  0.6638520000000 1.0
C      1  0.3998590000000  0.3752630000000  0.6649360000000 1.0
C      1  0.6781070000000  0.5564690000000  0.6301410000000 1.0
C      1  0.4597460000000  0.4301030000000  0.7221770000000 1.0
C      1  0.2986150000000  0.5489260000000  0.5970690000000 1.0
C      1  0.3219030000000  0.4435090000000  0.3699120000000 1.0
C      1  0.5401600000000  0.5699170000000  0.2780770000000 1.0
C      1  0.7013810000000  0.4511450000000  0.4028530000000 1.0
C      1  0.3884820000000  0.6659270000000  0.6707390000000 1.0
C      1  0.2950950000000  0.3224250000000  0.4794100000000 1.0
C      1  0.4223750000000  0.6780290000000  0.3112060000000 1.0
C      1  0.6115180000000  0.3340530000000  0.3292520000000 1.0
C      1  0.7049220000000  0.6775270000000  0.5205720000000 1.0
C      1  0.5776050000000  0.3219670000000  0.6888040000000 1.0
C      1  0.4544510000000  0.6780840000000  0.4115450000000 1.0
C      1  0.5512590000000  0.3173130000000  0.4153140000000 1.0
C      1  0.6025570000000  0.6787820000000  0.5010740000000 1.0
C      1  0.5455500000000  0.3219830000000  0.5884210000000 1.0
C      1  0.4487370000000  0.6827090000000  0.5846510000000 1.0
C      1  0.3974430000000  0.3212640000000  0.4989200000000 1.0
C      1  0.4364510000000  0.5259130000000  0.7285390000000 1.0
C      1  0.2618570000000  0.4642360000000  0.5311090000000 1.0
C      1  0.3783870000000  0.5287900000000  0.3201440000000 1.0
C      1  0.5635510000000  0.4740760000000  0.2714760000000 1.0
C      1  0.7381080000000  0.5357470000000  0.4689290000000 1.0
C      1  0.6216110000000  0.4711810000000  0.6798660000000 1.0
C      1  0.4873380000000  0.4568730000000  0.3980490000000 1.0
C      1  0.5897550000000  0.5342600000000  0.4312130000000 1.0
C      1  0.5899810000000  0.4578420000000  0.5387590000000 1.0
C      1  0.5126660000000  0.5431130000000  0.6019760000000 1.0
C      1  0.4103740000000  0.4656850000000  0.5687850000000 1.0
C      1  0.4099680000000  0.5422020000000  0.4611960000000 1.0
END
