TITL C-3036486-2224-998 0.00316752274463901 3375 -343.719096750078 0 0 60 (C1) n - 1
REM
REM in /home/bkarasulu/work/CARBON/AIRSS/Generating-Clusters/REBO/Higher-Symm/Only-C60
REM
REM
REM
REM
REM
REM ./C.cell (a2850807a9bf4ad07a5b6933b78d9264)
REM AIRSS Version 0.9.1 bugfix July 2018 build 013d7b7c2542+ Fri, 06 Jul 2018 19:26:36 +0100
REM compiler GCC version 9.2.1 20190827 (Red Hat 9.2.1-1)
REM options -cpp -mtune=generic -march=x86-64 -g -O0 -fpre-include=/usr/include/finclude/math-vector-fortran.h
REM seed 847838898 -169927339 -270423403 -1595858326 -350646859 -1202659697 -1670923879 1695850668 -432545784 1576953651 -2002953082 -2020628237 503047708 2017167271 -1815623002 -849108897 -977348093 -1097558262 546012771 -1648633551 1466430381 195158470 -235698956 -125940608 -1291067051 1603654133 -1075237348 -901824935 1135734454 -2087693730 1152530536 -707369465 -776646206
REM
CELL 1.54180   15.00000   15.00000   15.00000   90.00000   90.00000   90.00000
LATT -1
SFAC C  
C      1  0.7468240000000  0.4425200000000  0.3825130000000 1.0
C      1  0.7512220000000  0.5507110000000  0.3851880000000 1.0
C      1  0.6909230000000  0.5762710000000  0.2978980000000 1.0
C      1  0.6761750000000  0.4711800000000  0.3107420000000 1.0
C      1  0.5784170000000  0.4554380000000  0.3553990000000 1.0
C      1  0.5885930000000  0.5662090000000  0.3415010000000 1.0
C      1  0.2203000000000  0.5331970000000  0.3998770000000 1.0
C      1  0.2131020000000  0.4336010000000  0.4021140000000 1.0
C      1  0.7341730000000  0.3389640000000  0.5160370000000 1.0
C      1  0.7169850000000  0.6034010000000  0.5547620000000 1.0
C      1  0.5755570000000  0.7013760000000  0.5583040000000 1.0
C      1  0.5747880000000  0.3011170000000  0.5622970000000 1.0
C      1  0.1536360000000  0.3664180000000  0.3933940000000 1.0
C      1  0.1539700000000  0.5948270000000  0.3866560000000 1.0
C      1  0.5498350000000  0.4573030000000  0.7672530000000 1.0
C      1  0.5536420000000  0.5538150000000  0.7615760000000 1.0
C      1  0.6053060000000  0.4374990000000  0.4574580000000 1.0
C      1  0.6067050000000  0.5483350000000  0.4464490000000 1.0
C      1  0.6384290000000  0.3496980000000  0.6085830000000 1.0
C      1  0.6433100000000  0.6563830000000  0.6028110000000 1.0
C      1  0.5257120000000  0.2811550000000  0.4723600000000 1.0
C      1  0.5274990000000  0.7247400000000  0.4694110000000 1.0
C      1  0.4185270000000  0.7237650000000  0.4916260000000 1.0
C      1  0.4163280000000  0.2799530000000  0.4941750000000 1.0
C      1  0.4659180000000  0.5920460000000  0.7565260000000 1.0
C      1  0.4600060000000  0.4238050000000  0.7682990000000 1.0
C      1  0.4678090000000  0.3386770000000  0.5763280000000 1.0
C      1  0.4707620000000  0.6588380000000  0.5690160000000 1.0
C      1  0.5013500000000  0.5443970000000  0.2432350000000 1.0
C      1  0.5018210000000  0.4615400000000  0.2465160000000 1.0
C      1  0.6018100000000  0.4116440000000  0.6960670000000 1.0
C      1  0.6147200000000  0.5911700000000  0.6893030000000 1.0
C      1  0.6969140000000  0.5382810000000  0.6315650000000 1.0
C      1  0.6901090000000  0.4451040000000  0.6349990000000 1.0
C      1  0.5438930000000  0.3116240000000  0.3874030000000 1.0
C      1  0.5463780000000  0.6957260000000  0.3841100000000 1.0
C      1  0.5348540000000  0.5844240000000  0.5107070000000 1.0
C      1  0.5266640000000  0.4166440000000  0.5186230000000 1.0
C      1  0.5673820000000  0.5468230000000  0.6015880000000 1.0
C      1  0.5609930000000  0.4580970000000  0.6055300000000 1.0
C      1  0.4073400000000  0.3965590000000  0.3780940000000 1.0
C      1  0.4102690000000  0.6097050000000  0.3745420000000 1.0
C      1  0.3647260000000  0.6229430000000  0.4989300000000 1.0
C      1  0.3659780000000  0.3823380000000  0.5039280000000 1.0
C      1  0.3800960000000  0.7026190000000  0.3937780000000 1.0
C      1  0.3784340000000  0.3038560000000  0.3972770000000 1.0
C      1  0.7032850000000  0.5799050000000  0.4652730000000 1.0
C      1  0.7008420000000  0.4003870000000  0.4569590000000 1.0
C      1  0.3183210000000  0.4471140000000  0.4236810000000 1.0
C      1  0.3215990000000  0.5562000000000  0.4189750000000 1.0
C      1  0.4982890000000  0.3921370000000  0.3273150000000 1.0
C      1  0.4982800000000  0.6185290000000  0.3202440000000 1.0
C      1  0.4428190000000  0.4547670000000  0.4689690000000 1.0
C      1  0.4454490000000  0.5527880000000  0.4665430000000 1.0
C      1  0.3788430000000  0.3938860000000  0.6159850000000 1.0
C      1  0.3797780000000  0.6074830000000  0.6085310000000 1.0
C      1  0.2926000000000  0.4596650000000  0.6253930000000 1.0
C      1  0.2935910000000  0.5428600000000  0.6227320000000 1.0
C      1  0.4030650000000  0.4577520000000  0.6996710000000 1.0
C      1  0.4050510000000  0.5517920000000  0.6949810000000 1.0
END
