TITL C-3036479-9801-131 0.000939850386825298 3375 -350.492116335733 0 0 60 (C2) n - 1
REM
REM in /home/bkarasulu/work/CARBON/AIRSS/Generating-Clusters/REBO/Higher-Symm/Only-C60
REM
REM
REM
REM
REM
REM ./C.cell (a2850807a9bf4ad07a5b6933b78d9264)
REM AIRSS Version 0.9.1 bugfix July 2018 build 013d7b7c2542+ Fri, 06 Jul 2018 19:26:36 +0100
REM compiler GCC version 9.2.1 20190827 (Red Hat 9.2.1-1)
REM options -cpp -mtune=generic -march=x86-64 -g -O0 -fpre-include=/usr/include/finclude/math-vector-fortran.h
REM seed -1946907966 -1641190033 -1390462922 -1600600295 -20708548 259314746 -1513343211 -361613729 -936025513 -198378322 1688503142 -1588960406 -1457621828 -1438108621 -237495485 -178331115 500409979 1737976920 -1940944535 -471084819 1835889433 1644557890 1023042995 886619540 -677213764 696452093 -1472534399 416239098 -2062525656 1715789689 -1084404921 -2122787605 310163895
REM
CELL 1.54180   15.00000   15.00000   15.00000   90.00000   90.00000   90.00000
LATT -1
SFAC C  
C      1  0.2447940000000  0.4519860000000  0.4584970000000 1.0
C      1  0.7552120000000  0.5480140000000  0.4585140000000 1.0
C      1  0.2406060000000  0.5434900000000  0.4509560000000 1.0
C      1  0.7593920000000  0.4565100000000  0.4509640000000 1.0
C      1  0.6291450000000  0.4467550000000  0.5496350000000 1.0
C      1  0.3708510000000  0.5532470000000  0.5496290000000 1.0
C      1  0.6192710000000  0.5483850000000  0.5549570000000 1.0
C      1  0.3807250000000  0.4516170000000  0.5549530000000 1.0
C      1  0.6548390000000  0.6909710000000  0.4809750000000 1.0
C      1  0.3451660000000  0.3090300000000  0.4809780000000 1.0
C      1  0.6591210000000  0.3087720000000  0.4687210000000 1.0
C      1  0.3408820000000  0.6912250000000  0.4687220000000 1.0
C      1  0.5601620000000  0.2749320000000  0.6422240000000 1.0
C      1  0.4398350000000  0.7250700000000  0.6422210000000 1.0
C      1  0.5417880000000  0.7160760000000  0.6485160000000 1.0
C      1  0.4582080000000  0.2839270000000  0.6485220000000 1.0
C      1  0.5913570000000  0.4550400000000  0.7551930000000 1.0
C      1  0.4086590000000  0.5449660000000  0.7552110000000 1.0
C      1  0.5969170000000  0.5371690000000  0.7604990000000 1.0
C      1  0.4031030000000  0.4628370000000  0.7605160000000 1.0
C      1  0.3835670000000  0.6972080000000  0.3728980000000 1.0
C      1  0.6164360000000  0.3027890000000  0.3728960000000 1.0
C      1  0.3689060000000  0.2981700000000  0.3779470000000 1.0
C      1  0.6311080000000  0.7018230000000  0.3779390000000 1.0
C      1  0.5475790000000  0.6211670000000  0.5166350000000 1.0
C      1  0.4524310000000  0.3788360000000  0.5166370000000 1.0
C      1  0.5580870000000  0.3761210000000  0.5226020000000 1.0
C      1  0.4419180000000  0.6238740000000  0.5226000000000 1.0
C      1  0.4467080000000  0.4327810000000  0.6382950000000 1.0
C      1  0.5532760000000  0.5672190000000  0.6382870000000 1.0
C      1  0.4459780000000  0.5421290000000  0.6276070000000 1.0
C      1  0.5540030000000  0.4578750000000  0.6276000000000 1.0
C      1  0.5463980000000  0.3698820000000  0.6993070000000 1.0
C      1  0.4535980000000  0.6301260000000  0.6993110000000 1.0
C      1  0.5648930000000  0.6346420000000  0.7217910000000 1.0
C      1  0.4351080000000  0.3653620000000  0.7218040000000 1.0
C      1  0.5877960000000  0.4574700000000  0.3691070000000 1.0
C      1  0.4122090000000  0.5425280000000  0.3691120000000 1.0
C      1  0.5978130000000  0.5433210000000  0.3660480000000 1.0
C      1  0.4021910000000  0.4566770000000  0.3660570000000 1.0
C      1  0.3094440000000  0.3977710000000  0.4997400000000 1.0
C      1  0.6905590000000  0.6022310000000  0.4997490000000 1.0
C      1  0.3031270000000  0.6026980000000  0.4885990000000 1.0
C      1  0.6968690000000  0.3973020000000  0.4886020000000 1.0
C      1  0.5977280000000  0.2827020000000  0.5547060000000 1.0
C      1  0.4022730000000  0.7172920000000  0.5547050000000 1.0
C      1  0.5859310000000  0.7105370000000  0.5633540000000 1.0
C      1  0.4140670000000  0.2894690000000  0.5633610000000 1.0
C      1  0.4408670000000  0.3722170000000  0.4131450000000 1.0
C      1  0.5591440000000  0.6277830000000  0.4131410000000 1.0
C      1  0.4560130000000  0.6261140000000  0.4201150000000 1.0
C      1  0.5439900000000  0.3738850000000  0.4201230000000 1.0
C      1  0.5616150000000  0.5583180000000  0.2391610000000 1.0
C      1  0.4383700000000  0.4416760000000  0.2391660000000 1.0
C      1  0.5442870000000  0.4506780000000  0.2434350000000 1.0
C      1  0.4556980000000  0.5493150000000  0.2434330000000 1.0
C      1  0.4016190000000  0.6214000000000  0.2989980000000 1.0
C      1  0.5983730000000  0.3785940000000  0.2989930000000 1.0
C      1  0.3788770000000  0.3758390000000  0.2963020000000 1.0
C      1  0.6211140000000  0.6241580000000  0.2962880000000 1.0
END
