TITL C-3036481-494-542 -6.21300107124653e-06 3375 -343.262433876696 0 0 60 (D2) n - 1
REM
REM in /home/bkarasulu/work/CARBON/AIRSS/Generating-Clusters/REBO/Higher-Symm/Only-C60
REM
REM
REM
REM
REM
REM ./C.cell (a2850807a9bf4ad07a5b6933b78d9264)
REM AIRSS Version 0.9.1 bugfix July 2018 build 013d7b7c2542+ Fri, 06 Jul 2018 19:26:36 +0100
REM compiler GCC version 9.2.1 20190827 (Red Hat 9.2.1-1)
REM options -cpp -mtune=generic -march=x86-64 -g -O0 -fpre-include=/usr/include/finclude/math-vector-fortran.h
REM seed -478162457 -1550584135 74924843 -889809500 -1973556945 -482444074 -1612602416 234353553 -78387109 -2082595103 361947049 -1333555888 -1187156694 1277457541 -1172658737 1095644607 1005344821 2101068928 -2145138175 -6907160 1135023439 -1245090359 1866812668 -1006175754 1386325088 -797405277 -1467111704 -1876816369 1796012545 -982850452 594088610 1616245410 551668580
REM
CELL 1.54180   15.00000   15.00000   15.00000   90.00000   90.00000   90.00000
LATT -1
SFAC C  
C      1  0.6783640000000  0.2903120000000  0.5483730000000 1.0
C      1  0.6783630000000  0.7096880000000  0.4516260000000 1.0
C      1  0.3499540000000  0.3029130000000  0.5501500000000 1.0
C      1  0.3499530000000  0.6970870000000  0.4498500000000 1.0
C      1  0.6500470000000  0.3029140000000  0.4498500000000 1.0
C      1  0.6500460000000  0.6970870000000  0.5501500000000 1.0
C      1  0.3216370000000  0.2903120000000  0.4516270000000 1.0
C      1  0.3216360000000  0.7096880000000  0.5483740000000 1.0
C      1  0.5726350000000  0.2745460000000  0.5541600000000 1.0
C      1  0.5726340000000  0.7254540000000  0.4458400000000 1.0
C      1  0.4612080000000  0.2808220000000  0.5540690000000 1.0
C      1  0.4612070000000  0.7191780000000  0.4459310000000 1.0
C      1  0.5387930000000  0.2808220000000  0.4459310000000 1.0
C      1  0.5387920000000  0.7191780000000  0.5540690000000 1.0
C      1  0.4273660000000  0.2745460000000  0.4458400000000 1.0
C      1  0.4273660000000  0.7254540000000  0.5541600000000 1.0
C      1  0.3522720000000  0.5385330000000  0.3572960000000 1.0
C      1  0.3522730000000  0.4614660000000  0.6427050000000 1.0
C      1  0.6758700000000  0.5687000000000  0.3525090000000 1.0
C      1  0.6758710000000  0.4313000000000  0.6474900000000 1.0
C      1  0.3241290000000  0.5687000000000  0.6474910000000 1.0
C      1  0.3241290000000  0.4313000000000  0.3525090000000 1.0
C      1  0.6477280000000  0.5385340000000  0.6427040000000 1.0
C      1  0.6477270000000  0.4614670000000  0.3572950000000 1.0
C      1  0.5703050000000  0.5590730000000  0.3104510000000 1.0
C      1  0.5703060000000  0.4409270000000  0.6895490000000 1.0
C      1  0.4568780000000  0.5505190000000  0.3125580000000 1.0
C      1  0.4568790000000  0.4494810000000  0.6874420000000 1.0
C      1  0.5431220000000  0.5505190000000  0.6874420000000 1.0
C      1  0.5431220000000  0.4494810000000  0.3125580000000 1.0
C      1  0.4296950000000  0.5590730000000  0.6895490000000 1.0
C      1  0.4296950000000  0.4409270000000  0.3104510000000 1.0
C      1  0.4492940000000  0.6366420000000  0.6082850000000 1.0
C      1  0.4492950000000  0.3633580000000  0.3917150000000 1.0
C      1  0.5538040000000  0.6243050000000  0.6055550000000 1.0
C      1  0.5538040000000  0.3756950000000  0.3944450000000 1.0
C      1  0.4461960000000  0.6243050000000  0.3944450000000 1.0
C      1  0.4461960000000  0.3756950000000  0.6055550000000 1.0
C      1  0.5507050000000  0.6366420000000  0.3917150000000 1.0
C      1  0.5507050000000  0.3633590000000  0.6082850000000 1.0
C      1  0.3964530000000  0.4431810000000  0.4389600000000 1.0
C      1  0.3964530000000  0.5568190000000  0.5610410000000 1.0
C      1  0.5930710000000  0.4487020000000  0.4583390000000 1.0
C      1  0.5930710000000  0.5512990000000  0.5416610000000 1.0
C      1  0.4069290000000  0.4487010000000  0.5416620000000 1.0
C      1  0.4069290000000  0.5512980000000  0.4583390000000 1.0
C      1  0.6035470000000  0.4431820000000  0.5610400000000 1.0
C      1  0.6035470000000  0.5568190000000  0.4389590000000 1.0
C      1  0.3013160000000  0.6187780000000  0.4150960000000 1.0
C      1  0.3013170000000  0.3812220000000  0.5849040000000 1.0
C      1  0.7247640000000  0.6293070000000  0.4246610000000 1.0
C      1  0.7247650000000  0.3706940000000  0.5753380000000 1.0
C      1  0.2752360000000  0.6293060000000  0.5753390000000 1.0
C      1  0.2752360000000  0.3706930000000  0.4246620000000 1.0
C      1  0.6986830000000  0.6187780000000  0.5849040000000 1.0
C      1  0.6986840000000  0.3812220000000  0.4150960000000 1.0
C      1  0.7526510000000  0.5872420000000  0.5086500000000 1.0
C      1  0.7526520000000  0.4127590000000  0.4913500000000 1.0
C      1  0.2473490000000  0.5872410000000  0.4913510000000 1.0
C      1  0.2473490000000  0.4127580000000  0.5086500000000 1.0
END
