TITL C-3036482-790-1198 0.0102362926211087 3375 -324.871899797347 0 0 60 (D2d) n - 1
REM
REM in /home/bkarasulu/work/CARBON/AIRSS/Generating-Clusters/REBO/Higher-Symm/Only-C60
REM
REM
REM
REM
REM
REM ./C.cell (a2850807a9bf4ad07a5b6933b78d9264)
REM AIRSS Version 0.9.1 bugfix July 2018 build 013d7b7c2542+ Fri, 06 Jul 2018 19:26:36 +0100
REM compiler GCC version 9.2.1 20190827 (Red Hat 9.2.1-1)
REM options -cpp -mtune=generic -march=x86-64 -g -O0 -fpre-include=/usr/include/finclude/math-vector-fortran.h
REM seed 435664505 1692380126 124645790 -2134104733 -1060470791 1015973261 2126164702 -222699600 -1319443169 -2146066479 485788007 -840963654 -299393235 -1415125148 525864243 -79847669 -1350836859 -297983022 1856047231 196677676 -911067818 1880817076 -955809448 1587805173 279552150 700054563 1397079025 1521646128 1322923165 -1006007577 1575729227 -509055179 -35665768
REM
CELL 1.54180   15.00000   15.00000   15.00000   90.00000   90.00000   90.00000
LATT -1
SFAC C  
C      1  0.5790810000000  0.6480560000000  0.6068430000000 1.0
C      1  0.4209170000000  0.3519240000000  0.6068550000000 1.0
C      1  0.4209220000000  0.6480720000000  0.3931480000000 1.0
C      1  0.5790780000000  0.3519330000000  0.3931490000000 1.0
C      1  0.6482980000000  0.5791840000000  0.6070150000000 1.0
C      1  0.3517200000000  0.4208200000000  0.6070030000000 1.0
C      1  0.6482910000000  0.4208230000000  0.3929900000000 1.0
C      1  0.3517130000000  0.5791750000000  0.3929930000000 1.0
C      1  0.3147960000000  0.4837580000000  0.3559570000000 1.0
C      1  0.6852010000000  0.5162450000000  0.3559590000000 1.0
C      1  0.6852020000000  0.4837550000000  0.6440410000000 1.0
C      1  0.3147950000000  0.5162390000000  0.6440380000000 1.0
C      1  0.4837770000000  0.3147920000000  0.3559330000000 1.0
C      1  0.5162220000000  0.6852110000000  0.3559310000000 1.0
C      1  0.4837800000000  0.6852090000000  0.6440700000000 1.0
C      1  0.5162210000000  0.3147880000000  0.6440630000000 1.0
C      1  0.5272760000000  0.4037290000000  0.7039210000000 1.0
C      1  0.4727260000000  0.5962670000000  0.7039220000000 1.0
C      1  0.4727240000000  0.4037320000000  0.2960790000000 1.0
C      1  0.5272760000000  0.5962690000000  0.2960790000000 1.0
C      1  0.4037330000000  0.5272880000000  0.7039180000000 1.0
C      1  0.5962720000000  0.4727090000000  0.7039170000000 1.0
C      1  0.4037310000000  0.4727100000000  0.2960830000000 1.0
C      1  0.5962690000000  0.5272910000000  0.2960830000000 1.0
C      1  0.7102580000000  0.6404350000000  0.5073880000000 1.0
C      1  0.2897490000000  0.3595660000000  0.5073900000000 1.0
C      1  0.2897470000000  0.6404360000000  0.4926130000000 1.0
C      1  0.7102530000000  0.3595660000000  0.4926160000000 1.0
C      1  0.6404630000000  0.7102750000000  0.5074430000000 1.0
C      1  0.3595360000000  0.2897180000000  0.5074430000000 1.0
C      1  0.6404640000000  0.2897220000000  0.4925620000000 1.0
C      1  0.3595350000000  0.7102790000000  0.4925570000000 1.0
C      1  0.5771750000000  0.3346130000000  0.5621160000000 1.0
C      1  0.4228130000000  0.6653950000000  0.5621190000000 1.0
C      1  0.4228190000000  0.3346150000000  0.4378840000000 1.0
C      1  0.5771760000000  0.6653890000000  0.4378820000000 1.0
C      1  0.3347480000000  0.5771000000000  0.5620590000000 1.0
C      1  0.6652430000000  0.4229090000000  0.5620520000000 1.0
C      1  0.3347560000000  0.4229010000000  0.4379430000000 1.0
C      1  0.6652480000000  0.5770890000000  0.4379450000000 1.0
C      1  0.5353190000000  0.7327070000000  0.5441920000000 1.0
C      1  0.4646820000000  0.2672920000000  0.5442000000000 1.0
C      1  0.4646820000000  0.7327120000000  0.4558050000000 1.0
C      1  0.5353190000000  0.2672860000000  0.4558020000000 1.0
C      1  0.7327380000000  0.5353140000000  0.5441830000000 1.0
C      1  0.2672750000000  0.4646920000000  0.5441850000000 1.0
C      1  0.7327390000000  0.4646890000000  0.4558150000000 1.0
C      1  0.2672660000000  0.5353110000000  0.4558170000000 1.0
C      1  0.5787950000000  0.4980530000000  0.5660720000000 1.0
C      1  0.4212000000000  0.5019630000000  0.5660640000000 1.0
C      1  0.4212040000000  0.4980420000000  0.4339300000000 1.0
C      1  0.5787980000000  0.5019550000000  0.4339350000000 1.0
C      1  0.4977450000000  0.5787990000000  0.5660440000000 1.0
C      1  0.5022400000000  0.4212060000000  0.5660540000000 1.0
C      1  0.4977530000000  0.4212010000000  0.4339560000000 1.0
C      1  0.5022420000000  0.5787940000000  0.4339470000000 1.0
C      1  0.5580610000000  0.5580510000000  0.7282240000000 1.0
C      1  0.4419400000000  0.4419470000000  0.7282240000000 1.0
C      1  0.4419390000000  0.5580530000000  0.2717760000000 1.0
C      1  0.5580610000000  0.4419480000000  0.2717760000000 1.0
END
