TITL C-3036479-9801-269 0.00321920198598162 3375 -339.990199678088 0 0 60 (C1) n - 1
REM
REM in /home/bkarasulu/work/CARBON/AIRSS/Generating-Clusters/REBO/Higher-Symm/Only-C60
REM
REM
REM
REM
REM
REM ./C.cell (a2850807a9bf4ad07a5b6933b78d9264)
REM AIRSS Version 0.9.1 bugfix July 2018 build 013d7b7c2542+ Fri, 06 Jul 2018 19:26:36 +0100
REM compiler GCC version 9.2.1 20190827 (Red Hat 9.2.1-1)
REM options -cpp -mtune=generic -march=x86-64 -g -O0 -fpre-include=/usr/include/finclude/math-vector-fortran.h
REM seed -344457675 414241536 -550809541 -2110571930 258901230 430144155 1221774313 1019400507 -1610544454 -1001155884 1332957518 -1699704932 1085933510 2052302565 -759213333 -28964491 -211513766 1161241372 2019510982 -2111552191 -2008596258 1638940522 1668165640 -983422903 2041820231 -206482655 -1316628248 -1642140303 637946662 -462998800 -126598822 -2065572620 -2103135854
REM
CELL 1.54180   15.00000   15.00000   15.00000   90.00000   90.00000   90.00000
LATT -1
SFAC C  
C      1  0.4242570000000  0.4319310000000  0.2650880000000 1.0
C      1  0.4113120000000  0.7172940000000  0.5645430000000 1.0
C      1  0.4082240000000  0.3454570000000  0.6640580000000 1.0
C      1  0.4588550000000  0.4514930000000  0.5868500000000 1.0
C      1  0.4528390000000  0.4505290000000  0.4095640000000 1.0
C      1  0.4499940000000  0.5981210000000  0.4996180000000 1.0
C      1  0.4970440000000  0.6405110000000  0.3430360000000 1.0
C      1  0.5151710000000  0.5604760000000  0.7016380000000 1.0
C      1  0.5020850000000  0.2935480000000  0.4548530000000 1.0
C      1  0.4757420000000  0.6079110000000  0.6050110000000 1.0
C      1  0.4692680000000  0.3500190000000  0.5457920000000 1.0
C      1  0.4701010000000  0.5318770000000  0.3401430000000 1.0
C      1  0.6813650000000  0.6293790000000  0.5257380000000 1.0
C      1  0.6805430000000  0.3799590000000  0.5866120000000 1.0
C      1  0.6885930000000  0.4526710000000  0.3682280000000 1.0
C      1  0.3586320000000  0.3975640000000  0.4177960000000 1.0
C      1  0.3505000000000  0.6078130000000  0.4560840000000 1.0
C      1  0.3616490000000  0.4917400000000  0.6297530000000 1.0
C      1  0.5024090000000  0.7183450000000  0.5357140000000 1.0
C      1  0.5023200000000  0.3606280000000  0.6740790000000 1.0
C      1  0.5165780000000  0.4184510000000  0.2884530000000 1.0
C      1  0.3529230000000  0.4437210000000  0.3218910000000 1.0
C      1  0.3401100000000  0.6533580000000  0.5496810000000 1.0
C      1  0.3438480000000  0.3908930000000  0.6126000000000 1.0
C      1  0.4145920000000  0.6438620000000  0.6755750000000 1.0
C      1  0.3928940000000  0.2865970000000  0.5460800000000 1.0
C      1  0.3937130000000  0.5634930000000  0.2846480000000 1.0
C      1  0.5419640000000  0.4651530000000  0.6576200000000 1.0
C      1  0.5218110000000  0.3739620000000  0.3851290000000 1.0
C      1  0.5165720000000  0.6612930000000  0.4462520000000 1.0
C      1  0.6083810000000  0.3286040000000  0.4347700000000 1.0
C      1  0.6042500000000  0.6382000000000  0.3821400000000 1.0
C      1  0.6260500000000  0.5616590000000  0.6878760000000 1.0
C      1  0.5919860000000  0.6746600000000  0.5549390000000 1.0
C      1  0.5833130000000  0.3463770000000  0.6145120000000 1.0
C      1  0.5984460000000  0.4670820000000  0.3289670000000 1.0
C      1  0.7089400000000  0.5473230000000  0.5716090000000 1.0
C      1  0.7341150000000  0.3945840000000  0.5093780000000 1.0
C      1  0.7296970000000  0.5281880000000  0.4153510000000 1.0
C      1  0.3470320000000  0.5627390000000  0.7172360000000 1.0
C      1  0.3336310000000  0.2934870000000  0.4525970000000 1.0
C      1  0.3270880000000  0.6245670000000  0.3494730000000 1.0
C      1  0.6959690000000  0.3735370000000  0.4242200000000 1.0
C      1  0.6900030000000  0.6138860000000  0.4307990000000 1.0
C      1  0.6520240000000  0.4699230000000  0.6304630000000 1.0
C      1  0.5641300000000  0.5382030000000  0.4005430000000 1.0
C      1  0.5784220000000  0.5708010000000  0.5854000000000 1.0
C      1  0.5690810000000  0.3917310000000  0.5148580000000 1.0
C      1  0.3104450000000  0.5902150000000  0.6134340000000 1.0
C      1  0.3067540000000  0.3837690000000  0.5167680000000 1.0
C      1  0.3119280000000  0.5201230000000  0.3951000000000 1.0
C      1  0.4149150000000  0.6890320000000  0.3193520000000 1.0
C      1  0.4402540000000  0.5565640000000  0.7720110000000 1.0
C      1  0.4266340000000  0.2404610000000  0.4263040000000 1.0
C      1  0.8655890000000  0.5003510000000  0.5182420000000 1.0
C      1  0.7740180000000  0.4910650000000  0.5067120000000 1.0
C      1  0.1725680000000  0.4869820000000  0.4856480000000 1.0
C      1  0.5823860000000  0.4997300000000  0.5051060000000 1.0
C      1  0.2560300000000  0.4665790000000  0.4661160000000 1.0
C      1  0.4763150000000  0.4990260000000  0.4955320000000 1.0
END
