TITL C-3036483-1610-1011 -4.22726170457797e-06 3375 -345.753694385286 0 0 60 (D2) n - 1
REM
REM in /home/bkarasulu/work/CARBON/AIRSS/Generating-Clusters/REBO/Higher-Symm/Only-C60
REM
REM
REM
REM
REM
REM ./C.cell (a2850807a9bf4ad07a5b6933b78d9264)
REM AIRSS Version 0.9.1 bugfix July 2018 build 013d7b7c2542+ Fri, 06 Jul 2018 19:26:36 +0100
REM compiler GCC version 9.2.1 20190827 (Red Hat 9.2.1-1)
REM options -cpp -mtune=generic -march=x86-64 -g -O0 -fpre-include=/usr/include/finclude/math-vector-fortran.h
REM seed 1657379515 -548689236 -1425347767 -981030475 -798421950 -2093230042 411841782 -1397982433 -1294202496 197082593 -356573401 922942004 -546253121 6425839 -205898687 -1424188087 -281719259 -938982907 -1065067546 -644205240 -536701910 -1200189078 -1467391716 423344931 429468781 -1323701712 -1428629560 -633054404 450128479 836604827 2107109029 -807073029 1943396469
REM
CELL 1.54180   15.00000   15.00000   15.00000   90.00000   90.00000   90.00000
LATT -1
SFAC C  
C      1  0.4562850000000  0.4498300000000  0.3984870000000 1.0
C      1  0.5437150000000  0.5501720000000  0.3984860000000 1.0
C      1  0.4562850000000  0.5501700000000  0.6015130000000 1.0
C      1  0.5437150000000  0.4498280000000  0.6015140000000 1.0
C      1  0.5928560000000  0.4799130000000  0.7216350000000 1.0
C      1  0.4071450000000  0.5200870000000  0.7216350000000 1.0
C      1  0.5928560000000  0.5200870000000  0.2783650000000 1.0
C      1  0.4071450000000  0.4799130000000  0.2783650000000 1.0
C      1  0.5643420000000  0.4425060000000  0.4143710000000 1.0
C      1  0.4356580000000  0.5574960000000  0.4143700000000 1.0
C      1  0.5643420000000  0.5574940000000  0.5856290000000 1.0
C      1  0.4356580000000  0.4425040000000  0.5856300000000 1.0
C      1  0.5914800000000  0.3785330000000  0.6756550000000 1.0
C      1  0.4085200000000  0.6214660000000  0.6756540000000 1.0
C      1  0.5914800000000  0.6214670000000  0.3243450000000 1.0
C      1  0.4085200000000  0.3785340000000  0.3243460000000 1.0
C      1  0.4603710000000  0.6363870000000  0.3415540000000 1.0
C      1  0.5396290000000  0.3636140000000  0.3415550000000 1.0
C      1  0.4603710000000  0.3636130000000  0.6584460000000 1.0
C      1  0.5396290000000  0.6363860000000  0.6584450000000 1.0
C      1  0.5334060000000  0.2798540000000  0.5346390000000 1.0
C      1  0.4665940000000  0.7201460000000  0.5346380000000 1.0
C      1  0.5334060000000  0.7201460000000  0.4653610000000 1.0
C      1  0.4665940000000  0.2798540000000  0.4653620000000 1.0
C      1  0.6667440000000  0.5180630000000  0.3585180000000 1.0
C      1  0.3332550000000  0.4819370000000  0.3585180000000 1.0
C      1  0.6667440000000  0.4819370000000  0.6414820000000 1.0
C      1  0.3332550000000  0.5180630000000  0.6414820000000 1.0
C      1  0.3078240000000  0.4128290000000  0.6072320000000 1.0
C      1  0.6921750000000  0.5871710000000  0.6072320000000 1.0
C      1  0.3078240000000  0.5871710000000  0.3927680000000 1.0
C      1  0.6921750000000  0.4128290000000  0.3927680000000 1.0
C      1  0.5001080000000  0.7092290000000  0.3767580000000 1.0
C      1  0.4998930000000  0.2907730000000  0.3767590000000 1.0
C      1  0.5001080000000  0.2907710000000  0.6232420000000 1.0
C      1  0.4998930000000  0.7092270000000  0.6232410000000 1.0
C      1  0.2805500000000  0.5079090000000  0.4561450000000 1.0
C      1  0.7194500000000  0.4920900000000  0.4561450000000 1.0
C      1  0.2805500000000  0.4920910000000  0.5438550000000 1.0
C      1  0.7194500000000  0.5079100000000  0.5438550000000 1.0
C      1  0.3423200000000  0.3336180000000  0.5718670000000 1.0
C      1  0.6576790000000  0.6663820000000  0.5718670000000 1.0
C      1  0.3423200000000  0.6663820000000  0.4281330000000 1.0
C      1  0.6576790000000  0.3336180000000  0.4281330000000 1.0
C      1  0.3794410000000  0.6857430000000  0.5132950000000 1.0
C      1  0.6205590000000  0.3142570000000  0.5132950000000 1.0
C      1  0.3794410000000  0.3142570000000  0.4867050000000 1.0
C      1  0.6205590000000  0.6857430000000  0.4867050000000 1.0
C      1  0.5153020000000  0.4435530000000  0.2791540000000 1.0
C      1  0.4846980000000  0.5564470000000  0.2791530000000 1.0
C      1  0.5153020000000  0.5564470000000  0.7208460000000 1.0
C      1  0.4846980000000  0.4435530000000  0.7208470000000 1.0
C      1  0.3430670000000  0.6178760000000  0.5865700000000 1.0
C      1  0.6569330000000  0.3821230000000  0.5865700000000 1.0
C      1  0.3430670000000  0.3821240000000  0.4134300000000 1.0
C      1  0.6569330000000  0.6178770000000  0.4134300000000 1.0
C      1  0.6062180000000  0.5535260000000  0.4904700000000 1.0
C      1  0.3937820000000  0.4464740000000  0.4904710000000 1.0
C      1  0.6062180000000  0.4464740000000  0.5095300000000 1.0
C      1  0.3937820000000  0.5535260000000  0.5095290000000 1.0
END
