TITL C-3036486-2224-624 -0.589488651934798 3375 -338.0008423222 0 0 60 (Ci) n - 1
REM
REM in /home/bkarasulu/work/CARBON/AIRSS/Generating-Clusters/REBO/Higher-Symm/Only-C60
REM
REM
REM
REM
REM
REM ./C.cell (a2850807a9bf4ad07a5b6933b78d9264)
REM AIRSS Version 0.9.1 bugfix July 2018 build 013d7b7c2542+ Fri, 06 Jul 2018 19:26:36 +0100
REM compiler GCC version 9.2.1 20190827 (Red Hat 9.2.1-1)
REM options -cpp -mtune=generic -march=x86-64 -g -O0 -fpre-include=/usr/include/finclude/math-vector-fortran.h
REM seed 1086871425 2042571733 711932519 -2129884022 1932183474 -252307115 -1729757684 2129497504 873387567 -48561217 -1123221856 -1162724678 -1443521794 455451035 -2021599540 1297132063 -2042165180 383746082 1521414750 247859333 -767304393 -1571978914 673179218 590314170 2089137279 247919110 593982640 83190251 1083814400 -1386155999 251472918 -1641078268 1342932236
REM
CELL 1.54180   15.00000   15.00000   15.00000   90.00000   90.00000   90.00000
LATT -1
SFAC C  
C      1  0.4465930000000  0.7491910000000  0.4679670000000 1.0
C      1  0.4468870000000  0.2481400000000  0.5335120000000 1.0
C      1  0.5015280000000  0.7517710000000  0.5598180000000 1.0
C      1  0.5531440000000  0.2505160000000  0.5319570000000 1.0
C      1  0.5530840000000  0.7518420000000  0.4664920000000 1.0
C      1  0.4984890000000  0.2482480000000  0.4401740000000 1.0
C      1  0.5390200000000  0.5828600000000  0.2722860000000 1.0
C      1  0.3213490000000  0.4190840000000  0.3488460000000 1.0
C      1  0.2738480000000  0.5792190000000  0.5822430000000 1.0
C      1  0.4610150000000  0.4171030000000  0.7274200000000 1.0
C      1  0.6786680000000  0.5809650000000  0.6511820000000 1.0
C      1  0.7263690000000  0.4208440000000  0.4175700000000 1.0
C      1  0.7218620000000  0.5231340000000  0.5808300000000 1.0
C      1  0.6802850000000  0.4783020000000  0.3473450000000 1.0
C      1  0.4581440000000  0.5212640000000  0.2707790000000 1.0
C      1  0.2781710000000  0.4769770000000  0.4192280000000 1.0
C      1  0.3197140000000  0.5217330000000  0.6526120000000 1.0
C      1  0.5418720000000  0.4786690000000  0.7292180000000 1.0
C      1  0.4105400000000  0.3935130000000  0.3707640000000 1.0
C      1  0.3331010000000  0.6084540000000  0.5129270000000 1.0
C      1  0.4313910000000  0.3941020000000  0.6415710000000 1.0
C      1  0.5894900000000  0.6065050000000  0.6292860000000 1.0
C      1  0.6668460000000  0.3914660000000  0.4877070000000 1.0
C      1  0.5686610000000  0.6060720000000  0.3585530000000 1.0
C      1  0.4282020000000  0.4095610000000  0.4765780000000 1.0
C      1  0.4390120000000  0.5993340000000  0.5398210000000 1.0
C      1  0.5088500000000  0.4114270000000  0.5588120000000 1.0
C      1  0.5715310000000  0.5904810000000  0.5232150000000 1.0
C      1  0.5603270000000  0.4018170000000  0.4586390000000 1.0
C      1  0.4918850000000  0.5880580000000  0.4415080000000 1.0
C      1  0.5818680000000  0.4397300000000  0.6319770000000 1.0
C      1  0.6668740000000  0.5547570000000  0.4906320000000 1.0
C      1  0.5760910000000  0.4425500000000  0.3597270000000 1.0
C      1  0.4181510000000  0.5605710000000  0.3677260000000 1.0
C      1  0.3331190000000  0.4452460000000  0.5093370000000 1.0
C      1  0.4238500000000  0.5573580000000  0.6402450000000 1.0
C      1  0.3984460000000  0.3322200000000  0.5535520000000 1.0
C      1  0.4953670000000  0.6653100000000  0.6087930000000 1.0
C      1  0.6057780000000  0.3294620000000  0.5583020000000 1.0
C      1  0.6014880000000  0.6676070000000  0.4463900000000 1.0
C      1  0.5046310000000  0.3347140000000  0.3912210000000 1.0
C      1  0.3946290000000  0.6702720000000  0.4433690000000 1.0
C      1  0.3156490000000  0.5714190000000  0.4137240000000 1.0
C      1  0.3321230000000  0.4276670000000  0.6173400000000 1.0
C      1  0.5170230000000  0.5708040000000  0.6998170000000 1.0
C      1  0.6837790000000  0.4275120000000  0.5866880000000 1.0
C      1  0.6679450000000  0.5722960000000  0.3826800000000 1.0
C      1  0.4829730000000  0.4291880000000  0.3001790000000 1.0
C      1  0.7599260000000  0.6181820000000  0.5160010000000 1.0
C      1  0.6422740000000  0.3822510000000  0.2858780000000 1.0
C      1  0.3875290000000  0.6193060000000  0.2723480000000 1.0
C      1  0.2401060000000  0.3819190000000  0.4839410000000 1.0
C      1  0.3577160000000  0.6177500000000  0.7141050000000 1.0
C      1  0.6124570000000  0.3806670000000  0.7278910000000 1.0
C      1  0.3391610000000  0.6643040000000  0.3508600000000 1.0
C      1  0.2871150000000  0.3358270000000  0.5658010000000 1.0
C      1  0.4511810000000  0.6635950000000  0.7133520000000 1.0
C      1  0.6611450000000  0.3362270000000  0.6483650000000 1.0
C      1  0.7128650000000  0.6641530000000  0.4342030000000 1.0
C      1  0.5488660000000  0.3364880000000  0.2866980000000 1.0
END
