TITL C-3036480-97-639 -0.0197764488253552 3375 -337.746126459063 0 0 60 (C1) n - 1
REM
REM in /home/bkarasulu/work/CARBON/AIRSS/Generating-Clusters/REBO/Higher-Symm/Only-C60
REM
REM
REM
REM
REM
REM ./C.cell (a2850807a9bf4ad07a5b6933b78d9264)
REM AIRSS Version 0.9.1 bugfix July 2018 build 013d7b7c2542+ Fri, 06 Jul 2018 19:26:36 +0100
REM compiler GCC version 9.2.1 20190827 (Red Hat 9.2.1-1)
REM options -cpp -mtune=generic -march=x86-64 -g -O0 -fpre-include=/usr/include/finclude/math-vector-fortran.h
REM seed 455330698 885509834 -1145277799 -548052211 7219551 -1969255789 -1584745253 -1556943526 1518813714 76781508 1847205631 1254741793 -1021049902 235355421 943993168 148311928 -1263909465 -525881047 601526908 145294685 76705981 910840833 -303928457 1502615297 1624780324 -2077004997 -599421132 409305836 -1841825592 824663164 -1952019235 -1850754265 2116745573
REM
CELL 1.54180   15.00000   15.00000   15.00000   90.00000   90.00000   90.00000
LATT -1
SFAC C  
C      1  0.3480650000000  0.2551500000000  0.5109240000000 1.0
C      1  0.3452360000000  0.6250570000000  0.7029740000000 1.0
C      1  0.3495810000000  0.6117480000000  0.2828490000000 1.0
C      1  0.4081720000000  0.4475380000000  0.3019300000000 1.0
C      1  0.4090110000000  0.3517500000000  0.6445240000000 1.0
C      1  0.4104450000000  0.7041010000000  0.5582020000000 1.0
C      1  0.5706330000000  0.7287410000000  0.4007940000000 1.0
C      1  0.5712080000000  0.2991090000000  0.3528730000000 1.0
C      1  0.5718690000000  0.4718520000000  0.7494400000000 1.0
C      1  0.4349810000000  0.3590750000000  0.2918140000000 1.0
C      1  0.4355980000000  0.3872620000000  0.7264690000000 1.0
C      1  0.4343980000000  0.7553300000000  0.4838950000000 1.0
C      1  0.5903010000000  0.4185390000000  0.4087210000000 1.0
C      1  0.5928930000000  0.4615570000000  0.6185050000000 1.0
C      1  0.5942480000000  0.6206070000000  0.4747030000000 1.0
C      1  0.5257850000000  0.5636640000000  0.5093480000000 1.0
C      1  0.5220700000000  0.4756280000000  0.4439790000000 1.0
C      1  0.5239360000000  0.4632620000000  0.5528540000000 1.0
C      1  0.7028700000000  0.4666440000000  0.5955730000000 1.0
C      1  0.7035670000000  0.5993470000000  0.4815700000000 1.0
C      1  0.7009440000000  0.4346920000000  0.4246130000000 1.0
C      1  0.4289830000000  0.6688700000000  0.3417380000000 1.0
C      1  0.4303250000000  0.2769010000000  0.4352850000000 1.0
C      1  0.4312040000000  0.5523460000000  0.7194920000000 1.0
C      1  0.5904290000000  0.6293620000000  0.3664280000000 1.0
C      1  0.5917100000000  0.3196120000000  0.4557640000000 1.0
C      1  0.5943310000000  0.5517130000000  0.6811180000000 1.0
C      1  0.7199340000000  0.5683500000000  0.5771300000000 1.0
C      1  0.7176440000000  0.5319550000000  0.4021220000000 1.0
C      1  0.7182600000000  0.3992840000000  0.5213590000000 1.0
C      1  0.3470240000000  0.5219140000000  0.6527800000000 1.0
C      1  0.3372470000000  0.6345040000000  0.3938360000000 1.0
C      1  0.3373680000000  0.3401420000000  0.4353330000000 1.0
C      1  0.4954010000000  0.5849610000000  0.3275530000000 1.0
C      1  0.4982130000000  0.3055120000000  0.5139930000000 1.0
C      1  0.5011190000000  0.6098410000000  0.6631970000000 1.0
C      1  0.3354630000000  0.5017730000000  0.2718870000000 1.0
C      1  0.3353580000000  0.3006680000000  0.6117320000000 1.0
C      1  0.3345920000000  0.6966790000000  0.6166520000000 1.0
C      1  0.5862170000000  0.2767710000000  0.5800270000000 1.0
C      1  0.5897120000000  0.6807490000000  0.6559230000000 1.0
C      1  0.5826470000000  0.5402200000000  0.2700190000000 1.0
C      1  0.6648400000000  0.3561000000000  0.3505170000000 1.0
C      1  0.6673770000000  0.4422140000000  0.7011610000000 1.0
C      1  0.6669020000000  0.7019800000000  0.4483660000000 1.0
C      1  0.4496130000000  0.5039760000000  0.3797840000000 1.0
C      1  0.4544370000000  0.3906540000000  0.5586770000000 1.0
C      1  0.4577070000000  0.6112690000000  0.5673790000000 1.0
C      1  0.4772920000000  0.2934650000000  0.3445750000000 1.0
C      1  0.4772690000000  0.4670270000000  0.7546660000000 1.0
C      1  0.4763840000000  0.7392320000000  0.4009230000000 1.0
C      1  0.3628040000000  0.5356010000000  0.4429380000000 1.0
C      1  0.3691140000000  0.4240990000000  0.5041160000000 1.0
C      1  0.3707670000000  0.5448470000000  0.5441000000000 1.0
C      1  0.6701090000000  0.6188650000000  0.6434750000000 1.0
C      1  0.6650920000000  0.5628420000000  0.3262180000000 1.0
C      1  0.6672750000000  0.3174340000000  0.5324440000000 1.0
C      1  0.2866120000000  0.6004980000000  0.5974500000000 1.0
C      1  0.2850330000000  0.5397930000000  0.3597070000000 1.0
C      1  0.2823850000000  0.3573250000000  0.5335820000000 1.0
END
