TITL C-3036485-3770-1142 -8.98296620073694e-06 3375 -359.462701114471 0 0 60 (C3) n - 1
REM
REM in /home/bkarasulu/work/CARBON/AIRSS/Generating-Clusters/REBO/Higher-Symm/Only-C60
REM
REM
REM
REM
REM
REM ./C.cell (a2850807a9bf4ad07a5b6933b78d9264)
REM AIRSS Version 0.9.1 bugfix July 2018 build 013d7b7c2542+ Fri, 06 Jul 2018 19:26:36 +0100
REM compiler GCC version 9.2.1 20190827 (Red Hat 9.2.1-1)
REM options -cpp -mtune=generic -march=x86-64 -g -O0 -fpre-include=/usr/include/finclude/math-vector-fortran.h
REM seed 799146102 840563444 29359142 2041246736 1906262912 1437659218 -1127329869 175852134 588663349 222080821 1666085289 -2000954387 -1960660233 2013907378 -2091383414 2118947098 33830525 -855160847 -1366289680 414808704 -1129125154 -2051067134 1236426800 1169784155 1632608363 -849148310 -681617793 1539197606 -1587423678 -1618589571 1162635384 -444807956 -381005734
REM
CELL 1.54180   15.00000   15.00000   15.00000   90.00000   90.00000   90.00000
LATT -1
SFAC C  
C      1  0.4207990000000  0.2853530000000  0.3212390000000 1.0
C      1  0.7254900000000  0.5387550000000  0.3212410000000 1.0
C      1  0.3536910000000  0.6759240000000  0.3212640000000 1.0
C      1  0.4046240000000  0.4976510000000  0.7168240000000 1.0
C      1  0.5497240000000  0.4185500000000  0.7168130000000 1.0
C      1  0.5456770000000  0.5837600000000  0.7168230000000 1.0
C      1  0.5279930000000  0.7308450000000  0.4981940000000 1.0
C      1  0.2860860000000  0.4088210000000  0.4981840000000 1.0
C      1  0.6859220000000  0.3603340000000  0.4981660000000 1.0
C      1  0.6381570000000  0.5746800000000  0.3125730000000 1.0
C      1  0.3662450000000  0.5823310000000  0.3125840000000 1.0
C      1  0.4955760000000  0.3430230000000  0.3125660000000 1.0
C      1  0.5109890000000  0.5761310000000  0.3956300000000 1.0
C      1  0.4285740000000  0.4714640000000  0.3956260000000 1.0
C      1  0.5604260000000  0.4524240000000  0.3956210000000 1.0
C      1  0.5914600000000  0.5297670000000  0.4618380000000 1.0
C      1  0.4284910000000  0.5643280000000  0.4618460000000 1.0
C      1  0.4800440000000  0.4059130000000  0.4618350000000 1.0
C      1  0.2885350000000  0.3357370000000  0.4182870000000 1.0
C      1  0.7479890000000  0.3990070000000  0.4182720000000 1.0
C      1  0.4634670000000  0.7652710000000  0.4183050000000 1.0
C      1  0.5669770000000  0.3459430000000  0.3808800000000 1.0
C      1  0.5999280000000  0.6350470000000  0.3808950000000 1.0
C      1  0.3330810000000  0.5190320000000  0.3808980000000 1.0
C      1  0.5970830000000  0.3106550000000  0.4637320000000 1.0
C      1  0.6154360000000  0.6787530000000  0.4637530000000 1.0
C      1  0.2874770000000  0.5105990000000  0.4637550000000 1.0
C      1  0.3322800000000  0.4994650000000  0.6544850000000 1.0
C      1  0.5843250000000  0.3549990000000  0.6544670000000 1.0
C      1  0.5834130000000  0.6455090000000  0.6544840000000 1.0
C      1  0.6388980000000  0.3985970000000  0.5886600000000 1.0
C      1  0.5183680000000  0.6709800000000  0.5886810000000 1.0
C      1  0.3427430000000  0.4304060000000  0.5886730000000 1.0
C      1  0.5990640000000  0.5015380000000  0.5621120000000 1.0
C      1  0.4491350000000  0.5850150000000  0.5621220000000 1.0
C      1  0.4518070000000  0.4134350000000  0.5621120000000 1.0
C      1  0.5653710000000  0.5051760000000  0.2973420000000 1.0
C      1  0.4628310000000  0.5540500000000  0.2973490000000 1.0
C      1  0.4717750000000  0.4408100000000  0.2973420000000 1.0
C      1  0.6791910000000  0.5125880000000  0.6434970000000 1.0
C      1  0.3995030000000  0.6488720000000  0.6435170000000 1.0
C      1  0.4213220000000  0.3385140000000  0.6434970000000 1.0
C      1  0.3701150000000  0.6576270000000  0.4798110000000 1.0
C      1  0.4284340000000  0.3087050000000  0.4797880000000 1.0
C      1  0.7014490000000  0.5336720000000  0.4797910000000 1.0
C      1  0.3530610000000  0.3265540000000  0.5529500000000 1.0
C      1  0.7236780000000  0.4594640000000  0.5529430000000 1.0
C      1  0.4232660000000  0.7139730000000  0.5529700000000 1.0
C      1  0.4533400000000  0.4156770000000  0.7161880000000 1.0
C      1  0.5963580000000  0.5017260000000  0.7161870000000 1.0
C      1  0.4503280000000  0.5825590000000  0.7161980000000 1.0
C      1  0.3867770000000  0.7168040000000  0.3996460000000 1.0
C      1  0.3688540000000  0.2935570000000  0.3996220000000 1.0
C      1  0.7443580000000  0.4896570000000  0.3996190000000 1.0
C      1  0.3052960000000  0.5842880000000  0.5213600000000 1.0
C      1  0.5243570000000  0.2892340000000  0.5213340000000 1.0
C      1  0.6703500000000  0.6264730000000  0.5213480000000 1.0
C      1  0.6623920000000  0.6149150000000  0.6147530000000 1.0
C      1  0.3192850000000  0.5831640000000  0.6147650000000 1.0
C      1  0.5183360000000  0.3019000000000  0.6147410000000 1.0
END
