TITL C-3036485-3770-212 -0.000402206928374044 3375 -339.294874604605 0 0 60 (C1) n - 1
REM
REM in /home/bkarasulu/work/CARBON/AIRSS/Generating-Clusters/REBO/Higher-Symm/Only-C60
REM
REM
REM
REM
REM
REM ./C.cell (a2850807a9bf4ad07a5b6933b78d9264)
REM AIRSS Version 0.9.1 bugfix July 2018 build 013d7b7c2542+ Fri, 06 Jul 2018 19:26:36 +0100
REM compiler GCC version 9.2.1 20190827 (Red Hat 9.2.1-1)
REM options -cpp -mtune=generic -march=x86-64 -g -O0 -fpre-include=/usr/include/finclude/math-vector-fortran.h
REM seed 327952019 -1096772876 590494058 966272183 -229429205 1147818244 -1590615253 965900296 895638939 -1305183366 -31954140 469363605 673473816 390394465 -563121047 -1587300044 1869502172 -455272126 -1811224279 -1788112547 152442795 1369928800 34137315 -1719617669 1993250447 -872150699 700919265 -1037356907 46385482 -510299468 712045314 1246240180 -792343131
REM
CELL 1.54180   15.00000   15.00000   15.00000   90.00000   90.00000   90.00000
LATT -1
SFAC C  
C      1  0.3392990000000  0.4247440000000  0.3647580000000 1.0
C      1  0.6602330000000  0.5755280000000  0.3652910000000 1.0
C      1  0.6692690000000  0.3729730000000  0.5215330000000 1.0
C      1  0.3306780000000  0.6271110000000  0.5214240000000 1.0
C      1  0.6399240000000  0.5682530000000  0.6039040000000 1.0
C      1  0.3601590000000  0.4317760000000  0.6039090000000 1.0
C      1  0.2842780000000  0.5413390000000  0.4950430000000 1.0
C      1  0.7156700000000  0.4587760000000  0.4953220000000 1.0
C      1  0.4898080000000  0.7101800000000  0.6098020000000 1.0
C      1  0.5103010000000  0.2895070000000  0.6101200000000 1.0
C      1  0.7259800000000  0.6255650000000  0.5210130000000 1.0
C      1  0.2745180000000  0.3745710000000  0.5204890000000 1.0
C      1  0.6552070000000  0.3847340000000  0.3438120000000 1.0
C      1  0.3447650000000  0.6155770000000  0.3438280000000 1.0
C      1  0.4244150000000  0.5090600000000  0.6349750000000 1.0
C      1  0.5757420000000  0.4909270000000  0.6350630000000 1.0
C      1  0.4964700000000  0.2563430000000  0.5121980000000 1.0
C      1  0.5034480000000  0.7436940000000  0.5121140000000 1.0
C      1  0.6449160000000  0.6779980000000  0.5286040000000 1.0
C      1  0.3550730000000  0.3216660000000  0.5291910000000 1.0
C      1  0.6534220000000  0.5517550000000  0.4703880000000 1.0
C      1  0.3467540000000  0.4486250000000  0.4698180000000 1.0
C      1  0.2861620000000  0.5265150000000  0.3825390000000 1.0
C      1  0.7135830000000  0.4738070000000  0.3828540000000 1.0
C      1  0.5998190000000  0.2821920000000  0.5135290000000 1.0
C      1  0.3999990000000  0.7179850000000  0.5135080000000 1.0
C      1  0.4780500000000  0.6180440000000  0.4606500000000 1.0
C      1  0.5222830000000  0.3815010000000  0.4611710000000 1.0
C      1  0.6189120000000  0.3430570000000  0.4252160000000 1.0
C      1  0.3814670000000  0.6567490000000  0.4253150000000 1.0
C      1  0.5546640000000  0.6139260000000  0.5448200000000 1.0
C      1  0.4454960000000  0.3857870000000  0.5451710000000 1.0
C      1  0.5870450000000  0.6607220000000  0.3805430000000 1.0
C      1  0.4122890000000  0.3395060000000  0.3809040000000 1.0
C      1  0.5385290000000  0.4460640000000  0.5518140000000 1.0
C      1  0.4616960000000  0.5537410000000  0.5516510000000 1.0
C      1  0.4687820000000  0.5429040000000  0.2883590000000 1.0
C      1  0.5307980000000  0.4575380000000  0.2895140000000 1.0
C      1  0.3662300000000  0.5092520000000  0.3036220000000 1.0
C      1  0.6333130000000  0.4911480000000  0.3041960000000 1.0
C      1  0.4628430000000  0.5733230000000  0.7448810000000 1.0
C      1  0.5371990000000  0.4266770000000  0.7449360000000 1.0
C      1  0.4202100000000  0.2858150000000  0.4612560000000 1.0
C      1  0.5795300000000  0.7141400000000  0.4610680000000 1.0
C      1  0.4777580000000  0.4286250000000  0.3740550000000 1.0
C      1  0.5225410000000  0.5705920000000  0.3734380000000 1.0
C      1  0.4438670000000  0.3303900000000  0.6658100000000 1.0
C      1  0.5562270000000  0.6693420000000  0.6654620000000 1.0
C      1  0.4440660000000  0.4893370000000  0.4622820000000 1.0
C      1  0.5562570000000  0.5102260000000  0.4621000000000 1.0
C      1  0.2670340000000  0.4659560000000  0.5731530000000 1.0
C      1  0.7332300000000  0.5340400000000  0.5735580000000 1.0
C      1  0.5898140000000  0.3742560000000  0.2610270000000 1.0
C      1  0.4098350000000  0.6263420000000  0.2610210000000 1.0
C      1  0.5451200000000  0.5793520000000  0.6967660000000 1.0
C      1  0.4549400000000  0.4205350000000  0.6967830000000 1.0
C      1  0.3852130000000  0.5925620000000  0.6883540000000 1.0
C      1  0.6148600000000  0.4073930000000  0.6884730000000 1.0
C      1  0.3859210000000  0.6645550000000  0.6137550000000 1.0
C      1  0.6140870000000  0.3354020000000  0.6138500000000 1.0
END
