TITL C-3036486-2224-856 -0.0321519841379111 3375 -336.509219933328 0 0 60 (C1) n - 1
REM
REM in /home/bkarasulu/work/CARBON/AIRSS/Generating-Clusters/REBO/Higher-Symm/Only-C60
REM
REM
REM
REM
REM
REM ./C.cell (a2850807a9bf4ad07a5b6933b78d9264)
REM AIRSS Version 0.9.1 bugfix July 2018 build 013d7b7c2542+ Fri, 06 Jul 2018 19:26:36 +0100
REM compiler GCC version 9.2.1 20190827 (Red Hat 9.2.1-1)
REM options -cpp -mtune=generic -march=x86-64 -g -O0 -fpre-include=/usr/include/finclude/math-vector-fortran.h
REM seed -1553395634 1184310012 -838288451 -1557492604 1128009391 2089896930 -483241888 211812487 -483736235 70882234 1334215902 -2079786164 -1698069437 1973874045 1854011151 1385549692 1495698232 547110573 -706576569 181317470 -271118929 -1963079619 -1360773180 1924140072 -1210753736 430475110 -949830156 829480819 -1065007751 -1054598565 1523630592 -407997054 1007729427
REM
CELL 1.54180   15.00000   15.00000   15.00000   90.00000   90.00000   90.00000
LATT -1
SFAC C  
C      1  0.3085340000000  0.3900380000000  0.3738260000000 1.0
C      1  0.3085500000000  0.6641260000000  0.4663630000000 1.0
C      1  0.3120300000000  0.4451650000000  0.6603750000000 1.0
C      1  0.6138670000000  0.6626740000000  0.5185240000000 1.0
C      1  0.6142040000000  0.3952370000000  0.6338790000000 1.0
C      1  0.6139180000000  0.4340080000000  0.3488950000000 1.0
C      1  0.3614970000000  0.6835740000000  0.5438950000000 1.0
C      1  0.3657080000000  0.3684760000000  0.6371780000000 1.0
C      1  0.3622010000000  0.4471230000000  0.3181450000000 1.0
C      1  0.7065580000000  0.6284860000000  0.5262590000000 1.0
C      1  0.7066820000000  0.4103550000000  0.6007860000000 1.0
C      1  0.7070950000000  0.4571880000000  0.3739040000000 1.0
C      1  0.6998850000000  0.5725310000000  0.6028550000000 1.0
C      1  0.7021630000000  0.3757570000000  0.5122760000000 1.0
C      1  0.7011520000000  0.5513420000000  0.3852680000000 1.0
C      1  0.4524820000000  0.2597160000000  0.5468570000000 1.0
C      1  0.4544890000000  0.5804750000000  0.2675050000000 1.0
C      1  0.4527470000000  0.6622660000000  0.6842350000000 1.0
C      1  0.3254660000000  0.3587840000000  0.4572340000000 1.0
C      1  0.3253240000000  0.6087440000000  0.3967160000000 1.0
C      1  0.3254840000000  0.5336540000000  0.6450930000000 1.0
C      1  0.5338160000000  0.4868640000000  0.4107990000000 1.0
C      1  0.5333010000000  0.5832520000000  0.5337010000000 1.0
C      1  0.5346360000000  0.4246570000000  0.5576620000000 1.0
C      1  0.4400320000000  0.4344290000000  0.4256070000000 1.0
C      1  0.4399800000000  0.5968720000000  0.4799240000000 1.0
C      1  0.4424240000000  0.4684720000000  0.5946380000000 1.0
C      1  0.5609360000000  0.6615730000000  0.3925580000000 1.0
C      1  0.5608760000000  0.5164350000000  0.6970660000000 1.0
C      1  0.5605090000000  0.3258690000000  0.4122840000000 1.0
C      1  0.3571440000000  0.4193380000000  0.5377810000000 1.0
C      1  0.3560150000000  0.5091920000000  0.4098930000000 1.0
C      1  0.3553570000000  0.5732090000000  0.5518520000000 1.0
C      1  0.4333810000000  0.4847450000000  0.7056350000000 1.0
C      1  0.4322910000000  0.3319580000000  0.3824320000000 1.0
C      1  0.4329060000000  0.6855870000000  0.4124830000000 1.0
C      1  0.6029440000000  0.3530530000000  0.5011130000000 1.0
C      1  0.6012920000000  0.5700740000000  0.3719980000000 1.0
C      1  0.6002660000000  0.5772370000000  0.6257610000000 1.0
C      1  0.5177070000000  0.4113760000000  0.6884860000000 1.0
C      1  0.5149960000000  0.3859360000000  0.3267810000000 1.0
C      1  0.5156490000000  0.7062420000000  0.4871520000000 1.0
C      1  0.3782840000000  0.5836920000000  0.7204910000000 1.0
C      1  0.3783380000000  0.2685350000000  0.4605710000000 1.0
C      1  0.3797770000000  0.6505560000000  0.3177780000000 1.0
C      1  0.7454900000000  0.4930300000000  0.6213670000000 1.0
C      1  0.7492060000000  0.4008080000000  0.4355460000000 1.0
C      1  0.7482380000000  0.6045990000000  0.4460320000000 1.0
C      1  0.4609600000000  0.3264540000000  0.6388390000000 1.0
C      1  0.4543730000000  0.4673640000000  0.2772180000000 1.0
C      1  0.4533920000000  0.7096620000000  0.5811410000000 1.0
C      1  0.4537000000000  0.5573390000000  0.3777690000000 1.0
C      1  0.4528310000000  0.5769560000000  0.6103350000000 1.0
C      1  0.4536020000000  0.3661860000000  0.5110540000000 1.0
C      1  0.4878420000000  0.5753710000000  0.7486500000000 1.0
C      1  0.4882910000000  0.2505570000000  0.4390660000000 1.0
C      1  0.4897280000000  0.6782170000000  0.3139170000000 1.0
C      1  0.5625840000000  0.3021220000000  0.5945130000000 1.0
C      1  0.5590790000000  0.5100280000000  0.2848120000000 1.0
C      1  0.5577890000000  0.6824370000000  0.6152290000000 1.0
END
