TITL C-3036479-9801-485 0.0190736828465654 3375 -346.205859024669 0 0 60 (C1) n - 1
REM
REM in /home/bkarasulu/work/CARBON/AIRSS/Generating-Clusters/REBO/Higher-Symm/Only-C60
REM
REM
REM
REM
REM
REM ./C.cell (a2850807a9bf4ad07a5b6933b78d9264)
REM AIRSS Version 0.9.1 bugfix July 2018 build 013d7b7c2542+ Fri, 06 Jul 2018 19:26:36 +0100
REM compiler GCC version 9.2.1 20190827 (Red Hat 9.2.1-1)
REM options -cpp -mtune=generic -march=x86-64 -g -O0 -fpre-include=/usr/include/finclude/math-vector-fortran.h
REM seed -340412910 -1420387096 -752084021 1080631571 -434741379 625094667 -1106958117 -1396071025 -2076256446 1380354088 -836227819 -1906190535 1344898075 -2137167245 995042327 1940815748 -884454213 1636321861 -1282979653 194484290 1529139840 -1168381876 966025796 1777690317 -1079063101 1131147043 -1398267676 141097071 1791300481 -958916376 -1379265758 -516968211 -134531725
REM
CELL 1.54180   15.00000   15.00000   15.00000   90.00000   90.00000   90.00000
LATT -1
SFAC C  
C      1  0.7654690000000  0.4651090000000  0.4403000000000 1.0
C      1  0.5008890000000  0.3896010000000  0.4156240000000 1.0
C      1  0.3441900000000  0.5745520000000  0.6499660000000 1.0
C      1  0.3939470000000  0.3607580000000  0.6482870000000 1.0
C      1  0.5665490000000  0.2546020000000  0.4826160000000 1.0
C      1  0.6837540000000  0.4768530000000  0.5112800000000 1.0
C      1  0.5399040000000  0.5714350000000  0.4871560000000 1.0
C      1  0.4456560000000  0.4492600000000  0.4763270000000 1.0
C      1  0.3716660000000  0.3016400000000  0.5623610000000 1.0
C      1  0.4598620000000  0.2521230000000  0.5279700000000 1.0
C      1  0.4925010000000  0.7377870000000  0.4634300000000 1.0
C      1  0.3068040000000  0.6019210000000  0.5569180000000 1.0
C      1  0.7932720000000  0.5514730000000  0.5042400000000 1.0
C      1  0.3689550000000  0.4115720000000  0.5343180000000 1.0
C      1  0.5029950000000  0.2956180000000  0.4103670000000 1.0
C      1  0.6808270000000  0.4619390000000  0.3652240000000 1.0
C      1  0.5788380000000  0.4325300000000  0.3972180000000 1.0
C      1  0.5967330000000  0.5230390000000  0.6518830000000 1.0
C      1  0.5395800000000  0.3729690000000  0.2529970000000 1.0
C      1  0.5613590000000  0.7502630000000  0.6659450000000 1.0
C      1  0.2477070000000  0.4282580000000  0.4577280000000 1.0
C      1  0.5091430000000  0.4830270000000  0.6421890000000 1.0
C      1  0.6993300000000  0.3714670000000  0.4331400000000 1.0
C      1  0.5078430000000  0.3692340000000  0.6436120000000 1.0
C      1  0.2792040000000  0.5972500000000  0.4622690000000 1.0
C      1  0.6042830000000  0.4958900000000  0.4685050000000 1.0
C      1  0.3014690000000  0.3385860000000  0.4808490000000 1.0
C      1  0.3764420000000  0.4734530000000  0.6451480000000 1.0
C      1  0.7393940000000  0.5815410000000  0.5716440000000 1.0
C      1  0.6261960000000  0.5837810000000  0.5660500000000 1.0
C      1  0.4724190000000  0.6050100000000  0.2834820000000 1.0
C      1  0.2862410000000  0.5080260000000  0.4240510000000 1.0
C      1  0.3531940000000  0.3513590000000  0.3219960000000 1.0
C      1  0.4607480000000  0.6825000000000  0.6110000000000 1.0
C      1  0.5411860000000  0.7358320000000  0.5603830000000 1.0
C      1  0.4174050000000  0.6203860000000  0.3580790000000 1.0
C      1  0.5307620000000  0.7209920000000  0.7468070000000 1.0
C      1  0.7086430000000  0.5441520000000  0.6617980000000 1.0
C      1  0.4172760000000  0.2469050000000  0.4221160000000 1.0
C      1  0.6421520000000  0.3249580000000  0.5195130000000 1.0
C      1  0.6743260000000  0.4430810000000  0.6598650000000 1.0
C      1  0.3411700000000  0.2952040000000  0.3975970000000 1.0
C      1  0.4487030000000  0.4289180000000  0.7215960000000 1.0
C      1  0.3704150000000  0.4986540000000  0.3789000000000 1.0
C      1  0.4026920000000  0.4326430000000  0.3198170000000 1.0
C      1  0.4425900000000  0.5186010000000  0.5640360000000 1.0
C      1  0.4144390000000  0.6171730000000  0.5456350000000 1.0
C      1  0.6818280000000  0.4052710000000  0.5741780000000 1.0
C      1  0.4928620000000  0.4435710000000  0.2858550000000 1.0
C      1  0.4098500000000  0.6393600000000  0.6853660000000 1.0
C      1  0.5965740000000  0.6650430000000  0.5025620000000 1.0
C      1  0.6130240000000  0.5509020000000  0.3467300000000 1.0
C      1  0.5497660000000  0.7172590000000  0.3895750000000 1.0
C      1  0.5342090000000  0.5318530000000  0.2933980000000 1.0
C      1  0.6096900000000  0.6343940000000  0.3930510000000 1.0
C      1  0.5454540000000  0.3080070000000  0.5786300000000 1.0
C      1  0.4524270000000  0.5531260000000  0.4357930000000 1.0
C      1  0.4574300000000  0.6665080000000  0.7638650000000 1.0
C      1  0.4117680000000  0.6911920000000  0.4699270000000 1.0
C      1  0.3359960000000  0.6615900000000  0.4088360000000 1.0
END
