TITL C-3036481-494-1130 2.770326298645e-06 3375 -337.43828019959 0 0 60 (D2) n - 1
REM
REM in /home/bkarasulu/work/CARBON/AIRSS/Generating-Clusters/REBO/Higher-Symm/Only-C60
REM
REM
REM
REM
REM
REM ./C.cell (a2850807a9bf4ad07a5b6933b78d9264)
REM AIRSS Version 0.9.1 bugfix July 2018 build 013d7b7c2542+ Fri, 06 Jul 2018 19:26:36 +0100
REM compiler GCC version 9.2.1 20190827 (Red Hat 9.2.1-1)
REM options -cpp -mtune=generic -march=x86-64 -g -O0 -fpre-include=/usr/include/finclude/math-vector-fortran.h
REM seed -1296274169 994546183 -853076088 1936623653 -297200730 -1982524741 26815533 665927727 -1610441847 2021891163 -143793239 476798242 -176401025 1521808213 -164011465 -225003760 -504904723 -1154764006 -1426766213 962532797 -357158444 1104377338 -897897591 -1215873664 1331539572 -1927255453 -1185233082 -832422625 404031497 -1272678775 1826187319 281668106 -1711822210
REM
CELL 1.54180   15.00000   15.00000   15.00000   90.00000   90.00000   90.00000
LATT -1
SFAC C  
C      1  0.4897900000000  0.5860620000000  0.7000160000000 1.0
C      1  0.5102100000000  0.4139380000000  0.7000160000000 1.0
C      1  0.5102100000000  0.5860620000000  0.2999840000000 1.0
C      1  0.4897900000000  0.4139380000000  0.2999840000000 1.0
C      1  0.4244080000000  0.3057540000000  0.5525370000000 1.0
C      1  0.5755920000000  0.6942460000000  0.5525370000000 1.0
C      1  0.5755920000000  0.3057540000000  0.4474630000000 1.0
C      1  0.4244080000000  0.6942460000000  0.4474630000000 1.0
C      1  0.4042880000000  0.4008540000000  0.6591030000000 1.0
C      1  0.5957120000000  0.5991460000000  0.6591030000000 1.0
C      1  0.5957120000000  0.4008540000000  0.3408970000000 1.0
C      1  0.4042880000000  0.5991460000000  0.3408970000000 1.0
C      1  0.5753880000000  0.7296260000000  0.3853500000000 1.0
C      1  0.4246120000000  0.2703740000000  0.3853500000000 1.0
C      1  0.4246120000000  0.7296260000000  0.6146500000000 1.0
C      1  0.5753880000000  0.2703740000000  0.6146500000000 1.0
C      1  0.3916520000000  0.6384580000000  0.6734250000000 1.0
C      1  0.6083480000000  0.3615420000000  0.6734250000000 1.0
C      1  0.6083480000000  0.6384580000000  0.3265750000000 1.0
C      1  0.3916520000000  0.3615420000000  0.3265750000000 1.0
C      1  0.5249120000000  0.6009190000000  0.5469600000000 1.0
C      1  0.4750880000000  0.3990810000000  0.5469600000000 1.0
C      1  0.4750880000000  0.6009190000000  0.4530400000000 1.0
C      1  0.5249120000000  0.3990810000000  0.4530400000000 1.0
C      1  0.2919490000000  0.3206530000000  0.5545150000000 1.0
C      1  0.7080510000000  0.6793470000000  0.5545150000000 1.0
C      1  0.7080510000000  0.3206530000000  0.4454850000000 1.0
C      1  0.2919490000000  0.6793470000000  0.4454850000000 1.0
C      1  0.2989290000000  0.5121110000000  0.4521980000000 1.0
C      1  0.7010710000000  0.4878890000000  0.4521980000000 1.0
C      1  0.7010710000000  0.5121110000000  0.5478020000000 1.0
C      1  0.2989290000000  0.4878890000000  0.5478020000000 1.0
C      1  0.4225560000000  0.5092740000000  0.6689470000000 1.0
C      1  0.5774440000000  0.4907260000000  0.6689470000000 1.0
C      1  0.5774440000000  0.5092740000000  0.3310530000000 1.0
C      1  0.4225560000000  0.4907260000000  0.3310530000000 1.0
C      1  0.5686260000000  0.5096910000000  0.5562080000000 1.0
C      1  0.4313740000000  0.4903090000000  0.5562080000000 1.0
C      1  0.4313740000000  0.5096910000000  0.4437920000000 1.0
C      1  0.5686260000000  0.4903090000000  0.4437920000000 1.0
C      1  0.6669720000000  0.4425590000000  0.6161820000000 1.0
C      1  0.3330280000000  0.5574410000000  0.6161820000000 1.0
C      1  0.3330280000000  0.4425590000000  0.3838180000000 1.0
C      1  0.6669720000000  0.5574410000000  0.3838180000000 1.0
C      1  0.3259030000000  0.4009470000000  0.5845430000000 1.0
C      1  0.6740970000000  0.5990530000000  0.5845430000000 1.0
C      1  0.6740970000000  0.4009470000000  0.4154570000000 1.0
C      1  0.3259030000000  0.5990530000000  0.4154570000000 1.0
C      1  0.5917910000000  0.2635040000000  0.5252110000000 1.0
C      1  0.4082090000000  0.7364960000000  0.5252110000000 1.0
C      1  0.4082090000000  0.2635040000000  0.4747890000000 1.0
C      1  0.5917910000000  0.7364960000000  0.4747890000000 1.0
C      1  0.5192780000000  0.6838630000000  0.6503900000000 1.0
C      1  0.4807220000000  0.3161370000000  0.6503900000000 1.0
C      1  0.4807220000000  0.6838630000000  0.3496100000000 1.0
C      1  0.5192780000000  0.3161370000000  0.3496100000000 1.0
C      1  0.4253720000000  0.3972610000000  0.4246130000000 1.0
C      1  0.5746280000000  0.6027390000000  0.4246130000000 1.0
C      1  0.5746280000000  0.3972610000000  0.5753870000000 1.0
C      1  0.4253720000000  0.6027390000000  0.5753870000000 1.0
END
