TITL C-3036484-3770-186 0.0139459231044287 3375 -329.02950512288 0 0 60 (C2v) n - 1
REM
REM in /home/bkarasulu/work/CARBON/AIRSS/Generating-Clusters/REBO/Higher-Symm/Only-C60
REM
REM
REM
REM
REM
REM ./C.cell (a2850807a9bf4ad07a5b6933b78d9264)
REM AIRSS Version 0.9.1 bugfix July 2018 build 013d7b7c2542+ Fri, 06 Jul 2018 19:26:36 +0100
REM compiler GCC version 9.2.1 20190827 (Red Hat 9.2.1-1)
REM options -cpp -mtune=generic -march=x86-64 -g -O0 -fpre-include=/usr/include/finclude/math-vector-fortran.h
REM seed -601965175 730534620 822571151 1494634954 649922398 1115787919 -1258642775 877157868 -969297194 -1496753144 95867441 480309922 536590889 -1166119710 1199041453 87587210 298850123 148891913 -302966646 -2054358639 -1884887280 -1246388611 -695689284 1503678611 959464032 1747507368 1261577910 469971410 -784309398 470544165 -1735072077 -1889860647 1846629193
REM
CELL 1.54180   15.00000   15.00000   15.00000   90.00000   90.00000   90.00000
LATT -1
SFAC C  
C      1  0.4028960000000  0.4599000000000  0.5499420000000 1.0
C      1  0.5971000000000  0.4599000000000  0.4500590000000 1.0
C      1  0.5971040000000  0.4599000000000  0.5499420000000 1.0
C      1  0.4029000000000  0.4599000000000  0.4500590000000 1.0
C      1  0.5541990000000  0.6077220000000  0.6961990000000 1.0
C      1  0.4458030000000  0.6076980000000  0.3037940000000 1.0
C      1  0.4458010000000  0.6077220000000  0.6961990000000 1.0
C      1  0.5541970000000  0.6076980000000  0.3037940000000 1.0
C      1  0.5668900000000  0.6325160000000  0.4546120000000 1.0
C      1  0.4331190000000  0.6325130000000  0.5453820000000 1.0
C      1  0.4331100000000  0.6325160000000  0.4546120000000 1.0
C      1  0.5668810000000  0.6325130000000  0.5453820000000 1.0
C      1  0.5466340000000  0.5450350000000  0.4205570000000 1.0
C      1  0.4533650000000  0.5450390000000  0.5794340000000 1.0
C      1  0.4533660000000  0.5450350000000  0.4205570000000 1.0
C      1  0.5466350000000  0.5450390000000  0.5794340000000 1.0
C      1  0.3903460000000  0.3949520000000  0.3138070000000 1.0
C      1  0.6096490000000  0.3949710000000  0.6861920000000 1.0
C      1  0.6096540000000  0.3949520000000  0.3138070000000 1.0
C      1  0.3903510000000  0.3949710000000  0.6861920000000 1.0
C      1  0.3895510000000  0.2822500000000  0.4479640000000 1.0
C      1  0.6104490000000  0.2822510000000  0.5520360000000 1.0
C      1  0.6104490000000  0.2822500000000  0.4479640000000 1.0
C      1  0.3895510000000  0.2822510000000  0.5520360000000 1.0
C      1  0.4459630000000  0.3014040000000  0.3484990000000 1.0
C      1  0.5540370000000  0.3014000000000  0.6514960000000 1.0
C      1  0.5540370000000  0.3014040000000  0.3484990000000 1.0
C      1  0.4459630000000  0.3014000000000  0.6514960000000 1.0
C      1  0.6995100000000  0.6386070000000  0.5521970000000 1.0
C      1  0.3005130000000  0.6386080000000  0.4477970000000 1.0
C      1  0.3004900000000  0.6386070000000  0.5521970000000 1.0
C      1  0.6994870000000  0.6386080000000  0.4477970000000 1.0
C      1  0.6419970000000  0.6618330000000  0.3510140000000 1.0
C      1  0.3580110000000  0.6618330000000  0.6490060000000 1.0
C      1  0.3580030000000  0.6618330000000  0.3510140000000 1.0
C      1  0.6419890000000  0.6618330000000  0.6490060000000 1.0
C      1  0.5567280000000  0.4942970000000  0.7019520000000 1.0
C      1  0.4433040000000  0.4943240000000  0.2980430000000 1.0
C      1  0.4432720000000  0.4942970000000  0.7019520000000 1.0
C      1  0.5566960000000  0.4943240000000  0.2980430000000 1.0
C      1  0.4508130000000  0.7110120000000  0.6128010000000 1.0
C      1  0.5491900000000  0.7110140000000  0.3872000000000 1.0
C      1  0.5491870000000  0.7110120000000  0.6128010000000 1.0
C      1  0.4508100000000  0.7110140000000  0.3872000000000 1.0
C      1  0.6517420000000  0.4894590000000  0.3612210000000 1.0
C      1  0.3482600000000  0.4894570000000  0.6387830000000 1.0
C      1  0.3482580000000  0.4894590000000  0.3612210000000 1.0
C      1  0.6517400000000  0.4894570000000  0.6387830000000 1.0
C      1  0.2805750000000  0.5599310000000  0.6137740000000 1.0
C      1  0.7194280000000  0.5599220000000  0.3862370000000 1.0
C      1  0.7194250000000  0.5599310000000  0.6137740000000 1.0
C      1  0.2805720000000  0.5599220000000  0.3862370000000 1.0
C      1  0.6724980000000  0.3453520000000  0.3859730000000 1.0
C      1  0.3275100000000  0.3453530000000  0.6140240000000 1.0
C      1  0.3275020000000  0.3453520000000  0.3859730000000 1.0
C      1  0.6724900000000  0.3453530000000  0.6140240000000 1.0
C      1  0.4489210000000  0.3757250000000  0.4317410000000 1.0
C      1  0.5510910000000  0.3757230000000  0.5682640000000 1.0
C      1  0.5510790000000  0.3757250000000  0.4317410000000 1.0
C      1  0.4489090000000  0.3757230000000  0.5682640000000 1.0
END
