TITL C-3036479-9801-1010 -9.77582175259963e-07 3375 -359.550806743923 0 0 60 (C2) n - 1
REM
REM in /home/bkarasulu/work/CARBON/AIRSS/Generating-Clusters/REBO/Higher-Symm/Only-C60
REM
REM
REM
REM
REM
REM ./C.cell (a2850807a9bf4ad07a5b6933b78d9264)
REM AIRSS Version 0.9.1 bugfix July 2018 build 013d7b7c2542+ Fri, 06 Jul 2018 19:26:36 +0100
REM compiler GCC version 9.2.1 20190827 (Red Hat 9.2.1-1)
REM options -cpp -mtune=generic -march=x86-64 -g -O0 -fpre-include=/usr/include/finclude/math-vector-fortran.h
REM seed -136681548 852110169 1055288449 1225049423 857060760 70594057 1439489176 41528168 -1986833461 1993652398 -1077081872 1612716494 -1370485737 -501680643 1723510450 -598714850 -172923932 -1750922986 459154227 -1245584219 -493638545 2000658872 1753926860 -1863367493 1842462200 -24151318 349049706 1398029510 2085868124 -843945465 1962206811 -735742119 2099082144
REM
CELL 1.54180   15.00000   15.00000   15.00000   90.00000   90.00000   90.00000
LATT -1
SFAC C  
C      1  0.5801170000000  0.7600640000000  0.5103960000000 1.0
C      1  0.5083690000000  0.7587260000000  0.4343380000000 1.0
C      1  0.4198840000000  0.7600640000000  0.4896050000000 1.0
C      1  0.4916320000000  0.7587260000000  0.5656630000000 1.0
C      1  0.5597360000000  0.5208810000000  0.4392520000000 1.0
C      1  0.4522190000000  0.5181330000000  0.4536290000000 1.0
C      1  0.4402640000000  0.5208810000000  0.5607480000000 1.0
C      1  0.5477810000000  0.5181330000000  0.5463710000000 1.0
C      1  0.6959070000000  0.3848680000000  0.3819180000000 1.0
C      1  0.3918780000000  0.3852640000000  0.3110390000000 1.0
C      1  0.3040920000000  0.3848690000000  0.6180820000000 1.0
C      1  0.6081210000000  0.3852630000000  0.6889600000000 1.0
C      1  0.3118120000000  0.5528460000000  0.3843900000000 1.0
C      1  0.3812380000000  0.5569160000000  0.6903470000000 1.0
C      1  0.6881890000000  0.5528450000000  0.6156100000000 1.0
C      1  0.6187630000000  0.5569160000000  0.3096530000000 1.0
C      1  0.5332510000000  0.6018340000000  0.2981390000000 1.0
C      1  0.2932390000000  0.5995910000000  0.4684520000000 1.0
C      1  0.4667490000000  0.6018340000000  0.7018610000000 1.0
C      1  0.7067620000000  0.5995900000000  0.5315480000000 1.0
C      1  0.4569760000000  0.4473840000000  0.2794130000000 1.0
C      1  0.2813960000000  0.4481800000000  0.5499110000000 1.0
C      1  0.5430240000000  0.4473840000000  0.7205870000000 1.0
C      1  0.7186040000000  0.4481790000000  0.4500890000000 1.0
C      1  0.3696030000000  0.2977110000000  0.6017940000000 1.0
C      1  0.5902480000000  0.3008780000000  0.6202480000000 1.0
C      1  0.6303960000000  0.2977100000000  0.3982050000000 1.0
C      1  0.4097510000000  0.3008790000000  0.3797520000000 1.0
C      1  0.3630530000000  0.4757900000000  0.4144510000000 1.0
C      1  0.4050710000000  0.4719850000000  0.6461840000000 1.0
C      1  0.6369460000000  0.4757890000000  0.5855490000000 1.0
C      1  0.5949290000000  0.4719850000000  0.3538160000000 1.0
C      1  0.5731440000000  0.6162280000000  0.5933200000000 1.0
C      1  0.5991700000000  0.6201620000000  0.4251800000000 1.0
C      1  0.4268560000000  0.6162280000000  0.4066800000000 1.0
C      1  0.4008310000000  0.6201620000000  0.5748200000000 1.0
C      1  0.5671870000000  0.2604160000000  0.4541230000000 1.0
C      1  0.4628800000000  0.2612530000000  0.4451260000000 1.0
C      1  0.4328120000000  0.2604160000000  0.5458760000000 1.0
C      1  0.5371200000000  0.2612520000000  0.5548740000000 1.0
C      1  0.6826970000000  0.3540780000000  0.6147720000000 1.0
C      1  0.6237140000000  0.3514350000000  0.3055370000000 1.0
C      1  0.3173020000000  0.3540780000000  0.3852270000000 1.0
C      1  0.3762850000000  0.3514350000000  0.6944630000000 1.0
C      1  0.7247580000000  0.5477440000000  0.4486850000000 1.0
C      1  0.4529760000000  0.5473340000000  0.2784040000000 1.0
C      1  0.2752420000000  0.5477440000000  0.5513150000000 1.0
C      1  0.5470250000000  0.5473330000000  0.7215960000000 1.0
C      1  0.4544250000000  0.4132680000000  0.7081540000000 1.0
C      1  0.6975020000000  0.4143050000000  0.5368940000000 1.0
C      1  0.5455750000000  0.4132690000000  0.2918460000000 1.0
C      1  0.3024980000000  0.4143060000000  0.4631060000000 1.0
C      1  0.4844440000000  0.6707710000000  0.6189790000000 1.0
C      1  0.6259820000000  0.6686500000000  0.5156500000000 1.0
C      1  0.5155560000000  0.6707710000000  0.3810210000000 1.0
C      1  0.3740190000000  0.6686510000000  0.4843500000000 1.0
C      1  0.6295290000000  0.5944680000000  0.6862000000000 1.0
C      1  0.6907460000000  0.5988370000000  0.3669170000000 1.0
C      1  0.3704710000000  0.5944690000000  0.3138000000000 1.0
C      1  0.3092540000000  0.5988380000000  0.6330830000000 1.0
END
