TITL C-3036484-3770-921 1.82129667910912e-05 3375 -366.543767334865 0 0 60 (C2h) n - 1
REM
REM in /home/bkarasulu/work/CARBON/AIRSS/Generating-Clusters/REBO/Higher-Symm/Only-C60
REM
REM
REM
REM
REM
REM ./C.cell (a2850807a9bf4ad07a5b6933b78d9264)
REM AIRSS Version 0.9.1 bugfix July 2018 build 013d7b7c2542+ Fri, 06 Jul 2018 19:26:36 +0100
REM compiler GCC version 9.2.1 20190827 (Red Hat 9.2.1-1)
REM options -cpp -mtune=generic -march=x86-64 -g -O0 -fpre-include=/usr/include/finclude/math-vector-fortran.h
REM seed 878857746 1508401677 -92165238 1089437576 -1684625658 151667676 -620773434 1919349127 1596487216 -1101033100 -1446938204 887004726 -1462970298 1140388807 -1234883576 -1395730863 -1576059114 1786852717 -534419807 -247984925 1516303998 1185521795 144012915 -1074912538 -1971304964 1161293883 -376401619 751891342 -1861965691 -429668821 -195017844 1119960118 -1773667182
REM
CELL 1.54180   15.00000   15.00000   15.00000   90.00000   90.00000   90.00000
LATT -1
SFAC C  
C      1  0.5510930000000  0.5029110000000  0.6874340000000 1.0
C      1  0.5510930000000  0.4970890000000  0.3125660000000 1.0
C      1  0.4489070000000  0.5029110000000  0.6874350000000 1.0
C      1  0.4489070000000  0.4970890000000  0.3125650000000 1.0
C      1  0.3629950000000  0.6231210000000  0.5731470000000 1.0
C      1  0.3629950000000  0.3768790000000  0.4268530000000 1.0
C      1  0.6370050000000  0.6231210000000  0.5731460000000 1.0
C      1  0.6370050000000  0.3768790000000  0.4268540000000 1.0
C      1  0.5477860000000  0.3208690000000  0.2980060000000 1.0
C      1  0.5477860000000  0.6791310000000  0.7019940000000 1.0
C      1  0.4522140000000  0.3208690000000  0.2980060000000 1.0
C      1  0.4522140000000  0.6791310000000  0.7019940000000 1.0
C      1  0.6506220000000  0.6555190000000  0.4748880000000 1.0
C      1  0.6506220000000  0.3444810000000  0.5251120000000 1.0
C      1  0.3493770000000  0.6555190000000  0.4748880000000 1.0
C      1  0.3493770000000  0.3444810000000  0.5251120000000 1.0
C      1  0.3428700000000  0.4596810000000  0.2912120000000 1.0
C      1  0.3428700000000  0.5403190000000  0.7087880000000 1.0
C      1  0.6571300000000  0.4596810000000  0.2912120000000 1.0
C      1  0.6571300000000  0.5403190000000  0.7087880000000 1.0
C      1  0.5886480000000  0.2984440000000  0.3802900000000 1.0
C      1  0.5886480000000  0.7015560000000  0.6197100000000 1.0
C      1  0.4113520000000  0.2984440000000  0.3802900000000 1.0
C      1  0.4113520000000  0.7015560000000  0.6197100000000 1.0
C      1  0.2998560000000  0.4361720000000  0.3720410000000 1.0
C      1  0.2998560000000  0.5638280000000  0.6279590000000 1.0
C      1  0.7001440000000  0.4361720000000  0.3720410000000 1.0
C      1  0.7001440000000  0.5638280000000  0.6279590000000 1.0
C      1  0.2664380000000  0.5148320000000  0.4143910000000 1.0
C      1  0.2664380000000  0.4851680000000  0.5856090000000 1.0
C      1  0.7335620000000  0.5148320000000  0.4143910000000 1.0
C      1  0.7335620000000  0.4851680000000  0.5856090000000 1.0
C      1  0.4437560000000  0.4366870000000  0.4808030000000 1.0
C      1  0.4437560000000  0.5633130000000  0.5191970000000 1.0
C      1  0.5562440000000  0.4366870000000  0.4808030000000 1.0
C      1  0.5562440000000  0.5633130000000  0.5191970000000 1.0
C      1  0.5484780000000  0.2471440000000  0.4517190000000 1.0
C      1  0.5484780000000  0.7528560000000  0.5482810000000 1.0
C      1  0.4515220000000  0.2471440000000  0.4517190000000 1.0
C      1  0.4515220000000  0.7528560000000  0.5482810000000 1.0
C      1  0.4249280000000  0.5256810000000  0.4129330000000 1.0
C      1  0.4249280000000  0.4743190000000  0.5870670000000 1.0
C      1  0.5750720000000  0.5256800000000  0.4129330000000 1.0
C      1  0.5750720000000  0.4743200000000  0.5870670000000 1.0
C      1  0.4538510000000  0.7571500000000  0.3849420000000 1.0
C      1  0.4538510000000  0.2428500000000  0.6150580000000 1.0
C      1  0.5461490000000  0.7571500000000  0.3849420000000 1.0
C      1  0.5461490000000  0.2428500000000  0.6150580000000 1.0
C      1  0.3356040000000  0.5801740000000  0.4222430000000 1.0
C      1  0.3356040000000  0.4198260000000  0.5777570000000 1.0
C      1  0.6643960000000  0.5801730000000  0.4222430000000 1.0
C      1  0.6643960000000  0.4198270000000  0.5777570000000 1.0
C      1  0.5801560000000  0.5994220000000  0.7415470000000 1.0
C      1  0.5801560000000  0.4005780000000  0.2584530000000 1.0
C      1  0.4198440000000  0.5994220000000  0.7415470000000 1.0
C      1  0.4198440000000  0.4005780000000  0.2584530000000 1.0
C      1  0.4060520000000  0.2673450000000  0.5369240000000 1.0
C      1  0.4060520000000  0.7326550000000  0.4630760000000 1.0
C      1  0.5939480000000  0.2673450000000  0.5369240000000 1.0
C      1  0.5939480000000  0.7326550000000  0.4630760000000 1.0
END
