TITL C-3036484-3770-196 3.65597194841398e-07 3375 -355.566404218419 0 0 60 (C5) n - 1
REM
REM in /home/bkarasulu/work/CARBON/AIRSS/Generating-Clusters/REBO/Higher-Symm/Only-C60
REM
REM
REM
REM
REM
REM ./C.cell (a2850807a9bf4ad07a5b6933b78d9264)
REM AIRSS Version 0.9.1 bugfix July 2018 build 013d7b7c2542+ Fri, 06 Jul 2018 19:26:36 +0100
REM compiler GCC version 9.2.1 20190827 (Red Hat 9.2.1-1)
REM options -cpp -mtune=generic -march=x86-64 -g -O0 -fpre-include=/usr/include/finclude/math-vector-fortran.h
REM seed -17752648 927001396 -32883684 427415688 608050628 -22062838 1773111403 -957540722 -2094826658 -908031424 -872390380 -1827448307 1083921859 -5119980 102576722 -1881382669 -2080906166 -402803045 -616115838 800928317 842635233 -1618724014 291414813 -1986797212 946373308 -547904227 -2111967915 1338370976 498545971 -1423185562 -678477075 371603320 845724355
REM
CELL 1.54180   15.00000   15.00000   15.00000   90.00000   90.00000   90.00000
LATT -1
SFAC C  
C      1  0.3363160000000  0.6415380000000  0.6178140000000 1.0
C      1  0.5614600000000  0.6415540000000  0.6920720000000 1.0
C      1  0.7016580000000  0.6415650000000  0.5008930000000 1.0
C      1  0.5631570000000  0.6415550000000  0.3084810000000 1.0
C      1  0.3373660000000  0.6415390000000  0.3807440000000 1.0
C      1  0.7061610000000  0.4086160000000  0.6058890000000 1.0
C      1  0.6644190000000  0.4086140000000  0.3366570000000 1.0
C      1  0.3954640000000  0.4085950000000  0.2931570000000 1.0
C      1  0.2709820000000  0.4085850000000  0.5355080000000 1.0
C      1  0.4630040000000  0.4085990000000  0.7287870000000 1.0
C      1  0.6557710000000  0.5124350000000  0.3428780000000 1.0
C      1  0.3987030000000  0.5124170000000  0.3032980000000 1.0
C      1  0.2816220000000  0.5124080000000  0.5355540000000 1.0
C      1  0.4663300000000  0.5124210000000  0.7186750000000 1.0
C      1  0.6975670000000  0.5124380000000  0.5995940000000 1.0
C      1  0.7121520000000  0.5508850000000  0.5166330000000 1.0
C      1  0.5813740000000  0.5508760000000  0.3033680000000 1.0
C      1  0.3381360000000  0.5508580000000  0.3618430000000 1.0
C      1  0.3185830000000  0.5508570000000  0.6112450000000 1.0
C      1  0.5497370000000  0.5508730000000  0.7069110000000 1.0
C      1  0.4828320000000  0.3719340000000  0.2594420000000 1.0
C      1  0.2659170000000  0.3719180000000  0.4420000000000 1.0
C      1  0.3725090000000  0.3719250000000  0.7047110000000 1.0
C      1  0.6553010000000  0.3719450000000  0.6845180000000 1.0
C      1  0.7234840000000  0.3719510000000  0.4093270000000 1.0
C      1  0.5048210000000  0.4821780000000  0.2805220000000 1.0
C      1  0.2927550000000  0.4821630000000  0.4275930000000 1.0
C      1  0.3670950000000  0.4821680000000  0.6747270000000 1.0
C      1  0.6251060000000  0.4821860000000  0.6803940000000 1.0
C      1  0.7102260000000  0.4821930000000  0.4367620000000 1.0
C      1  0.5348670000000  0.4207140000000  0.6503550000000 1.0
C      1  0.6537740000000  0.4207230000000  0.5133060000000 1.0
C      1  0.5601770000000  0.4207160000000  0.3578680000000 1.0
C      1  0.3834240000000  0.4207030000000  0.3988510000000 1.0
C      1  0.3677810000000  0.4207010000000  0.5796180000000 1.0
C      1  0.5514280000000  0.7158800000000  0.6475570000000 1.0
C      1  0.6562170000000  0.7158880000000  0.4966750000000 1.0
C      1  0.5451010000000  0.7158800000000  0.3503900000000 1.0
C      1  0.3716400000000  0.7158670000000  0.4108630000000 1.0
C      1  0.3755500000000  0.7158670000000  0.5945210000000 1.0
C      1  0.5307890000000  0.3291130000000  0.5834430000000 1.0
C      1  0.5888810000000  0.3291180000000  0.4965140000000 1.0
C      1  0.5241590000000  0.3291130000000  0.4144020000000 1.0
C      1  0.4260650000000  0.3291050000000  0.4505830000000 1.0
C      1  0.4301620000000  0.3291050000000  0.5550560000000 1.0
C      1  0.5174590000000  0.4954710000000  0.5791570000000 1.0
C      1  0.5806770000000  0.4954760000000  0.5078550000000 1.0
C      1  0.5324010000000  0.4954720000000  0.4256970000000 1.0
C      1  0.4393460000000  0.4954650000000  0.4462230000000 1.0
C      1  0.4301120000000  0.4954640000000  0.5410660000000 1.0
C      1  0.5769590000000  0.7671690000000  0.5534180000000 1.0
C      1  0.5745720000000  0.7671690000000  0.4433000000000 1.0
C      1  0.4691060000000  0.7671610000000  0.4115420000000 1.0
C      1  0.4063120000000  0.7671560000000  0.5020320000000 1.0
C      1  0.4729680000000  0.7671610000000  0.5897160000000 1.0
C      1  0.5206950000000  0.3041130000000  0.3084180000000 1.0
C      1  0.3241990000000  0.3040990000000  0.4211280000000 1.0
C      1  0.3706730000000  0.3041020000000  0.6428360000000 1.0
C      1  0.5958900000000  0.3041180000000  0.6671480000000 1.0
C      1  0.6886090000000  0.3041250000000  0.4604670000000 1.0
END
