TITL C-3036479-9801-88 4.3371558654298e-06 3375 -329.471130781807 0 0 60 (C3) n - 1
REM
REM in /home/bkarasulu/work/CARBON/AIRSS/Generating-Clusters/REBO/Higher-Symm/Only-C60
REM
REM
REM
REM
REM
REM ./C.cell (a2850807a9bf4ad07a5b6933b78d9264)
REM AIRSS Version 0.9.1 bugfix July 2018 build 013d7b7c2542+ Fri, 06 Jul 2018 19:26:36 +0100
REM compiler GCC version 9.2.1 20190827 (Red Hat 9.2.1-1)
REM options -cpp -mtune=generic -march=x86-64 -g -O0 -fpre-include=/usr/include/finclude/math-vector-fortran.h
REM seed -173817644 -819169739 391032859 1755286457 -214715544 -1404849922 990264037 -147347861 -72690528 1856426183 1108205790 1003260097 -1287157926 1349394906 -1042085056 1214889752 822694216 -138073726 52622058 1045519240 1992880019 -376387785 -1222631538 584156112 -68539162 1905007736 1533504752 674494167 1517083829 1658050643 1064718321 -1750346441 -856073328
REM
CELL 1.54180   15.00000   15.00000   15.00000   90.00000   90.00000   90.00000
LATT -1
SFAC C  
C      1  0.4646980000000  0.3730550000000  0.6661990000000 1.0
C      1  0.3737170000000  0.3730550000000  0.3863290000000 1.0
C      1  0.6615830000000  0.3730540000000  0.4474720000000 1.0
C      1  0.6007360000000  0.6725500000000  0.3720800000000 1.0
C      1  0.5604150000000  0.6725500000000  0.6512000000000 1.0
C      1  0.3388510000000  0.6725510000000  0.4767210000000 1.0
C      1  0.2560390000000  0.6221580000000  0.4441540000000 1.0
C      1  0.6703450000000  0.6221570000000  0.3166470000000 1.0
C      1  0.5736170000000  0.6221560000000  0.7391990000000 1.0
C      1  0.5871070000000  0.4718750000000  0.2826290000000 1.0
C      1  0.6446960000000  0.4718740000000  0.6841210000000 1.0
C      1  0.2681980000000  0.4718760000000  0.5332490000000 1.0
C      1  0.6683240000000  0.5462340000000  0.2825920000000 1.0
C      1  0.6041190000000  0.5462340000000  0.7544770000000 1.0
C      1  0.2275570000000  0.5462360000000  0.4629310000000 1.0
C      1  0.4572410000000  0.6657250000000  0.6024100000000 1.0
C      1  0.4326900000000  0.6657250000000  0.4117640000000 1.0
C      1  0.6100700000000  0.6657240000000  0.4858260000000 1.0
C      1  0.6522670000000  0.3537420000000  0.6218920000000 1.0
C      1  0.3183040000000  0.3537430000000  0.5709210000000 1.0
C      1  0.5294280000000  0.3537410000000  0.3071870000000 1.0
C      1  0.6132110000000  0.3076370000000  0.5269220000000 1.0
C      1  0.4200780000000  0.3076370000000  0.5845840000000 1.0
C      1  0.4667080000000  0.3076370000000  0.3884950000000 1.0
C      1  0.7828170000000  0.5076560000000  0.5412430000000 1.0
C      1  0.3228740000000  0.5076570000000  0.7243050000000 1.0
C      1  0.3943100000000  0.5076570000000  0.2344520000000 1.0
C      1  0.6984530000000  0.5806570000000  0.5373920000000 1.0
C      1  0.3683920000000  0.5806580000000  0.6531690000000 1.0
C      1  0.4331560000000  0.5806580000000  0.3094390000000 1.0
C      1  0.5445740000000  0.5054210000000  0.5625740000000 1.0
C      1  0.4235220000000  0.5054210000000  0.5073160000000 1.0
C      1  0.5319040000000  0.5054210000000  0.4301100000000 1.0
C      1  0.5306730000000  0.6112540000000  0.4301760000000 1.0
C      1  0.5451330000000  0.6112530000000  0.5614750000000 1.0
C      1  0.4241950000000  0.6112540000000  0.5083490000000 1.0
C      1  0.5291360000000  0.3084920000000  0.5973010000000 1.0
C      1  0.4011650000000  0.3084930000000  0.4765840000000 1.0
C      1  0.5696950000000  0.3084930000000  0.4261160000000 1.0
C      1  0.5632910000000  0.4161790000000  0.5876400000000 1.0
C      1  0.3924550000000  0.4161800000000  0.5109920000000 1.0
C      1  0.5442530000000  0.4161800000000  0.4013660000000 1.0
C      1  0.7174660000000  0.4388130000000  0.6034480000000 1.0
C      1  0.3016770000000  0.4388150000000  0.6366070000000 1.0
C      1  0.4808560000000  0.4388130000000  0.2599450000000 1.0
C      1  0.2925590000000  0.3846520000000  0.4646870000000 1.0
C      1  0.6343020000000  0.3846500000000  0.3380070000000 1.0
C      1  0.5731380000000  0.3846510000000  0.6973050000000 1.0
C      1  0.4512160000000  0.5311630000000  0.6107900000000 1.0
C      1  0.4284450000000  0.5311630000000  0.4023570000000 1.0
C      1  0.6203390000000  0.5311620000000  0.4868530000000 1.0
C      1  0.6941650000000  0.4550320000000  0.4933150000000 1.0
C      1  0.4087060000000  0.4550330000000  0.6714950000000 1.0
C      1  0.3971280000000  0.4550320000000  0.3351900000000 1.0
C      1  0.6726260000000  0.5743820000000  0.6442980000000 1.0
C      1  0.2887220000000  0.5743840000000  0.5773490000000 1.0
C      1  0.5386540000000  0.5743830000000  0.2783540000000 1.0
C      1  0.3438950000000  0.6733200000000  0.5913490000000 1.0
C      1  0.4989430000000  0.6733190000000  0.3191340000000 1.0
C      1  0.6571640000000  0.6733190000000  0.5895170000000 1.0
END
