TITL C-3036486-2224-776 -0.00170951238743958 3375 -356.078910763751 0 0 60 (C1) n - 1
REM
REM in /home/bkarasulu/work/CARBON/AIRSS/Generating-Clusters/REBO/Higher-Symm/Only-C60
REM
REM
REM
REM
REM
REM ./C.cell (a2850807a9bf4ad07a5b6933b78d9264)
REM AIRSS Version 0.9.1 bugfix July 2018 build 013d7b7c2542+ Fri, 06 Jul 2018 19:26:36 +0100
REM compiler GCC version 9.2.1 20190827 (Red Hat 9.2.1-1)
REM options -cpp -mtune=generic -march=x86-64 -g -O0 -fpre-include=/usr/include/finclude/math-vector-fortran.h
REM seed 1374228090 -1358780613 424901952 -721444284 261031472 213540224 854392624 -803508147 629780223 -173462079 1156802158 -1020642285 -1850244501 -1268845762 -1931229641 1792216892 -796809918 -729563447 1447477397 20071106 -1847989429 -1552370105 -1949316552 1258329469 1204775475 1098835429 1049717393 -327116789 1658608835 -1243078725 1894405525 -1204863066 863202611
REM
CELL 1.54180   15.00000   15.00000   15.00000   90.00000   90.00000   90.00000
LATT -1
SFAC C  
C      1  0.6746490000000  0.4498300000000  0.4189080000000 1.0
C      1  0.4534730000000  0.6757710000000  0.4095580000000 1.0
C      1  0.3617250000000  0.3549440000000  0.4076430000000 1.0
C      1  0.5428250000000  0.4027670000000  0.4666070000000 1.0
C      1  0.5600750000000  0.5826440000000  0.4849820000000 1.0
C      1  0.3931010000000  0.5109080000000  0.4585710000000 1.0
C      1  0.4944580000000  0.3030130000000  0.3927660000000 1.0
C      1  0.6713220000000  0.5977190000000  0.3915120000000 1.0
C      1  0.3305190000000  0.6056840000000  0.3890470000000 1.0
C      1  0.4977490000000  0.2810030000000  0.4880060000000 1.0
C      1  0.6896620000000  0.6100650000000  0.4853880000000 1.0
C      1  0.3134560000000  0.6130080000000  0.4844680000000 1.0
C      1  0.3032470000000  0.4802900000000  0.6149780000000 1.0
C      1  0.6229090000000  0.3461910000000  0.6114800000000 1.0
C      1  0.5772280000000  0.6827780000000  0.6183210000000 1.0
C      1  0.7531140000000  0.4684890000000  0.4616560000000 1.0
C      1  0.4058760000000  0.7360260000000  0.4593440000000 1.0
C      1  0.3427140000000  0.2903320000000  0.4679600000000 1.0
C      1  0.4123150000000  0.2803940000000  0.5329510000000 1.0
C      1  0.7381460000000  0.5374020000000  0.5268820000000 1.0
C      1  0.3570170000000  0.6885190000000  0.5272860000000 1.0
C      1  0.4911780000000  0.5569360000000  0.6745620000000 1.0
C      1  0.4595440000000  0.4482780000000  0.6644370000000 1.0
C      1  0.5685110000000  0.4743570000000  0.6851170000000 1.0
C      1  0.6003610000000  0.4887850000000  0.4773970000000 1.0
C      1  0.4590750000000  0.5925840000000  0.4650600000000 1.0
C      1  0.4369480000000  0.4165500000000  0.4452750000000 1.0
C      1  0.4578750000000  0.4511360000000  0.3031180000000 1.0
C      1  0.5652000000000  0.4895560000000  0.3005110000000 1.0
C      1  0.4778700000000  0.5634250000000  0.2977170000000 1.0
C      1  0.6071560000000  0.6703700000000  0.5228470000000 1.0
C      1  0.2994160000000  0.5103540000000  0.5181290000000 1.0
C      1  0.5948460000000  0.3212950000000  0.5170720000000 1.0
C      1  0.5678460000000  0.3037040000000  0.6760870000000 1.0
C      1  0.6449500000000  0.6575820000000  0.6797380000000 1.0
C      1  0.2920510000000  0.5518300000000  0.6757380000000 1.0
C      1  0.3561310000000  0.4415180000000  0.3352760000000 1.0
C      1  0.6249070000000  0.4054280000000  0.3345760000000 1.0
C      1  0.5221150000000  0.6593300000000  0.3276000000000 1.0
C      1  0.5204390000000  0.3709180000000  0.3380330000000 1.0
C      1  0.6032290000000  0.5850910000000  0.3331300000000 1.0
C      1  0.3760050000000  0.5504190000000  0.3327610000000 1.0
C      1  0.3309700000000  0.6342840000000  0.6766000000000 1.0
C      1  0.4771400000000  0.2962330000000  0.6802400000000 1.0
C      1  0.7007770000000  0.5853250000000  0.6764720000000 1.0
C      1  0.5617260000000  0.7465480000000  0.3785550000000 1.0
C      1  0.2573240000000  0.4316850000000  0.3786740000000 1.0
C      1  0.6831020000000  0.3242360000000  0.3757490000000 1.0
C      1  0.2355510000000  0.4571900000000  0.4555010000000 1.0
C      1  0.6706410000000  0.2925060000000  0.4524300000000 1.0
C      1  0.5897610000000  0.7486380000000  0.4572740000000 1.0
C      1  0.3590760000000  0.4084560000000  0.6425120000000 1.0
C      1  0.6553370000000  0.4346630000000  0.6369210000000 1.0
C      1  0.4870400000000  0.6566010000000  0.6391050000000 1.0
C      1  0.5496070000000  0.4843990000000  0.5737360000000 1.0
C      1  0.4596780000000  0.5491240000000  0.5657820000000 1.0
C      1  0.4504170000000  0.4367200000000  0.5515550000000 1.0
C      1  0.7119260000000  0.5114560000000  0.6169810000000 1.0
C      1  0.3933850000000  0.6755040000000  0.6172060000000 1.0
C      1  0.4053120000000  0.3192050000000  0.6222130000000 1.0
END
