TITL C-3036482-790-1002 6.32901188470304e-06 3375 -334.673346974621 0 0 60 (T23) n - 1
REM
REM in /home/bkarasulu/work/CARBON/AIRSS/Generating-Clusters/REBO/Higher-Symm/Only-C60
REM
REM
REM
REM
REM
REM ./C.cell (a2850807a9bf4ad07a5b6933b78d9264)
REM AIRSS Version 0.9.1 bugfix July 2018 build 013d7b7c2542+ Fri, 06 Jul 2018 19:26:36 +0100
REM compiler GCC version 9.2.1 20190827 (Red Hat 9.2.1-1)
REM options -cpp -mtune=generic -march=x86-64 -g -O0 -fpre-include=/usr/include/finclude/math-vector-fortran.h
REM seed 329161116 1242155492 -1260375461 -620748225 -892283904 -2100079945 1011971453 -1723836241 -674098650 1131230299 674398580 -617353404 -2141296036 -1758865395 -1941684120 -46306582 2117298903 -1021469581 2145554343 1216886466 -1822909965 44647115 833724998 -941677175 858169675 1647534636 -1894642731 1837128311 -1411493679 -1485210038 -1344704461 884280648 -1569055696
REM
CELL 1.54180   15.00000   15.00000   15.00000   90.00000   90.00000   90.00000
LATT -1
SFAC C  
C      1  0.5750260000000  0.6618180000000  0.3511420000000 1.0
C      1  0.3511420000000  0.5750260000000  0.6618180000000 1.0
C      1  0.6618180000000  0.3511420000000  0.5750260000000 1.0
C      1  0.5750260000000  0.3381820000000  0.6488580000000 1.0
C      1  0.4249740000000  0.3381820000000  0.3511420000000 1.0
C      1  0.4249740000000  0.6618180000000  0.6488580000000 1.0
C      1  0.3511420000000  0.4249740000000  0.3381820000000 1.0
C      1  0.6488580000000  0.4249740000000  0.6618180000000 1.0
C      1  0.6488580000000  0.5750260000000  0.3381820000000 1.0
C      1  0.6618180000000  0.6488580000000  0.4249740000000 1.0
C      1  0.3381820000000  0.6488580000000  0.5750260000000 1.0
C      1  0.3381820000000  0.3511420000000  0.4249740000000 1.0
C      1  0.4657650000000  0.6098440000000  0.5336920000000 1.0
C      1  0.5336920000000  0.4657650000000  0.6098440000000 1.0
C      1  0.6098440000000  0.5336920000000  0.4657650000000 1.0
C      1  0.4657650000000  0.3901560000000  0.4663080000000 1.0
C      1  0.5342350000000  0.3901560000000  0.5336920000000 1.0
C      1  0.5342350000000  0.6098440000000  0.4663080000000 1.0
C      1  0.5336920000000  0.5342350000000  0.3901560000000 1.0
C      1  0.4663080000000  0.5342350000000  0.6098440000000 1.0
C      1  0.4663080000000  0.4657650000000  0.3901560000000 1.0
C      1  0.6098440000000  0.4663080000000  0.5342350000000 1.0
C      1  0.3901560000000  0.4663080000000  0.4657650000000 1.0
C      1  0.3901560000000  0.5336920000000  0.5342350000000 1.0
C      1  0.6849710000000  0.4730330000000  0.3746640000000 1.0
C      1  0.3746640000000  0.6849710000000  0.4730330000000 1.0
C      1  0.4730330000000  0.3746640000000  0.6849710000000 1.0
C      1  0.6849710000000  0.5269670000000  0.6253360000000 1.0
C      1  0.3150290000000  0.5269670000000  0.3746640000000 1.0
C      1  0.3150290000000  0.4730330000000  0.6253360000000 1.0
C      1  0.3746640000000  0.3150290000000  0.5269670000000 1.0
C      1  0.6253360000000  0.3150290000000  0.4730330000000 1.0
C      1  0.6253360000000  0.6849710000000  0.5269670000000 1.0
C      1  0.4730330000000  0.6253360000000  0.3150290000000 1.0
C      1  0.5269670000000  0.6253360000000  0.6849710000000 1.0
C      1  0.5269670000000  0.3746640000000  0.3150290000000 1.0
C      1  0.5464300000000  0.3080420000000  0.3999920000000 1.0
C      1  0.3999920000000  0.5464300000000  0.3080420000000 1.0
C      1  0.3080420000000  0.3999920000000  0.5464300000000 1.0
C      1  0.5464300000000  0.6919580000000  0.6000080000000 1.0
C      1  0.4535700000000  0.6919580000000  0.3999920000000 1.0
C      1  0.4535700000000  0.3080420000000  0.6000080000000 1.0
C      1  0.3999920000000  0.4535700000000  0.6919580000000 1.0
C      1  0.6000080000000  0.4535700000000  0.3080420000000 1.0
C      1  0.6000080000000  0.5464300000000  0.6919580000000 1.0
C      1  0.3080420000000  0.6000080000000  0.4535700000000 1.0
C      1  0.6919580000000  0.6000080000000  0.5464300000000 1.0
C      1  0.6919580000000  0.3999920000000  0.4535700000000 1.0
C      1  0.7186650000000  0.4461690000000  0.5522980000000 1.0
C      1  0.5522980000000  0.7186650000000  0.4461690000000 1.0
C      1  0.4461690000000  0.5522980000000  0.7186650000000 1.0
C      1  0.7186650000000  0.5538310000000  0.4477020000000 1.0
C      1  0.2813350000000  0.5538310000000  0.5522980000000 1.0
C      1  0.2813350000000  0.4461690000000  0.4477020000000 1.0
C      1  0.5522980000000  0.2813350000000  0.5538310000000 1.0
C      1  0.4477020000000  0.2813350000000  0.4461690000000 1.0
C      1  0.4477020000000  0.7186650000000  0.5538310000000 1.0
C      1  0.4461690000000  0.4477020000000  0.2813350000000 1.0
C      1  0.5538310000000  0.4477020000000  0.7186650000000 1.0
C      1  0.5538310000000  0.5522980000000  0.2813350000000 1.0
END
