TITL C-3036483-1610-206 9.27877640543788e-06 3375 -357.832633497993 0 0 60 (C1) n - 1
REM
REM in /home/bkarasulu/work/CARBON/AIRSS/Generating-Clusters/REBO/Higher-Symm/Only-C60
REM
REM
REM
REM
REM
REM ./C.cell (a2850807a9bf4ad07a5b6933b78d9264)
REM AIRSS Version 0.9.1 bugfix July 2018 build 013d7b7c2542+ Fri, 06 Jul 2018 19:26:36 +0100
REM compiler GCC version 9.2.1 20190827 (Red Hat 9.2.1-1)
REM options -cpp -mtune=generic -march=x86-64 -g -O0 -fpre-include=/usr/include/finclude/math-vector-fortran.h
REM seed -851430799 414803286 1018585454 -109203033 -1976815984 2084542545 -1458501072 -706954119 -1608377745 -1089353303 920150179 881252876 -1474821133 -1062910502 19151215 218524909 -232197406 140330021 1865935907 -35557533 2108682161 -1997034030 1738234138 -365676524 878655040 909560791 560461079 -985947420 570323029 -402964459 -422486304 -1488389506 1979349312
REM
CELL 1.54180   15.00000   15.00000   15.00000   90.00000   90.00000   90.00000
LATT -1
SFAC C  
C      1  0.6440080000000  0.4806830000000  0.4547510000000 1.0
C      1  0.6468060000000  0.3430090000000  0.3345390000000 1.0
C      1  0.6691620000000  0.4522530000000  0.6247710000000 1.0
C      1  0.6288080000000  0.5918710000000  0.3483320000000 1.0
C      1  0.3207160000000  0.5240780000000  0.6607920000000 1.0
C      1  0.4852320000000  0.7868870000000  0.4035480000000 1.0
C      1  0.6164170000000  0.6593090000000  0.6843430000000 1.0
C      1  0.4909900000000  0.7471830000000  0.4964890000000 1.0
C      1  0.4140030000000  0.2942660000000  0.6084510000000 1.0
C      1  0.6030680000000  0.5656620000000  0.7336510000000 1.0
C      1  0.5289410000000  0.6138730000000  0.3841180000000 1.0
C      1  0.5161350000000  0.5299710000000  0.7121230000000 1.0
C      1  0.3077950000000  0.5829620000000  0.6042440000000 1.0
C      1  0.7529770000000  0.5437460000000  0.4963590000000 1.0
C      1  0.4799010000000  0.5205260000000  0.4193250000000 1.0
C      1  0.4727570000000  0.5934320000000  0.6381770000000 1.0
C      1  0.5131680000000  0.4303220000000  0.6959540000000 1.0
C      1  0.4525460000000  0.4966070000000  0.2789610000000 1.0
C      1  0.3764640000000  0.5389920000000  0.3037060000000 1.0
C      1  0.3224280000000  0.6000370000000  0.5054160000000 1.0
C      1  0.7135240000000  0.4478950000000  0.5323630000000 1.0
C      1  0.5202420000000  0.4056120000000  0.5246270000000 1.0
C      1  0.3479310000000  0.4307370000000  0.6329980000000 1.0
C      1  0.3513450000000  0.3319850000000  0.5442200000000 1.0
C      1  0.7226090000000  0.3460190000000  0.3929760000000 1.0
C      1  0.4308830000000  0.3632510000000  0.4852130000000 1.0
C      1  0.6957690000000  0.3604980000000  0.4796490000000 1.0
C      1  0.5447900000000  0.6703240000000  0.5031900000000 1.0
C      1  0.6514040000000  0.5009240000000  0.3608160000000 1.0
C      1  0.5519310000000  0.4931260000000  0.4926170000000 1.0
C      1  0.3431200000000  0.6748880000000  0.3869390000000 1.0
C      1  0.3323520000000  0.3883790000000  0.3991090000000 1.0
C      1  0.4933670000000  0.2721620000000  0.5597840000000 1.0
C      1  0.5682580000000  0.2962880000000  0.3895160000000 1.0
C      1  0.6712750000000  0.5403990000000  0.6618300000000 1.0
C      1  0.4757570000000  0.2712590000000  0.4473310000000 1.0
C      1  0.6000620000000  0.3890400000000  0.6498430000000 1.0
C      1  0.6164520000000  0.4305170000000  0.3041650000000 1.0
C      1  0.5977160000000  0.3296000000000  0.4916130000000 1.0
C      1  0.4569200000000  0.4200420000000  0.6027640000000 1.0
C      1  0.2774180000000  0.4401040000000  0.4583100000000 1.0
C      1  0.4878590000000  0.3463150000000  0.3384800000000 1.0
C      1  0.6800050000000  0.6282170000000  0.6039580000000 1.0
C      1  0.3365620000000  0.7047850000000  0.4871600000000 1.0
C      1  0.2843310000000  0.4031440000000  0.5474040000000 1.0
C      1  0.5203520000000  0.4328330000000  0.2893810000000 1.0
C      1  0.3929140000000  0.3045740000000  0.3743840000000 1.0
C      1  0.2776380000000  0.5330990000000  0.4390140000000 1.0
C      1  0.5022100000000  0.5784730000000  0.5381080000000 1.0
C      1  0.5798070000000  0.3114810000000  0.5965450000000 1.0
C      1  0.3172390000000  0.5845800000000  0.3626580000000 1.0
C      1  0.5264600000000  0.6893820000000  0.6634680000000 1.0
C      1  0.4197060000000  0.3652400000000  0.6937640000000 1.0
C      1  0.6258860000000  0.6447360000000  0.4448390000000 1.0
C      1  0.4245310000000  0.6960820000000  0.6295370000000 1.0
C      1  0.4076170000000  0.7374510000000  0.5442250000000 1.0
C      1  0.4507430000000  0.6848810000000  0.3859760000000 1.0
C      1  0.6999110000000  0.6177550000000  0.5119210000000 1.0
C      1  0.4359130000000  0.4309100000000  0.3947530000000 1.0
C      1  0.4248660000000  0.6073420000000  0.4664980000000 1.0
END
