TITL C-3036481-494-279 -2.53866580030316e-06 3375 -347.877866082222 0 0 60 (C5) n - 1
REM
REM in /home/bkarasulu/work/CARBON/AIRSS/Generating-Clusters/REBO/Higher-Symm/Only-C60
REM
REM
REM
REM
REM
REM ./C.cell (a2850807a9bf4ad07a5b6933b78d9264)
REM AIRSS Version 0.9.1 bugfix July 2018 build 013d7b7c2542+ Fri, 06 Jul 2018 19:26:36 +0100
REM compiler GCC version 9.2.1 20190827 (Red Hat 9.2.1-1)
REM options -cpp -mtune=generic -march=x86-64 -g -O0 -fpre-include=/usr/include/finclude/math-vector-fortran.h
REM seed 2004956570 -1006930428 860071633 2059868128 332977338 539591103 -1881681515 -1631934139 -636721345 427275120 -69449314 -854604731 -84945828 1870582118 -553382080 -137563785 216537312 774790011 1949591336 -328692657 -1787832946 541854441 -1976796237 1559078494 113484693 -936103469 -1586533393 14195349 -459293840 2038213287 -2000831549 157996667 90731195
REM
CELL 1.54180   15.00000   15.00000   15.00000   90.00000   90.00000   90.00000
LATT -1
SFAC C  
C      1  0.5151600000000  0.5503950000000  0.7540370000000 1.0
C      1  0.5151590000000  0.7571760000000  0.5305740000000 1.0
C      1  0.5151680000000  0.6085490000000  0.2648590000000 1.0
C      1  0.5151760000000  0.3099110000000  0.3241010000000 1.0
C      1  0.5151710000000  0.2739700000000  0.6264300000000 1.0
C      1  0.5952200000000  0.3086440000000  0.5563330000000 1.0
C      1  0.5952120000000  0.4944440000000  0.6994020000000 1.0
C      1  0.5952090000000  0.6879260000000  0.5669070000000 1.0
C      1  0.5952150000000  0.6217040000000  0.3419510000000 1.0
C      1  0.5952220000000  0.3872960000000  0.3354160000000 1.0
C      1  0.3361820000000  0.3109430000000  0.5042650000000 1.0
C      1  0.3361740000000  0.4456320000000  0.6811170000000 1.0
C      1  0.3361690000000  0.6554510000000  0.6076680000000 1.0
C      1  0.3361740000000  0.6504330000000  0.3854220000000 1.0
C      1  0.3361820000000  0.4375160000000  0.3215170000000 1.0
C      1  0.4018740000000  0.6918710000000  0.3601100000000 1.0
C      1  0.4018830000000  0.4262480000000  0.2742880000000 1.0
C      1  0.4018830000000  0.2625440000000  0.5003890000000 1.0
C      1  0.4018740000000  0.4269900000000  0.7259510000000 1.0
C      1  0.4018680000000  0.6923310000000  0.6392550000000 1.0
C      1  0.5548600000000  0.6986690000000  0.4413570000000 1.0
C      1  0.5548680000000  0.5056200000000  0.2929350000000 1.0
C      1  0.5548710000000  0.3048070000000  0.4306710000000 1.0
C      1  0.5548650000000  0.3737460000000  0.6642180000000 1.0
C      1  0.5548580000000  0.6171670000000  0.6708230000000 1.0
C      1  0.5036550000000  0.6887600000000  0.3452770000000 1.0
C      1  0.5036640000000  0.4111800000000  0.2726670000000 1.0
C      1  0.5036640000000  0.2563470000000  0.5142230000000 1.0
C      1  0.5036540000000  0.4382340000000  0.7361230000000 1.0
C      1  0.5036480000000  0.7054800000000  0.6317090000000 1.0
C      1  0.6581640000000  0.6571550000000  0.4534870000000 1.0
C      1  0.6581710000000  0.5043270000000  0.3361690000000 1.0
C      1  0.6581730000000  0.3455250000000  0.4452640000000 1.0
C      1  0.6581680000000  0.4002090000000  0.6300060000000 1.0
C      1  0.6581620000000  0.5928070000000  0.6350880000000 1.0
C      1  0.4014580000000  0.5920920000000  0.5101280000000 1.0
C      1  0.4014610000000  0.5380910000000  0.4155400000000 1.0
C      1  0.4014630000000  0.4314450000000  0.4376700000000 1.0
C      1  0.4014620000000  0.4195360000000  0.5459350000000 1.0
C      1  0.4014590000000  0.5188220000000  0.5907160000000 1.0
C      1  0.5710420000000  0.5484720000000  0.4260610000000 1.0
C      1  0.5710460000000  0.4446590000000  0.4310540000000 1.0
C      1  0.5710450000000  0.4173280000000  0.5313300000000 1.0
C      1  0.5710410000000  0.5042500000000  0.5883100000000 1.0
C      1  0.5710400000000  0.5853020000000  0.5232500000000 1.0
C      1  0.2925560000000  0.5684580000000  0.4379590000000 1.0
C      1  0.2925590000000  0.4621500000000  0.4157140000000 1.0
C      1  0.2925600000000  0.4081410000000  0.5099440000000 1.0
C      1  0.2925570000000  0.4810700000000  0.5904280000000 1.0
C      1  0.2925540000000  0.5801520000000  0.5459390000000 1.0
C      1  0.4801110000000  0.6497200000000  0.5130550000000 1.0
C      1  0.4801160000000  0.5586830000000  0.3616410000000 1.0
C      1  0.4801200000000  0.3865470000000  0.4014330000000 1.0
C      1  0.4801180000000  0.3711990000000  0.5774400000000 1.0
C      1  0.4801120000000  0.5338490000000  0.6464260000000 1.0
C      1  0.6896950000000  0.6396810000000  0.5495460000000 1.0
C      1  0.6896990000000  0.5902850000000  0.3824740000000 1.0
C      1  0.6897040000000  0.4161260000000  0.3778240000000 1.0
C      1  0.6897030000000  0.3578850000000  0.5420220000000 1.0
C      1  0.6896970000000  0.4960500000000  0.6481520000000 1.0
END
