TITL C-3036484-3770-290 -3.89256942149144e-06 3375 -352.013797074821 0 0 60 (C4h) n - 1
REM
REM in /home/bkarasulu/work/CARBON/AIRSS/Generating-Clusters/REBO/Higher-Symm/Only-C60
REM
REM
REM
REM
REM
REM ./C.cell (a2850807a9bf4ad07a5b6933b78d9264)
REM AIRSS Version 0.9.1 bugfix July 2018 build 013d7b7c2542+ Fri, 06 Jul 2018 19:26:36 +0100
REM compiler GCC version 9.2.1 20190827 (Red Hat 9.2.1-1)
REM options -cpp -mtune=generic -march=x86-64 -g -O0 -fpre-include=/usr/include/finclude/math-vector-fortran.h
REM seed -555306567 -1066234725 1335594011 994353269 653435540 736743236 1065159448 -995350514 1731880572 -1617774293 -137626483 1750858925 -1582625576 937980594 787438432 1979653377 623870942 -1605194834 -366753435 -1402608200 -14664323 358490104 -87986567 -1446063238 608370627 1397352342 1824610793 -940058258 -1589963842 -347285907 -1747653535 -137230359 1944908985
REM
CELL 1.54180   15.00000   15.00000   15.00000   90.00000   90.00000   90.00000
LATT -1
SFAC C  
C      1  0.5663580000000  0.2809300000000  0.5454530000000 1.0
C      1  0.4545470000000  0.2809300000000  0.5663580000000 1.0
C      1  0.4336420000000  0.2809300000000  0.4545470000000 1.0
C      1  0.5454530000000  0.2809300000000  0.4336420000000 1.0
C      1  0.5663580000000  0.7083680000000  0.5454530000000 1.0
C      1  0.4545470000000  0.7083680000000  0.5663580000000 1.0
C      1  0.4336420000000  0.7083680000000  0.4545470000000 1.0
C      1  0.5454530000000  0.7083680000000  0.4336420000000 1.0
C      1  0.4291750000000  0.4392200000000  0.5377040000000 1.0
C      1  0.4622960000000  0.4392200000000  0.4291750000000 1.0
C      1  0.5708250000000  0.4392200000000  0.4622960000000 1.0
C      1  0.5377040000000  0.4392200000000  0.5708250000000 1.0
C      1  0.4291750000000  0.5500780000000  0.5377040000000 1.0
C      1  0.4622960000000  0.5500780000000  0.4291750000000 1.0
C      1  0.5708250000000  0.5500780000000  0.4622960000000 1.0
C      1  0.5377040000000  0.5500780000000  0.5708250000000 1.0
C      1  0.6103690000000  0.4112180000000  0.6474700000000 1.0
C      1  0.3525300000000  0.4112180000000  0.6103690000000 1.0
C      1  0.3896310000000  0.4112180000000  0.3525300000000 1.0
C      1  0.6474700000000  0.4112180000000  0.3896310000000 1.0
C      1  0.6103690000000  0.5780800000000  0.6474700000000 1.0
C      1  0.3525300000000  0.5780800000000  0.6103690000000 1.0
C      1  0.3896310000000  0.5780800000000  0.3525300000000 1.0
C      1  0.6474700000000  0.5780800000000  0.3896310000000 1.0
C      1  0.6462970000000  0.6841170000000  0.3942150000000 1.0
C      1  0.6057850000000  0.6841170000000  0.6462970000000 1.0
C      1  0.3537030000000  0.6841170000000  0.6057850000000 1.0
C      1  0.3942150000000  0.6841170000000  0.3537030000000 1.0
C      1  0.6462970000000  0.3051810000000  0.3942150000000 1.0
C      1  0.6057850000000  0.3051810000000  0.6462970000000 1.0
C      1  0.3537030000000  0.3051810000000  0.6057850000000 1.0
C      1  0.3942150000000  0.3051810000000  0.3537030000000 1.0
C      1  0.6525150000000  0.6590080000000  0.4951060000000 1.0
C      1  0.5048940000000  0.6590080000000  0.6525150000000 1.0
C      1  0.3474850000000  0.6590080000000  0.5048940000000 1.0
C      1  0.4951060000000  0.6590080000000  0.3474850000000 1.0
C      1  0.6525150000000  0.3302900000000  0.4951060000000 1.0
C      1  0.5048940000000  0.3302900000000  0.6525150000000 1.0
C      1  0.3474850000000  0.3302900000000  0.5048940000000 1.0
C      1  0.4951060000000  0.3302900000000  0.3474850000000 1.0
C      1  0.5996530000000  0.5418820000000  0.3080310000000 1.0
C      1  0.6919690000000  0.5418820000000  0.5996530000000 1.0
C      1  0.4003470000000  0.5418820000000  0.6919690000000 1.0
C      1  0.3080310000000  0.5418820000000  0.4003470000000 1.0
C      1  0.5996530000000  0.4474160000000  0.3080310000000 1.0
C      1  0.6919690000000  0.4474160000000  0.5996530000000 1.0
C      1  0.4003470000000  0.4474160000000  0.6919690000000 1.0
C      1  0.3080310000000  0.4474160000000  0.4003470000000 1.0
C      1  0.4870050000000  0.5782680000000  0.6977580000000 1.0
C      1  0.3022420000000  0.5782680000000  0.4870050000000 1.0
C      1  0.5129950000000  0.5782680000000  0.3022420000000 1.0
C      1  0.6977580000000  0.5782680000000  0.5129950000000 1.0
C      1  0.4870050000000  0.4110300000000  0.6977580000000 1.0
C      1  0.3022420000000  0.4110300000000  0.4870050000000 1.0
C      1  0.5129950000000  0.4110300000000  0.3022420000000 1.0
C      1  0.6977580000000  0.4110300000000  0.5129950000000 1.0
C      1  0.2978830000000  0.4946490000000  0.5588640000000 1.0
C      1  0.7021170000000  0.4946490000000  0.4411360000000 1.0
C      1  0.4411360000000  0.4946490000000  0.2978830000000 1.0
C      1  0.5588640000000  0.4946490000000  0.7021170000000 1.0
END
