TITL C-3036483-1610-232 -2.06721171175848e-07 3375 -333.944578347619 0 0 60 (Td) n - 1
REM
REM in /home/bkarasulu/work/CARBON/AIRSS/Generating-Clusters/REBO/Higher-Symm/Only-C60
REM
REM
REM
REM
REM
REM ./C.cell (a2850807a9bf4ad07a5b6933b78d9264)
REM AIRSS Version 0.9.1 bugfix July 2018 build 013d7b7c2542+ Fri, 06 Jul 2018 19:26:36 +0100
REM compiler GCC version 9.2.1 20190827 (Red Hat 9.2.1-1)
REM options -cpp -mtune=generic -march=x86-64 -g -O0 -fpre-include=/usr/include/finclude/math-vector-fortran.h
REM seed 1999463100 -1029741258 -1716321278 -1085420290 1103746336 1819680295 1794146453 45918733 1794534207 848869916 348180174 724483884 945361238 682516968 1557771444 -933989632 -461779247 -1921421607 -11607767 1732781421 1798240315 -1909589655 775428817 2069963937 -378484683 -1802588719 -1891855833 843605968 1690872808 -1277601538 -1241966724 -157063498 -1958880796
REM
CELL 1.54180   15.00000   15.00000   15.00000   90.00000   90.00000   90.00000
LATT -1
SFAC C  
C      1  0.4232200000000  0.7256630000000  0.4964230000000 1.0
C      1  0.4964230000000  0.4232200000000  0.7256630000000 1.0
C      1  0.7256630000000  0.4964230000000  0.4232200000000 1.0
C      1  0.4232200000000  0.2743370000000  0.5035770000000 1.0
C      1  0.5767800000000  0.2743370000000  0.4964230000000 1.0
C      1  0.5767800000000  0.7256630000000  0.5035770000000 1.0
C      1  0.4964230000000  0.5767800000000  0.2743370000000 1.0
C      1  0.5035770000000  0.5767800000000  0.7256630000000 1.0
C      1  0.5035770000000  0.4232200000000  0.2743370000000 1.0
C      1  0.7256630000000  0.5035770000000  0.5767800000000 1.0
C      1  0.2743370000000  0.5035770000000  0.4232200000000 1.0
C      1  0.2743370000000  0.4964230000000  0.5767800000000 1.0
C      1  0.4232200000000  0.4964230000000  0.7256630000000 1.0
C      1  0.4964230000000  0.7256630000000  0.4232200000000 1.0
C      1  0.7256630000000  0.4232200000000  0.4964230000000 1.0
C      1  0.4232200000000  0.5035770000000  0.2743370000000 1.0
C      1  0.5767800000000  0.4964230000000  0.2743370000000 1.0
C      1  0.5767800000000  0.5035770000000  0.7256630000000 1.0
C      1  0.4964230000000  0.2743370000000  0.5767800000000 1.0
C      1  0.5035770000000  0.7256630000000  0.5767800000000 1.0
C      1  0.5035770000000  0.2743370000000  0.4232200000000 1.0
C      1  0.7256630000000  0.5767800000000  0.5035770000000 1.0
C      1  0.2743370000000  0.4232200000000  0.5035770000000 1.0
C      1  0.2743370000000  0.5767800000000  0.4964230000000 1.0
C      1  0.3468580000000  0.7315860000000  0.5807670000000 1.0
C      1  0.5807670000000  0.3468580000000  0.7315860000000 1.0
C      1  0.7315860000000  0.5807670000000  0.3468580000000 1.0
C      1  0.3468580000000  0.2684140000000  0.4192330000000 1.0
C      1  0.6531420000000  0.2684140000000  0.5807670000000 1.0
C      1  0.6531420000000  0.7315860000000  0.4192330000000 1.0
C      1  0.5807670000000  0.6531420000000  0.2684140000000 1.0
C      1  0.4192330000000  0.6531420000000  0.7315860000000 1.0
C      1  0.4192330000000  0.3468580000000  0.2684140000000 1.0
C      1  0.7315860000000  0.4192330000000  0.6531420000000 1.0
C      1  0.2684140000000  0.4192330000000  0.3468580000000 1.0
C      1  0.2684140000000  0.5807670000000  0.6531420000000 1.0
C      1  0.3468580000000  0.5807670000000  0.7315860000000 1.0
C      1  0.5807670000000  0.7315860000000  0.3468580000000 1.0
C      1  0.7315860000000  0.3468580000000  0.5807670000000 1.0
C      1  0.3468580000000  0.4192330000000  0.2684140000000 1.0
C      1  0.6531420000000  0.5807670000000  0.2684140000000 1.0
C      1  0.6531420000000  0.4192330000000  0.7315860000000 1.0
C      1  0.5807670000000  0.2684140000000  0.6531420000000 1.0
C      1  0.4192330000000  0.7315860000000  0.6531420000000 1.0
C      1  0.4192330000000  0.2684140000000  0.3468580000000 1.0
C      1  0.7315860000000  0.6531420000000  0.4192330000000 1.0
C      1  0.2684140000000  0.3468580000000  0.4192330000000 1.0
C      1  0.2684140000000  0.6531420000000  0.5807670000000 1.0
C      1  0.4853170000000  0.6716620000000  0.3283380000000 1.0
C      1  0.3283380000000  0.4853170000000  0.6716620000000 1.0
C      1  0.6716620000000  0.3283380000000  0.4853170000000 1.0
C      1  0.4853170000000  0.3283380000000  0.6716620000000 1.0
C      1  0.5146830000000  0.6716620000000  0.6716620000000 1.0
C      1  0.6716620000000  0.5146830000000  0.6716620000000 1.0
C      1  0.6716620000000  0.4853170000000  0.3283380000000 1.0
C      1  0.3283380000000  0.6716620000000  0.4853170000000 1.0
C      1  0.6716620000000  0.6716620000000  0.5146830000000 1.0
C      1  0.3283380000000  0.3283380000000  0.5146830000000 1.0
C      1  0.5146830000000  0.3283380000000  0.3283380000000 1.0
C      1  0.3283380000000  0.5146830000000  0.3283380000000 1.0
END
