TITL C-3036483-1610-902 -0.0718912851780132 3375 -347.90876774102 0 0 60 (C1) n - 1
REM
REM in /home/bkarasulu/work/CARBON/AIRSS/Generating-Clusters/REBO/Higher-Symm/Only-C60
REM
REM
REM
REM
REM
REM ./C.cell (a2850807a9bf4ad07a5b6933b78d9264)
REM AIRSS Version 0.9.1 bugfix July 2018 build 013d7b7c2542+ Fri, 06 Jul 2018 19:26:36 +0100
REM compiler GCC version 9.2.1 20190827 (Red Hat 9.2.1-1)
REM options -cpp -mtune=generic -march=x86-64 -g -O0 -fpre-include=/usr/include/finclude/math-vector-fortran.h
REM seed 1847750102 -1555988621 2033050981 371919126 -573011251 -2023672594 -1907618165 1272431041 1020492842 1219425606 1238305143 101185631 2043840755 -418392721 -854938510 -1002679321 1597474440 -2019084009 870201904 -1859796911 -136364104 2041829963 -1731439642 -1017907761 -2101864976 989422468 1949920459 1862365598 -43283186 -976822442 -1411688287 -1723452259 -1599770622
REM
CELL 1.54180   15.00000   15.00000   15.00000   90.00000   90.00000   90.00000
LATT -1
SFAC C  
C      1  0.2884680000000  0.5697210000000  0.3353970000000 1.0
C      1  0.2873210000000  0.4317110000000  0.6652350000000 1.0
C      1  0.7113670000000  0.5738600000000  0.3368310000000 1.0
C      1  0.7025070000000  0.4671980000000  0.6600220000000 1.0
C      1  0.2971490000000  0.5365420000000  0.6591750000000 1.0
C      1  0.2967300000000  0.4646550000000  0.3411710000000 1.0
C      1  0.7141460000000  0.5709730000000  0.6723190000000 1.0
C      1  0.7028680000000  0.4686040000000  0.3422320000000 1.0
C      1  0.5487650000000  0.5860840000000  0.6423240000000 1.0
C      1  0.5479580000000  0.4095610000000  0.3562370000000 1.0
C      1  0.4527760000000  0.5905140000000  0.6415470000000 1.0
C      1  0.4514860000000  0.4074320000000  0.3579990000000 1.0
C      1  0.5478390000000  0.5783460000000  0.3658000000000 1.0
C      1  0.5469680000000  0.4169530000000  0.6367580000000 1.0
C      1  0.4530950000000  0.5767010000000  0.3637890000000 1.0
C      1  0.4518350000000  0.4210050000000  0.6378990000000 1.0
C      1  0.4247650000000  0.4372630000000  0.4475960000000 1.0
C      1  0.4251690000000  0.5606700000000  0.5525590000000 1.0
C      1  0.5747420000000  0.4376150000000  0.4457740000000 1.0
C      1  0.5751620000000  0.5542670000000  0.5542250000000 1.0
C      1  0.4238710000000  0.4552650000000  0.5500930000000 1.0
C      1  0.4234310000000  0.5425090000000  0.4506550000000 1.0
C      1  0.5754230000000  0.4500100000000  0.5481590000000 1.0
C      1  0.5774900000000  0.5419100000000  0.4524650000000 1.0
C      1  0.6562190000000  0.6493180000000  0.4445930000000 1.0
C      1  0.6562120000000  0.3440840000000  0.5480080000000 1.0
C      1  0.3401760000000  0.6459350000000  0.4593890000000 1.0
C      1  0.3382610000000  0.3540420000000  0.5404940000000 1.0
C      1  0.6645300000000  0.6520180000000  0.5429040000000 1.0
C      1  0.6615030000000  0.3368720000000  0.4499180000000 1.0
C      1  0.3425250000000  0.6651820000000  0.5564290000000 1.0
C      1  0.3396530000000  0.3349010000000  0.4432820000000 1.0
C      1  0.7080640000000  0.4415380000000  0.5566700000000 1.0
C      1  0.7107550000000  0.5492850000000  0.4478100000000 1.0
C      1  0.2888530000000  0.4551460000000  0.5541430000000 1.0
C      1  0.2888130000000  0.5456990000000  0.4462760000000 1.0
C      1  0.7079610000000  0.4352220000000  0.4428580000000 1.0
C      1  0.7151470000000  0.5554960000000  0.5615940000000 1.0
C      1  0.2917600000000  0.4317680000000  0.4432070000000 1.0
C      1  0.2923230000000  0.5692710000000  0.5571860000000 1.0
C      1  0.6125460000000  0.4473360000000  0.2932870000000 1.0
C      1  0.6147790000000  0.5543440000000  0.7077170000000 1.0
C      1  0.3872650000000  0.4434110000000  0.2939790000000 1.0
C      1  0.3881770000000  0.5564310000000  0.7061140000000 1.0
C      1  0.6107390000000  0.4465200000000  0.7036860000000 1.0
C      1  0.6140350000000  0.5557960000000  0.2974630000000 1.0
C      1  0.3852070000000  0.4483860000000  0.7041720000000 1.0
C      1  0.3862370000000  0.5515700000000  0.2967000000000 1.0
C      1  0.4053630000000  0.3067270000000  0.5879870000000 1.0
C      1  0.4072330000000  0.6923740000000  0.4111950000000 1.0
C      1  0.5844580000000  0.2985860000000  0.5887270000000 1.0
C      1  0.5862040000000  0.6988120000000  0.4078730000000 1.0
C      1  0.4123830000000  0.2901070000000  0.4075790000000 1.0
C      1  0.4167550000000  0.7084790000000  0.5912130000000 1.0
C      1  0.5904040000000  0.2941970000000  0.4076630000000 1.0
C      1  0.5952600000000  0.6980940000000  0.5875100000000 1.0
C      1  0.5016330000000  0.2812020000000  0.3977930000000 1.0
C      1  0.5067320000000  0.7142270000000  0.5996340000000 1.0
C      1  0.4961760000000  0.7079030000000  0.3986980000000 1.0
C      1  0.4943260000000  0.2903500000000  0.5999870000000 1.0
END
