TITL C-3036480-97-471 6.47399696717528e-06 3375 -323.967586580209 0 0 60 (D2) n - 1
REM
REM in /home/bkarasulu/work/CARBON/AIRSS/Generating-Clusters/REBO/Higher-Symm/Only-C60
REM
REM
REM
REM
REM
REM ./C.cell (a2850807a9bf4ad07a5b6933b78d9264)
REM AIRSS Version 0.9.1 bugfix July 2018 build 013d7b7c2542+ Fri, 06 Jul 2018 19:26:36 +0100
REM compiler GCC version 9.2.1 20190827 (Red Hat 9.2.1-1)
REM options -cpp -mtune=generic -march=x86-64 -g -O0 -fpre-include=/usr/include/finclude/math-vector-fortran.h
REM seed 2000573094 545727447 -863554385 1154005399 -1593653678 1119975862 -2077321611 1578145621 -1921332835 -1943125842 -1313724666 1621675093 -837261317 1161906545 -668070601 -327708769 873628088 -1081625841 -68462220 1881640640 -214296425 1888023571 -2057985467 273223860 1699322922 -189951934 -1525203868 -722162683 552660186 1988806155 1108777297 160625551 339815213
REM
CELL 1.54180   15.00000   15.00000   15.00000   90.00000   90.00000   90.00000
LATT -1
SFAC C  
C      1  0.4536750000000  0.3911080000000  0.6688560000000 1.0
C      1  0.4520250000000  0.5918600000000  0.6781800000000 1.0
C      1  0.4528730000000  0.7008440000000  0.5086190000000 1.0
C      1  0.4536750000000  0.6088920000000  0.3311440000000 1.0
C      1  0.4520250000000  0.4081400000000  0.3218200000000 1.0
C      1  0.4528730000000  0.2991560000000  0.4913810000000 1.0
C      1  0.5463250000000  0.3911080000000  0.3311440000000 1.0
C      1  0.5479750000000  0.5918600000000  0.3218200000000 1.0
C      1  0.5471270000000  0.7008440000000  0.4913810000000 1.0
C      1  0.5463250000000  0.6088920000000  0.6688560000000 1.0
C      1  0.5479750000000  0.4081400000000  0.6781800000000 1.0
C      1  0.5471270000000  0.2991560000000  0.5086190000000 1.0
C      1  0.4037890000000  0.2907070000000  0.6660600000000 1.0
C      1  0.4148440000000  0.5338920000000  0.7586420000000 1.0
C      1  0.4033880000000  0.7472630000000  0.5979960000000 1.0
C      1  0.4037890000000  0.7092930000000  0.3339400000000 1.0
C      1  0.4148440000000  0.4661080000000  0.2413580000000 1.0
C      1  0.4033880000000  0.2527370000000  0.4020040000000 1.0
C      1  0.5962110000000  0.2907070000000  0.3339400000000 1.0
C      1  0.5851560000000  0.5338920000000  0.2413580000000 1.0
C      1  0.5966120000000  0.7472630000000  0.4020040000000 1.0
C      1  0.5962110000000  0.7092930000000  0.6660600000000 1.0
C      1  0.5851560000000  0.4661080000000  0.7586420000000 1.0
C      1  0.5966120000000  0.2527370000000  0.5979960000000 1.0
C      1  0.5997350000000  0.5382750000000  0.4080570000000 1.0
C      1  0.6004690000000  0.4380370000000  0.4199230000000 1.0
C      1  0.6003800000000  0.3999870000000  0.5129010000000 1.0
C      1  0.5997350000000  0.4617250000000  0.5919430000000 1.0
C      1  0.6004690000000  0.5619630000000  0.5800770000000 1.0
C      1  0.6003800000000  0.6000130000000  0.4870990000000 1.0
C      1  0.4002650000000  0.5382750000000  0.5919430000000 1.0
C      1  0.3995310000000  0.4380370000000  0.5800770000000 1.0
C      1  0.3996200000000  0.3999870000000  0.4870990000000 1.0
C      1  0.4002650000000  0.4617250000000  0.4080570000000 1.0
C      1  0.3995310000000  0.5619630000000  0.4199230000000 1.0
C      1  0.3996200000000  0.6000130000000  0.5129010000000 1.0
C      1  0.3637360000000  0.7035710000000  0.4377880000000 1.0
C      1  0.3652400000000  0.5482210000000  0.2922400000000 1.0
C      1  0.3633470000000  0.3455340000000  0.3550590000000 1.0
C      1  0.3637360000000  0.2964290000000  0.5622120000000 1.0
C      1  0.3652400000000  0.4517790000000  0.7077600000000 1.0
C      1  0.3633470000000  0.6544660000000  0.6449410000000 1.0
C      1  0.6362640000000  0.7035710000000  0.5622120000000 1.0
C      1  0.6347600000000  0.5482210000000  0.7077600000000 1.0
C      1  0.6366530000000  0.3455340000000  0.6449410000000 1.0
C      1  0.6362640000000  0.2964290000000  0.4377880000000 1.0
C      1  0.6347600000000  0.4517790000000  0.2922400000000 1.0
C      1  0.6366530000000  0.6544660000000  0.3550590000000 1.0
C      1  0.6733050000000  0.6282600000000  0.6390730000000 1.0
C      1  0.6737560000000  0.6835470000000  0.4586700000000 1.0
C      1  0.6741410000000  0.5538640000000  0.3228470000000 1.0
C      1  0.6733050000000  0.3717400000000  0.3609270000000 1.0
C      1  0.6737560000000  0.3164530000000  0.5413300000000 1.0
C      1  0.6741410000000  0.4461360000000  0.6771530000000 1.0
C      1  0.3266950000000  0.6282600000000  0.3609270000000 1.0
C      1  0.3262440000000  0.6835470000000  0.5413300000000 1.0
C      1  0.3258590000000  0.5538640000000  0.6771530000000 1.0
C      1  0.3266950000000  0.3717400000000  0.6390730000000 1.0
C      1  0.3262440000000  0.3164530000000  0.4586700000000 1.0
C      1  0.3258590000000  0.4461360000000  0.3228470000000 1.0
END
