TITL C-3036485-3770-939 1.68647620766565e-06 3375 -346.495851330939 0 0 60 (Ci) n - 1
REM
REM in /home/bkarasulu/work/CARBON/AIRSS/Generating-Clusters/REBO/Higher-Symm/Only-C60
REM
REM
REM
REM
REM
REM ./C.cell (a2850807a9bf4ad07a5b6933b78d9264)
REM AIRSS Version 0.9.1 bugfix July 2018 build 013d7b7c2542+ Fri, 06 Jul 2018 19:26:36 +0100
REM compiler GCC version 9.2.1 20190827 (Red Hat 9.2.1-1)
REM options -cpp -mtune=generic -march=x86-64 -g -O0 -fpre-include=/usr/include/finclude/math-vector-fortran.h
REM seed 852354545 1114269364 -1690658996 1557851536 1944467719 -1509364180 2108893436 -1294666775 -762895460 -897277896 -477334937 1726104825 245730382 -918422272 967873962 -2093709149 -2145646807 -2101901661 -671401133 -1636400724 -2031290081 1336946869 772701317 1602420871 1183459690 6133167 -18896625 -329170785 831284175 -1216642610 -2014244517 -1994453133 438839890
REM
CELL 1.54180   15.00000   15.00000   15.00000   90.00000   90.00000   90.00000
LATT -1
SFAC C  
C      1  0.4297940000000  0.2965770000000  0.5777920000000 1.0
C      1  0.5728570000000  0.4635950000000  0.7220710000000 1.0
C      1  0.4326640000000  0.6764430000000  0.6299560000000 1.0
C      1  0.5702060000000  0.7034230000000  0.4222090000000 1.0
C      1  0.4271430000000  0.5364050000000  0.2779290000000 1.0
C      1  0.5673360000000  0.3235570000000  0.3700450000000 1.0
C      1  0.4746570000000  0.2752530000000  0.4142250000000 1.0
C      1  0.5194350000000  0.3280890000000  0.6288520000000 1.0
C      1  0.4861690000000  0.5323520000000  0.7176660000000 1.0
C      1  0.5253440000000  0.7247470000000  0.5857760000000 1.0
C      1  0.4805650000000  0.6719110000000  0.3711480000000 1.0
C      1  0.5138310000000  0.4676480000000  0.2823330000000 1.0
C      1  0.3253800000000  0.3943790000000  0.3659050000000 1.0
C      1  0.6775370000000  0.3356960000000  0.5324020000000 1.0
C      1  0.3306210000000  0.4452660000000  0.6560260000000 1.0
C      1  0.6746210000000  0.6056210000000  0.6340950000000 1.0
C      1  0.3224620000000  0.6643050000000  0.4675980000000 1.0
C      1  0.6693790000000  0.5547340000000  0.3439740000000 1.0
C      1  0.7538580000000  0.4619650000000  0.5960020000000 1.0
C      1  0.2505470000000  0.5611860000000  0.5759350000000 1.0
C      1  0.7465080000000  0.5968950000000  0.4890490000000 1.0
C      1  0.2461420000000  0.5380340000000  0.4039980000000 1.0
C      1  0.7494530000000  0.4388130000000  0.4240650000000 1.0
C      1  0.2534930000000  0.4031050000000  0.5109510000000 1.0
C      1  0.3219680000000  0.3389290000000  0.4578590000000 1.0
C      1  0.6841970000000  0.3827490000000  0.6261360000000 1.0
C      1  0.3232120000000  0.5510130000000  0.6575100000000 1.0
C      1  0.6780330000000  0.6610710000000  0.5421420000000 1.0
C      1  0.3158030000000  0.6172510000000  0.3738650000000 1.0
C      1  0.6767880000000  0.4489870000000  0.3424900000000 1.0
C      1  0.3960100000000  0.2814340000000  0.4868680000000 1.0
C      1  0.6040580000000  0.3758290000000  0.6845020000000 1.0
C      1  0.4016470000000  0.6011490000000  0.6906480000000 1.0
C      1  0.6039900000000  0.7185650000000  0.5131330000000 1.0
C      1  0.3959410000000  0.6241710000000  0.3154980000000 1.0
C      1  0.5983540000000  0.3988510000000  0.3093510000000 1.0
C      1  0.7433780000000  0.5409630000000  0.4118090000000 1.0
C      1  0.2507740000000  0.4429200000000  0.4153350000000 1.0
C      1  0.7509540000000  0.4013540000000  0.5123870000000 1.0
C      1  0.2566220000000  0.4590360000000  0.5881910000000 1.0
C      1  0.7492260000000  0.5570800000000  0.5846660000000 1.0
C      1  0.2490460000000  0.5986460000000  0.4876130000000 1.0
C      1  0.4842350000000  0.5671980000000  0.3943590000000 1.0
C      1  0.4998360000000  0.4366180000000  0.3885510000000 1.0
C      1  0.4934620000000  0.3696690000000  0.4701570000000 1.0
C      1  0.5157650000000  0.4328020000000  0.6056400000000 1.0
C      1  0.5001640000000  0.5633820000000  0.6114480000000 1.0
C      1  0.5065370000000  0.6303320000000  0.5298420000000 1.0
C      1  0.4230170000000  0.4311090000000  0.5124920000000 1.0
C      1  0.5904660000000  0.4832990000000  0.5569420000000 1.0
C      1  0.4138990000000  0.5378200000000  0.5502940000000 1.0
C      1  0.5769820000000  0.5688910000000  0.4875080000000 1.0
C      1  0.4095340000000  0.5167010000000  0.4430570000000 1.0
C      1  0.5861010000000  0.4621810000000  0.4497050000000 1.0
C      1  0.6026200000000  0.3518110000000  0.4733920000000 1.0
C      1  0.4082260000000  0.4000860000000  0.6171660000000 1.0
C      1  0.6001560000000  0.5410630000000  0.6505890000000 1.0
C      1  0.3973790000000  0.6481900000000  0.5266090000000 1.0
C      1  0.5917740000000  0.5999140000000  0.3828340000000 1.0
C      1  0.3998440000000  0.4589370000000  0.3494110000000 1.0
END
