TITL C-3036483-1610-952 2.17550016359865 3375 -282.075431277447 0 0 60 (C2) n - 1
REM
REM in /home/bkarasulu/work/CARBON/AIRSS/Generating-Clusters/REBO/Higher-Symm/Only-C60
REM
REM
REM
REM
REM
REM ./C.cell (a2850807a9bf4ad07a5b6933b78d9264)
REM AIRSS Version 0.9.1 bugfix July 2018 build 013d7b7c2542+ Fri, 06 Jul 2018 19:26:36 +0100
REM compiler GCC version 9.2.1 20190827 (Red Hat 9.2.1-1)
REM options -cpp -mtune=generic -march=x86-64 -g -O0 -fpre-include=/usr/include/finclude/math-vector-fortran.h
REM seed -1136188992 -1872139241 1761769033 -2004455366 149097267 -1894996928 1730234040 2141631483 802254892 -711535876 -2101924975 1461142384 795393301 -212185147 -1877560391 1389365368 -458653420 -1785588806 -1777853371 517538101 -1055191012 -801908041 1049710688 -1223925559 -1109380946 294136837 -924150526 -641825137 -1040997527 -1927132053 -1524807155 -2078225594 -1362415786
REM
CELL 1.54180   15.00000   15.00000   15.00000   90.00000   90.00000   90.00000
LATT -1
SFAC C  
C      1  0.4317900000000  0.6822990000000  0.4511740000000 1.0
C      1  0.4490690000000  0.6889550000000  0.5706530000000 1.0
C      1  0.5684850000000  0.6822400000000  0.5493770000000 1.0
C      1  0.5512490000000  0.6890840000000  0.4288510000000 1.0
C      1  0.4287480000000  0.3035510000000  0.4486900000000 1.0
C      1  0.4510040000000  0.3115460000000  0.5683160000000 1.0
C      1  0.5711910000000  0.3035370000000  0.5512680000000 1.0
C      1  0.5490290000000  0.3115460000000  0.4316890000000 1.0
C      1  0.3380390000000  0.6399040000000  0.6253240000000 1.0
C      1  0.6216390000000  0.6341840000000  0.6605720000000 1.0
C      1  0.6619720000000  0.6399230000000  0.3746510000000 1.0
C      1  0.3783110000000  0.6341460000000  0.3393650000000 1.0
C      1  0.3398750000000  0.3602930000000  0.6211230000000 1.0
C      1  0.6254800000000  0.3540390000000  0.6620060000000 1.0
C      1  0.6601330000000  0.3602980000000  0.3788700000000 1.0
C      1  0.3745340000000  0.3540400000000  0.3380000000000 1.0
C      1  0.6872220000000  0.3584700000000  0.5802150000000 1.0
C      1  0.5804660000000  0.3624580000000  0.3146470000000 1.0
C      1  0.3127800000000  0.3584720000000  0.4197820000000 1.0
C      1  0.4195440000000  0.3624470000000  0.6853300000000 1.0
C      1  0.6858930000000  0.6319340000000  0.5806420000000 1.0
C      1  0.5803870000000  0.6351840000000  0.3128150000000 1.0
C      1  0.3140680000000  0.6319070000000  0.4193280000000 1.0
C      1  0.4195220000000  0.6351150000000  0.6872690000000 1.0
C      1  0.5096340000000  0.5531970000000  0.3178730000000 1.0
C      1  0.3214810000000  0.5531670000000  0.4952930000000 1.0
C      1  0.4903630000000  0.5531970000000  0.6821290000000 1.0
C      1  0.6785160000000  0.5531670000000  0.5047020000000 1.0
C      1  0.5043560000000  0.4409860000000  0.3221840000000 1.0
C      1  0.3170600000000  0.4407890000000  0.4904540000000 1.0
C      1  0.4956450000000  0.4409810000000  0.6778150000000 1.0
C      1  0.6829410000000  0.4407890000000  0.5095460000000 1.0
C      1  0.3958330000000  0.4446190000000  0.2964860000000 1.0
C      1  0.2957070000000  0.4476780000000  0.6013300000000 1.0
C      1  0.6041670000000  0.4446200000000  0.7035150000000 1.0
C      1  0.7042920000000  0.4476770000000  0.3986700000000 1.0
C      1  0.3987850000000  0.5465980000000  0.2953860000000 1.0
C      1  0.2968740000000  0.5493450000000  0.6039800000000 1.0
C      1  0.6012140000000  0.5466010000000  0.7046130000000 1.0
C      1  0.7031270000000  0.5493410000000  0.3960220000000 1.0
C      1  0.6611940000000  0.3081500000000  0.4803910000000 1.0
C      1  0.4807250000000  0.3113780000000  0.3390760000000 1.0
C      1  0.3388600000000  0.3081630000000  0.5196320000000 1.0
C      1  0.5192240000000  0.3113730000000  0.6609890000000 1.0
C      1  0.6609940000000  0.6825550000000  0.4807440000000 1.0
C      1  0.4804150000000  0.6849820000000  0.3392000000000 1.0
C      1  0.3385610000000  0.6825930000000  0.5190960000000 1.0
C      1  0.5196720000000  0.6850520000000  0.6609350000000 1.0
C      1  0.4582280000000  0.4119970000000  0.4222100000000 1.0
C      1  0.4201220000000  0.4118900000000  0.5256990000000 1.0
C      1  0.5417640000000  0.4120150000000  0.5777750000000 1.0
C      1  0.5798760000000  0.4119220000000  0.4742910000000 1.0
C      1  0.4735020000000  0.5817920000000  0.4201770000000 1.0
C      1  0.4216030000000  0.5813520000000  0.5415860000000 1.0
C      1  0.5263910000000  0.5818740000000  0.5797920000000 1.0
C      1  0.5784320000000  0.5813580000000  0.4584510000000 1.0
C      1  0.5822790000000  0.5025430000000  0.5772980000000 1.0
C      1  0.5771780000000  0.4907220000000  0.4188690000000 1.0
C      1  0.4177300000000  0.5025570000000  0.4227020000000 1.0
C      1  0.4228230000000  0.4907230000000  0.5811320000000 1.0
END
