TITL C-3036485-3770-302 0.267576581214845 3375 -314.394071019046 0 0 60 (C4h) n - 1
REM
REM in /home/bkarasulu/work/CARBON/AIRSS/Generating-Clusters/REBO/Higher-Symm/Only-C60
REM
REM
REM
REM
REM
REM ./C.cell (a2850807a9bf4ad07a5b6933b78d9264)
REM AIRSS Version 0.9.1 bugfix July 2018 build 013d7b7c2542+ Fri, 06 Jul 2018 19:26:36 +0100
REM compiler GCC version 9.2.1 20190827 (Red Hat 9.2.1-1)
REM options -cpp -mtune=generic -march=x86-64 -g -O0 -fpre-include=/usr/include/finclude/math-vector-fortran.h
REM seed -992711684 -739888156 1174640859 1066179637 661150272 801193019 177038781 -84898392 -1367414051 -560476229 -1596841905 -707871643 -2143596391 1898478282 -1432891748 1492550981 170442254 -1123461101 -160326731 -1918838890 -1538844445 1426045264 1704757940 -531939912 2130412326 -16566161 528810487 -860447187 367412681 317859336 -563171824 -778195899 398222043
REM
CELL 1.54180   15.00000   15.00000   15.00000   90.00000   90.00000   90.00000
LATT -1
SFAC C  
C      1  0.4500090000000  0.7060680000000  0.6075320000000 1.0
C      1  0.4501000000000  0.6073270000000  0.2942490000000 1.0
C      1  0.4501140000000  0.2945540000000  0.3928140000000 1.0
C      1  0.4500700000000  0.3925850000000  0.7057730000000 1.0
C      1  0.5498170000000  0.7061110000000  0.6074960000000 1.0
C      1  0.5497180000000  0.6073170000000  0.2942210000000 1.0
C      1  0.5496450000000  0.2942350000000  0.3926970000000 1.0
C      1  0.5497340000000  0.3925910000000  0.7058690000000 1.0
C      1  0.5871760000000  0.4943870000000  0.6730420000000 1.0
C      1  0.5872510000000  0.6730730000000  0.5056050000000 1.0
C      1  0.5871270000000  0.5056680000000  0.3269790000000 1.0
C      1  0.5871370000000  0.3269460000000  0.4943220000000 1.0
C      1  0.4125790000000  0.4943150000000  0.6730570000000 1.0
C      1  0.4125210000000  0.6730760000000  0.5056570000000 1.0
C      1  0.4126390000000  0.5057290000000  0.3269430000000 1.0
C      1  0.4126250000000  0.3269190000000  0.4942270000000 1.0
C      1  0.2859200000000  0.4581250000000  0.6889870000000 1.0
C      1  0.2859100000000  0.6889870000000  0.5418860000000 1.0
C      1  0.2858850000000  0.5418950000000  0.3110130000000 1.0
C      1  0.2858800000000  0.3110060000000  0.4581210000000 1.0
C      1  0.7138750000000  0.4581620000000  0.6890030000000 1.0
C      1  0.7138460000000  0.6890040000000  0.5418390000000 1.0
C      1  0.7139280000000  0.5418340000000  0.3109710000000 1.0
C      1  0.7138600000000  0.3109980000000  0.4581690000000 1.0
C      1  0.6738150000000  0.4609970000000  0.4378870000000 1.0
C      1  0.6738040000000  0.4378800000000  0.5390060000000 1.0
C      1  0.6738000000000  0.5389970000000  0.5621120000000 1.0
C      1  0.6738200000000  0.5620890000000  0.4610030000000 1.0
C      1  0.3259870000000  0.4609930000000  0.4378910000000 1.0
C      1  0.3259590000000  0.4379100000000  0.5389490000000 1.0
C      1  0.3259760000000  0.5389590000000  0.5620840000000 1.0
C      1  0.3259630000000  0.5621160000000  0.4610430000000 1.0
C      1  0.3177400000000  0.3280540000000  0.5582240000000 1.0
C      1  0.3177350000000  0.5582240000000  0.6719190000000 1.0
C      1  0.3177370000000  0.6719470000000  0.4418320000000 1.0
C      1  0.3176940000000  0.4417580000000  0.3280700000000 1.0
C      1  0.6820330000000  0.3280420000000  0.5581640000000 1.0
C      1  0.6819340000000  0.5581460000000  0.6719410000000 1.0
C      1  0.6819520000000  0.6719570000000  0.4418890000000 1.0
C      1  0.6821010000000  0.4418710000000  0.3279530000000 1.0
C      1  0.4248860000000  0.4032700000000  0.5760870000000 1.0
C      1  0.4249160000000  0.5758390000000  0.5967280000000 1.0
C      1  0.4249820000000  0.5967030000000  0.4240870000000 1.0
C      1  0.4248680000000  0.4236840000000  0.4032750000000 1.0
C      1  0.5749000000000  0.4032690000000  0.5760590000000 1.0
C      1  0.5748370000000  0.5758560000000  0.5967550000000 1.0
C      1  0.5747790000000  0.5967190000000  0.4240760000000 1.0
C      1  0.5747360000000  0.4240870000000  0.4033100000000 1.0
C      1  0.3484990000000  0.6211940000000  0.3440370000000 1.0
C      1  0.3485120000000  0.3442070000000  0.3788290000000 1.0
C      1  0.3485020000000  0.3787980000000  0.6558650000000 1.0
C      1  0.3484550000000  0.6558940000000  0.6211930000000 1.0
C      1  0.6512740000000  0.6211460000000  0.3440860000000 1.0
C      1  0.6513250000000  0.3440490000000  0.3788850000000 1.0
C      1  0.6513240000000  0.3788760000000  0.6558780000000 1.0
C      1  0.6513470000000  0.6558940000000  0.6211430000000 1.0
C      1  0.4999660000000  0.5344070000000  0.3930840000000 1.0
C      1  0.4998740000000  0.3929230000000  0.4654840000000 1.0
C      1  0.4999230000000  0.4658690000000  0.6067650000000 1.0
C      1  0.4999060000000  0.6064650000000  0.5339370000000 1.0
END
