TITL C-3036482-790-1048 2.01879606997183e-06 3375 -331.813076465032 0 0 60 (C1) n - 1
REM
REM in /home/bkarasulu/work/CARBON/AIRSS/Generating-Clusters/REBO/Higher-Symm/Only-C60
REM
REM
REM
REM
REM
REM ./C.cell (a2850807a9bf4ad07a5b6933b78d9264)
REM AIRSS Version 0.9.1 bugfix July 2018 build 013d7b7c2542+ Fri, 06 Jul 2018 19:26:36 +0100
REM compiler GCC version 9.2.1 20190827 (Red Hat 9.2.1-1)
REM options -cpp -mtune=generic -march=x86-64 -g -O0 -fpre-include=/usr/include/finclude/math-vector-fortran.h
REM seed -2135833001 1018281011 -1289448643 805467789 409950330 2110177150 -359453385 -1690288498 -1229186956 902042770 1183195268 741773318 1072416440 1499508495 1022076910 1200223107 1514949723 -1571488564 639685839 -2032653414 -636122460 -1134631887 354180361 -149300740 447562497 1717610980 1963260749 767079546 30882468 1219613751 -1719562779 -722756631 -572994483
REM
CELL 1.54180   15.00000   15.00000   15.00000   90.00000   90.00000   90.00000
LATT -1
SFAC C  
C      1  0.4054600000000  0.3436010000000  0.4483370000000 1.0
C      1  0.4160040000000  0.6613530000000  0.5501480000000 1.0
C      1  0.5919400000000  0.3086970000000  0.5561770000000 1.0
C      1  0.5965540000000  0.6890290000000  0.4389800000000 1.0
C      1  0.4044780000000  0.4565350000000  0.2990960000000 1.0
C      1  0.4182250000000  0.5578540000000  0.7038850000000 1.0
C      1  0.5904800000000  0.5728990000000  0.2902250000000 1.0
C      1  0.6022040000000  0.4409360000000  0.6901060000000 1.0
C      1  0.7667740000000  0.4743700000000  0.6252280000000 1.0
C      1  0.7393140000000  0.5320780000000  0.3985920000000 1.0
C      1  0.2248490000000  0.4493550000000  0.3826190000000 1.0
C      1  0.2567270000000  0.5244140000000  0.6054690000000 1.0
C      1  0.7486710000000  0.6078430000000  0.4780720000000 1.0
C      1  0.7671810000000  0.3956510000000  0.5516520000000 1.0
C      1  0.2319340000000  0.3818240000000  0.4671180000000 1.0
C      1  0.2582450000000  0.5931620000000  0.5178850000000 1.0
C      1  0.7758640000000  0.4402570000000  0.3095890000000 1.0
C      1  0.8338700000000  0.5583080000000  0.7037930000000 1.0
C      1  0.1936850000000  0.4533880000000  0.6986790000000 1.0
C      1  0.1731290000000  0.5344450000000  0.2942920000000 1.0
C      1  0.8063500000000  0.3028360000000  0.4647750000000 1.0
C      1  0.8144030000000  0.7013310000000  0.5462230000000 1.0
C      1  0.2059340000000  0.6869930000000  0.4393850000000 1.0
C      1  0.1633400000000  0.3024770000000  0.5490790000000 1.0
C      1  0.5042990000000  0.6788040000000  0.3888160000000 1.0
C      1  0.5028860000000  0.3348780000000  0.6067880000000 1.0
C      1  0.5072620000000  0.6581580000000  0.6018080000000 1.0
C      1  0.4977040000000  0.3600320000000  0.4002390000000 1.0
C      1  0.5081570000000  0.3968560000000  0.6723760000000 1.0
C      1  0.5006730000000  0.6211730000000  0.3190110000000 1.0
C      1  0.5094310000000  0.6036100000000  0.6740060000000 1.0
C      1  0.4974380000000  0.4170510000000  0.3304400000000 1.0
C      1  0.6732260000000  0.6459020000000  0.4150910000000 1.0
C      1  0.6724140000000  0.3423580000000  0.5795790000000 1.0
C      1  0.3382530000000  0.6252180000000  0.5768930000000 1.0
C      1  0.3258380000000  0.3707830000000  0.4166630000000 1.0
C      1  0.6794340000000  0.4167350000000  0.6485180000000 1.0
C      1  0.6686080000000  0.5860170000000  0.3344300000000 1.0
C      1  0.3392990000000  0.5718210000000  0.6613360000000 1.0
C      1  0.3259570000000  0.4308640000000  0.3352430000000 1.0
C      1  0.2801800000000  0.6150610000000  0.4096820000000 1.0
C      1  0.2575260000000  0.3486360000000  0.5715720000000 1.0
C      1  0.7331580000000  0.6418820000000  0.5839840000000 1.0
C      1  0.7168960000000  0.3618400000000  0.4554680000000 1.0
C      1  0.2708880000000  0.4154050000000  0.6342030000000 1.0
C      1  0.2659900000000  0.5491760000000  0.3461820000000 1.0
C      1  0.7421010000000  0.5806440000000  0.6528470000000 1.0
C      1  0.7043980000000  0.4245460000000  0.3887710000000 1.0
C      1  0.1559460000000  0.4726420000000  0.5999110000000 1.0
C      1  0.1454090000000  0.5265680000000  0.3976980000000 1.0
C      1  0.8305900000000  0.4650420000000  0.3989790000000 1.0
C      1  0.8569110000000  0.5385210000000  0.6007980000000 1.0
C      1  0.1600880000000  0.5923520000000  0.4620360000000 1.0
C      1  0.1441400000000  0.4071560000000  0.5344770000000 1.0
C      1  0.8423370000000  0.4042400000000  0.4686760000000 1.0
C      1  0.8479820000000  0.6002030000000  0.5314490000000 1.0
C      1  0.5041960000000  0.7006410000000  0.4981600000000 1.0
C      1  0.4969610000000  0.3088220000000  0.4990630000000 1.0
C      1  0.5120250000000  0.5000970000000  0.7140870000000 1.0
C      1  0.4957840000000  0.5166310000000  0.2813170000000 1.0
END
