TITL C-3036486-2224-1192 -1.66337465965555e-06 3375 -349.829330965376 0 0 60 (C1) n - 1
REM
REM in /home/bkarasulu/work/CARBON/AIRSS/Generating-Clusters/REBO/Higher-Symm/Only-C60
REM
REM
REM
REM
REM
REM ./C.cell (a2850807a9bf4ad07a5b6933b78d9264)
REM AIRSS Version 0.9.1 bugfix July 2018 build 013d7b7c2542+ Fri, 06 Jul 2018 19:26:36 +0100
REM compiler GCC version 9.2.1 20190827 (Red Hat 9.2.1-1)
REM options -cpp -mtune=generic -march=x86-64 -g -O0 -fpre-include=/usr/include/finclude/math-vector-fortran.h
REM seed -1730587342 -1002820684 1871920609 926248147 -1183065972 -1073779315 -1255503104 134863535 -1980793686 1755746735 -1407323856 1209812953 371029277 571051826 -1445087051 2003590058 2097514863 -1862654524 930900621 1186817567 -1682952281 1688747762 733401431 1041690880 -111774234 -504184349 1511721555 1360367926 -1337820303 -1276356024 -1562414001 1009551738 1456069869
REM
CELL 1.54180   15.00000   15.00000   15.00000   90.00000   90.00000   90.00000
LATT -1
SFAC C  
C      1  0.4846500000000  0.4236630000000  0.4807630000000 1.0
C      1  0.6163950000000  0.6550660000000  0.3533760000000 1.0
C      1  0.2761770000000  0.5323050000000  0.3480730000000 1.0
C      1  0.2822660000000  0.5887810000000  0.4190470000000 1.0
C      1  0.3297600000000  0.5449740000000  0.5099480000000 1.0
C      1  0.5367350000000  0.6643870000000  0.6469480000000 1.0
C      1  0.5930570000000  0.5671050000000  0.5177490000000 1.0
C      1  0.5788790000000  0.4489540000000  0.4440470000000 1.0
C      1  0.7132030000000  0.4210900000000  0.6162040000000 1.0
C      1  0.3020660000000  0.3907320000000  0.6262110000000 1.0
C      1  0.6816380000000  0.3778500000000  0.3596050000000 1.0
C      1  0.5709930000000  0.3453380000000  0.6218400000000 1.0
C      1  0.4233470000000  0.5866810000000  0.6765750000000 1.0
C      1  0.6084460000000  0.5700340000000  0.3092110000000 1.0
C      1  0.3509910000000  0.3317830000000  0.5516120000000 1.0
C      1  0.4858220000000  0.5959800000000  0.3541600000000 1.0
C      1  0.6614470000000  0.6497910000000  0.4387710000000 1.0
C      1  0.6438100000000  0.4191040000000  0.5028040000000 1.0
C      1  0.5459940000000  0.2892550000000  0.3961660000000 1.0
C      1  0.5543070000000  0.4511160000000  0.6473460000000 1.0
C      1  0.3864520000000  0.7189010000000  0.4841340000000 1.0
C      1  0.4211190000000  0.4181880000000  0.5744400000000 1.0
C      1  0.5858450000000  0.3623740000000  0.3429460000000 1.0
C      1  0.6687270000000  0.3349310000000  0.6042600000000 1.0
C      1  0.4219190000000  0.5254260000000  0.5364470000000 1.0
C      1  0.4926110000000  0.5796610000000  0.4662960000000 1.0
C      1  0.4731330000000  0.4858020000000  0.6942760000000 1.0
C      1  0.3650650000000  0.3388760000000  0.3552550000000 1.0
C      1  0.5236900000000  0.2933600000000  0.5528540000000 1.0
C      1  0.4330640000000  0.6907720000000  0.6352980000000 1.0
C      1  0.5281890000000  0.7029390000000  0.3486250000000 1.0
C      1  0.2896370000000  0.4624160000000  0.4602830000000 1.0
C      1  0.6316350000000  0.7054110000000  0.5109160000000 1.0
C      1  0.3399380000000  0.6302480000000  0.6115910000000 1.0
C      1  0.2984540000000  0.5437300000000  0.6600350000000 1.0
C      1  0.6804110000000  0.2925220000000  0.5165420000000 1.0
C      1  0.5293130000000  0.4932670000000  0.5590410000000 1.0
C      1  0.5906640000000  0.7907890000000  0.5111620000000 1.0
C      1  0.5163770000000  0.4295140000000  0.3225750000000 1.0
C      1  0.4473640000000  0.2853530000000  0.4131640000000 1.0
C      1  0.6564050000000  0.4752820000000  0.6662840000000 1.0
C      1  0.3108360000000  0.6536120000000  0.5081810000000 1.0
C      1  0.5921810000000  0.2710700000000  0.4823890000000 1.0
C      1  0.5191880000000  0.5186790000000  0.2920360000000 1.0
C      1  0.4515310000000  0.6770030000000  0.4251110000000 1.0
C      1  0.4293320000000  0.7599070000000  0.5595640000000 1.0
C      1  0.7231830000000  0.4763820000000  0.3881040000000 1.0
C      1  0.3693310000000  0.5081480000000  0.7350210000000 1.0
C      1  0.6937250000000  0.5474420000000  0.4721340000000 1.0
C      1  0.7477680000000  0.4587820000000  0.5182840000000 1.0
C      1  0.4407090000000  0.4152740000000  0.3873550000000 1.0
C      1  0.2554680000000  0.4707790000000  0.6219580000000 1.0
C      1  0.3910300000000  0.4096690000000  0.6839510000000 1.0
C      1  0.5066340000000  0.8109670000000  0.5417710000000 1.0
C      1  0.3581020000000  0.3820900000000  0.4597970000000 1.0
C      1  0.5992870000000  0.6484380000000  0.5841200000000 1.0
C      1  0.4377210000000  0.2874910000000  0.5096780000000 1.0
C      1  0.2991460000000  0.4318950000000  0.3526990000000 1.0
C      1  0.6213010000000  0.4951070000000  0.3738020000000 1.0
C      1  0.7335280000000  0.3635130000000  0.4571660000000 1.0
END
