TITL C-3036485-3770-874 -0.00109677469838509 3375 -336.110576780852 0 0 60 (C5) n - 1
REM
REM in /home/bkarasulu/work/CARBON/AIRSS/Generating-Clusters/REBO/Higher-Symm/Only-C60
REM
REM
REM
REM
REM
REM ./C.cell (a2850807a9bf4ad07a5b6933b78d9264)
REM AIRSS Version 0.9.1 bugfix July 2018 build 013d7b7c2542+ Fri, 06 Jul 2018 19:26:36 +0100
REM compiler GCC version 9.2.1 20190827 (Red Hat 9.2.1-1)
REM options -cpp -mtune=generic -march=x86-64 -g -O0 -fpre-include=/usr/include/finclude/math-vector-fortran.h
REM seed 602393038 -1261179638 407144052 879715289 -1356701310 -247646049 -1181496060 -1647476878 -72450858 -90776949 602038236 -650282732 -84407547 1389567147 214220831 353732433 -1312292392 -2131541070 -1598305396 229397226 -349756006 -1954553175 209255155 473777808 -240204587 -1928954364 -1483300003 -539915566 -289891618 -1753371320 -2085268567 -1456134580 -1340478631
REM
CELL 1.54180   15.00000   15.00000   15.00000   90.00000   90.00000   90.00000
LATT -1
SFAC C  
C      1  0.5537340000000  0.2570210000000  0.5623440000000 1.0
C      1  0.5537340000000  0.4842100000000  0.7503570000000 1.0
C      1  0.5537340000000  0.7332180000000  0.5923850000000 1.0
C      1  0.5537340000000  0.6599300000000  0.3067430000000 1.0
C      1  0.5537340000000  0.3656210000000  0.2881740000000 1.0
C      1  0.4462660000000  0.2570210000000  0.5623440000000 1.0
C      1  0.4462660000000  0.4842100000000  0.7503580000000 1.0
C      1  0.4462660000000  0.7332180000000  0.5923850000000 1.0
C      1  0.4462660000000  0.6599300000000  0.3067430000000 1.0
C      1  0.4462660000000  0.3656210000000  0.2881740000000 1.0
C      1  0.6450940000000  0.4057040000000  0.3392980000000 1.0
C      1  0.6450940000000  0.3180280000000  0.5400200000000 1.0
C      1  0.6450930000000  0.4818330000000  0.6854350000000 1.0
C      1  0.6450930000000  0.6707370000000  0.5745860000000 1.0
C      1  0.6450940000000  0.6236940000000  0.3606620000000 1.0
C      1  0.3549060000000  0.4057040000000  0.3392970000000 1.0
C      1  0.3549060000000  0.3180280000000  0.5400200000000 1.0
C      1  0.3549070000000  0.4818330000000  0.6854350000000 1.0
C      1  0.3549070000000  0.6707370000000  0.5745860000000 1.0
C      1  0.3549060000000  0.6236940000000  0.3606620000000 1.0
C      1  0.5502760000000  0.5532640000000  0.2701630000000 1.0
C      1  0.5502760000000  0.2978730000000  0.3783180000000 1.0
C      1  0.5502760000000  0.3218180000000  0.6546320000000 1.0
C      1  0.5502760000000  0.5920060000000  0.7172580000000 1.0
C      1  0.5502760000000  0.7350450000000  0.4796360000000 1.0
C      1  0.4497240000000  0.5532640000000  0.2701630000000 1.0
C      1  0.4497240000000  0.2978730000000  0.3783180000000 1.0
C      1  0.4497240000000  0.3218180000000  0.6546320000000 1.0
C      1  0.4497240000000  0.5920060000000  0.7172580000000 1.0
C      1  0.4497240000000  0.7350450000000  0.4796360000000 1.0
C      1  0.5558090000000  0.5644060000000  0.5685660000000 1.0
C      1  0.5558100000000  0.5851140000000  0.4599340000000 1.0
C      1  0.5558080000000  0.4881980000000  0.4066680000000 1.0
C      1  0.5558100000000  0.4075900000000  0.4823810000000 1.0
C      1  0.5558100000000  0.4546900000000  0.5824400000000 1.0
C      1  0.4441910000000  0.5644060000000  0.5685660000000 1.0
C      1  0.4441900000000  0.5851140000000  0.4599340000000 1.0
C      1  0.4441920000000  0.4881980000000  0.4066680000000 1.0
C      1  0.4441910000000  0.4075900000000  0.4823810000000 1.0
C      1  0.4441900000000  0.4546900000000  0.5824400000000 1.0
C      1  0.6483670000000  0.3951660000000  0.4290140000000 1.0
C      1  0.6483660000000  0.4000970000000  0.5777670000000 1.0
C      1  0.6483640000000  0.5430900000000  0.6190450000000 1.0
C      1  0.6483660000000  0.6265310000000  0.4958100000000 1.0
C      1  0.6483660000000  0.5351120000000  0.3783610000000 1.0
C      1  0.3516330000000  0.3951660000000  0.4290140000000 1.0
C      1  0.3516340000000  0.4000970000000  0.5777670000000 1.0
C      1  0.3516360000000  0.5430900000000  0.6190450000000 1.0
C      1  0.3516340000000  0.6265310000000  0.4958100000000 1.0
C      1  0.3516340000000  0.5351120000000  0.3783610000000 1.0
C      1  0.5908780000000  0.4720390000000  0.2761480000000 1.0
C      1  0.5908780000000  0.2784670000000  0.4574180000000 1.0
C      1  0.5908770000000  0.3910490000000  0.6975320000000 1.0
C      1  0.5908790000000  0.6541970000000  0.6646690000000 1.0
C      1  0.5908780000000  0.7042520000000  0.4042360000000 1.0
C      1  0.4091220000000  0.4720390000000  0.2761480000000 1.0
C      1  0.4091220000000  0.2784670000000  0.4574180000000 1.0
C      1  0.4091230000000  0.3910490000000  0.6975320000000 1.0
C      1  0.4091210000000  0.6541960000000  0.6646690000000 1.0
C      1  0.4091220000000  0.7042520000000  0.4042360000000 1.0
END
