TITL C-3036484-3770-284 1.67994297484203e-05 3375 -374.946779702729 0 0 60 (D5) n - 1
REM
REM in /home/bkarasulu/work/CARBON/AIRSS/Generating-Clusters/REBO/Higher-Symm/Only-C60
REM
REM
REM
REM
REM
REM ./C.cell (a2850807a9bf4ad07a5b6933b78d9264)
REM AIRSS Version 0.9.1 bugfix July 2018 build 013d7b7c2542+ Fri, 06 Jul 2018 19:26:36 +0100
REM compiler GCC version 9.2.1 20190827 (Red Hat 9.2.1-1)
REM options -cpp -mtune=generic -march=x86-64 -g -O0 -fpre-include=/usr/include/finclude/math-vector-fortran.h
REM seed 1054902688 -1605764475 -765108368 723693334 424758907 1783630867 -1333181873 1868363426 -1680292024 169212197 75939883 -1795648914 -1680750852 2040450903 2027370208 -1994741313 515938928 799347403 -1646854468 728079210 2105448352 -1198159710 -573177208 -1875364882 -185461110 1818470370 597782523 -315348436 -571662875 577949941 1950762054 -737348294 1160460941
REM
CELL 1.54180   15.00000   15.00000   15.00000   90.00000   90.00000   90.00000
LATT -1
SFAC C  
C      1  0.4815390000000  0.2849150000000  0.5782290000000 1.0
C      1  0.4198970000000  0.2849140000000  0.5066070000000 1.0
C      1  0.4689660000000  0.2849170000000  0.4258500000000 1.0
C      1  0.5609330000000  0.2849200000000  0.4475610000000 1.0
C      1  0.5687040000000  0.2849190000000  0.5417370000000 1.0
C      1  0.5184620000000  0.7150830000000  0.5782360000000 1.0
C      1  0.5801030000000  0.7150860000000  0.5066130000000 1.0
C      1  0.5310340000000  0.7150850000000  0.4258560000000 1.0
C      1  0.4390670000000  0.7150820000000  0.4475680000000 1.0
C      1  0.4312970000000  0.7150800000000  0.5417440000000 1.0
C      1  0.4013270000000  0.5024630000000  0.7169500000000 1.0
C      1  0.2631770000000  0.5024620000000  0.4731980000000 1.0
C      1  0.4523080000000  0.5024720000000  0.2664850000000 1.0
C      1  0.7073480000000  0.5024790000000  0.3824820000000 1.0
C      1  0.6758400000000  0.5024740000000  0.6608850000000 1.0
C      1  0.5986740000000  0.4975300000000  0.7169490000000 1.0
C      1  0.7368230000000  0.4975390000000  0.4731960000000 1.0
C      1  0.5476900000000  0.4975350000000  0.2664850000000 1.0
C      1  0.2926510000000  0.4975240000000  0.3824840000000 1.0
C      1  0.3241610000000  0.4975210000000  0.6608860000000 1.0
C      1  0.2648530000000  0.4238710000000  0.5240370000000 1.0
C      1  0.4044760000000  0.4238800000000  0.2837870000000 1.0
C      1  0.6761130000000  0.4238890000000  0.3423350000000 1.0
C      1  0.7043720000000  0.4238850000000  0.6187690000000 1.0
C      1  0.4501990000000  0.4238750000000  0.7310670000000 1.0
C      1  0.7351470000000  0.5761280000000  0.5240370000000 1.0
C      1  0.5955220000000  0.5761270000000  0.2837880000000 1.0
C      1  0.3238860000000  0.5761160000000  0.3423380000000 1.0
C      1  0.2956290000000  0.5761110000000  0.6187730000000 1.0
C      1  0.5498030000000  0.5761180000000  0.7310690000000 1.0
C      1  0.2770990000000  0.5840130000000  0.5210110000000 1.0
C      1  0.4111360000000  0.5840210000000  0.2945050000000 1.0
C      1  0.6679760000000  0.5840290000000  0.3519880000000 1.0
C      1  0.6926740000000  0.5840260000000  0.6140200000000 1.0
C      1  0.4510990000000  0.5840160000000  0.7184820000000 1.0
C      1  0.7229010000000  0.4159860000000  0.5210070000000 1.0
C      1  0.5888620000000  0.4159850000000  0.2945020000000 1.0
C      1  0.3320230000000  0.4159750000000  0.3519870000000 1.0
C      1  0.3073270000000  0.4159700000000  0.6140190000000 1.0
C      1  0.5489020000000  0.4159770000000  0.7184790000000 1.0
C      1  0.4305290000000  0.6668610000000  0.6657850000000 1.0
C      1  0.3208590000000  0.6668600000000  0.4851670000000 1.0
C      1  0.4587480000000  0.6668670000000  0.3250510000000 1.0
C      1  0.6536370000000  0.6668730000000  0.4067120000000 1.0
C      1  0.6361970000000  0.6668690000000  0.6172980000000 1.0
C      1  0.5694720000000  0.3331340000000  0.6657800000000 1.0
C      1  0.6791400000000  0.3331400000000  0.4851600000000 1.0
C      1  0.5412510000000  0.3331380000000  0.3250450000000 1.0
C      1  0.3463620000000  0.3331300000000  0.4067080000000 1.0
C      1  0.3638040000000  0.3331270000000  0.6172930000000 1.0
C      1  0.3642040000000  0.6656770000000  0.3887460000000 1.0
C      1  0.5638450000000  0.6656850000000  0.3364790000000 1.0
C      1  0.6752460000000  0.6656860000000  0.5101960000000 1.0
C      1  0.5444550000000  0.6656790000000  0.6698270000000 1.0
C      1  0.3522210000000  0.6656740000000  0.5947660000000 1.0
C      1  0.6357950000000  0.3343260000000  0.3887390000000 1.0
C      1  0.4361540000000  0.3343200000000  0.3364740000000 1.0
C      1  0.3247540000000  0.3343130000000  0.5101920000000 1.0
C      1  0.4555460000000  0.3343150000000  0.6698220000000 1.0
C      1  0.6477790000000  0.3343230000000  0.5947600000000 1.0
END
