TITL C-3036484-3770-15 2.47743051326785e-06 3375 -347.084306000334 0 0 60 (C2) n - 1
REM
REM in /home/bkarasulu/work/CARBON/AIRSS/Generating-Clusters/REBO/Higher-Symm/Only-C60
REM
REM
REM
REM
REM
REM ./C.cell (a2850807a9bf4ad07a5b6933b78d9264)
REM AIRSS Version 0.9.1 bugfix July 2018 build 013d7b7c2542+ Fri, 06 Jul 2018 19:26:36 +0100
REM compiler GCC version 9.2.1 20190827 (Red Hat 9.2.1-1)
REM options -cpp -mtune=generic -march=x86-64 -g -O0 -fpre-include=/usr/include/finclude/math-vector-fortran.h
REM seed -1680070499 -1980739575 -252991236 -2023686946 1091915720 -1382843519 -496295036 -1671126355 -1177302315 1332297176 1877453063 -1658501072 -51641413 -1638043988 1793725167 -635196172 -878548730 -487381818 -1453664979 -692030712 -554887631 -804694877 847729516 1864337196 -567883237 754947512 654677066 -1865997966 -1850179641 699543500 767471082 -114579393 1263046448
REM
CELL 1.54180   15.00000   15.00000   15.00000   90.00000   90.00000   90.00000
LATT -1
SFAC C  
C      1  0.3848210000000  0.6564080000000  0.3791540000000 1.0
C      1  0.3848220000000  0.3435930000000  0.6208470000000 1.0
C      1  0.3835950000000  0.6757630000000  0.6315380000000 1.0
C      1  0.3835940000000  0.3242370000000  0.3684630000000 1.0
C      1  0.3392920000000  0.4673830000000  0.6388680000000 1.0
C      1  0.3392910000000  0.5326170000000  0.3611320000000 1.0
C      1  0.3319250000000  0.4413300000000  0.3319780000000 1.0
C      1  0.3319250000000  0.5586700000000  0.6680230000000 1.0
C      1  0.2984350000000  0.3514920000000  0.5887530000000 1.0
C      1  0.2984340000000  0.6485080000000  0.4112480000000 1.0
C      1  0.2977560000000  0.3350480000000  0.4029230000000 1.0
C      1  0.2977560000000  0.6649520000000  0.5970780000000 1.0
C      1  0.6052980000000  0.7172160000000  0.4255510000000 1.0
C      1  0.6052990000000  0.2827840000000  0.5744490000000 1.0
C      1  0.6100860000000  0.7195610000000  0.6012350000000 1.0
C      1  0.6100850000000  0.2804390000000  0.3987650000000 1.0
C      1  0.7212030000000  0.4450810000000  0.5721290000000 1.0
C      1  0.7212030000000  0.5549190000000  0.4278700000000 1.0
C      1  0.7177080000000  0.4481770000000  0.4580650000000 1.0
C      1  0.7177080000000  0.5518230000000  0.5419340000000 1.0
C      1  0.4980540000000  0.4409200000000  0.2805760000000 1.0
C      1  0.4980550000000  0.5590800000000  0.7194250000000 1.0
C      1  0.4944300000000  0.4593410000000  0.7187640000000 1.0
C      1  0.4944290000000  0.5406590000000  0.2812360000000 1.0
C      1  0.4882510000000  0.5432490000000  0.4493790000000 1.0
C      1  0.4882520000000  0.4567510000000  0.5506210000000 1.0
C      1  0.4799650000000  0.5703600000000  0.5526650000000 1.0
C      1  0.4799650000000  0.4296400000000  0.4473350000000 1.0
C      1  0.5751920000000  0.4497510000000  0.4127520000000 1.0
C      1  0.5751930000000  0.5502490000000  0.5872480000000 1.0
C      1  0.5888050000000  0.4441780000000  0.5871490000000 1.0
C      1  0.5888040000000  0.5558220000000  0.4128510000000 1.0
C      1  0.5302190000000  0.7467470000000  0.5651400000000 1.0
C      1  0.5302190000000  0.2532530000000  0.4348590000000 1.0
C      1  0.5233570000000  0.7311030000000  0.4654100000000 1.0
C      1  0.5233570000000  0.2688970000000  0.5345900000000 1.0
C      1  0.6898480000000  0.5453050000000  0.6532860000000 1.0
C      1  0.6898470000000  0.4546950000000  0.3467140000000 1.0
C      1  0.6840330000000  0.5534940000000  0.3206280000000 1.0
C      1  0.6840340000000  0.4465060000000  0.6793710000000 1.0
C      1  0.2803520000000  0.4492620000000  0.5429210000000 1.0
C      1  0.2803520000000  0.5507380000000  0.4570800000000 1.0
C      1  0.2778910000000  0.4393610000000  0.4335410000000 1.0
C      1  0.2778910000000  0.5606390000000  0.5664610000000 1.0
C      1  0.5931440000000  0.5884130000000  0.6880050000000 1.0
C      1  0.5931430000000  0.4115870000000  0.3119950000000 1.0
C      1  0.5825440000000  0.5770310000000  0.3069050000000 1.0
C      1  0.5825450000000  0.4229690000000  0.6930950000000 1.0
C      1  0.4527150000000  0.6726460000000  0.5614680000000 1.0
C      1  0.4527140000000  0.3273540000000  0.4385320000000 1.0
C      1  0.4530460000000  0.6509070000000  0.4505350000000 1.0
C      1  0.4530470000000  0.3490930000000  0.5494650000000 1.0
C      1  0.6431400000000  0.6306980000000  0.5638480000000 1.0
C      1  0.6431400000000  0.3693010000000  0.4361510000000 1.0
C      1  0.6487920000000  0.6298200000000  0.4588820000000 1.0
C      1  0.6487930000000  0.3701800000000  0.5411170000000 1.0
C      1  0.4127090000000  0.4159260000000  0.6864900000000 1.0
C      1  0.4127080000000  0.5840740000000  0.3135110000000 1.0
C      1  0.4133940000000  0.3931170000000  0.2976380000000 1.0
C      1  0.4133950000000  0.6068830000000  0.7023630000000 1.0
END
