TITL C-3036482-790-943 4.98298572389314e-07 3375 -335.860632448468 0 0 60 (C1) n - 1
REM
REM in /home/bkarasulu/work/CARBON/AIRSS/Generating-Clusters/REBO/Higher-Symm/Only-C60
REM
REM
REM
REM
REM
REM ./C.cell (a2850807a9bf4ad07a5b6933b78d9264)
REM AIRSS Version 0.9.1 bugfix July 2018 build 013d7b7c2542+ Fri, 06 Jul 2018 19:26:36 +0100
REM compiler GCC version 9.2.1 20190827 (Red Hat 9.2.1-1)
REM options -cpp -mtune=generic -march=x86-64 -g -O0 -fpre-include=/usr/include/finclude/math-vector-fortran.h
REM seed 1053062013 -969338110 -1435622323 -1254457485 1822648461 -1046176974 280924457 483646484 1301661223 303248161 1631657427 1762897420 -1641600382 -329079466 -926777130 -105243354 368008239 -1244373710 1980690102 730024063 -748687943 -1128075101 -992601932 -1297776695 -461641067 1415948149 373336549 -1553576983 -777900165 1941019476 1539543483 -1142068179 -735491437
REM
CELL 1.54180   15.00000   15.00000   15.00000   90.00000   90.00000   90.00000
LATT -1
SFAC C  
C      1  0.5472980000000  0.4380260000000  0.3051960000000 1.0
C      1  0.4516690000000  0.4398620000000  0.3080620000000 1.0
C      1  0.4231520000000  0.5316660000000  0.3197420000000 1.0
C      1  0.5017570000000  0.5891680000000  0.3138810000000 1.0
C      1  0.5783860000000  0.5303780000000  0.2984350000000 1.0
C      1  0.4323740000000  0.2848120000000  0.5696760000000 1.0
C      1  0.3050360000000  0.4928420000000  0.5316050000000 1.0
C      1  0.4556830000000  0.6924960000000  0.5305180000000 1.0
C      1  0.7245930000000  0.6432520000000  0.5887900000000 1.0
C      1  0.6611020000000  0.3848200000000  0.5130000000000 1.0
C      1  0.7591550000000  0.4738790000000  0.6477320000000 1.0
C      1  0.5100490000000  0.3428930000000  0.6754150000000 1.0
C      1  0.2689060000000  0.3492120000000  0.6132360000000 1.0
C      1  0.3113170000000  0.6621240000000  0.6561920000000 1.0
C      1  0.5938230000000  0.7258490000000  0.6433000000000 1.0
C      1  0.6161580000000  0.7646640000000  0.7219720000000 1.0
C      1  0.7977780000000  0.4502910000000  0.7200840000000 1.0
C      1  0.4933930000000  0.3047440000000  0.7504480000000 1.0
C      1  0.2156230000000  0.3475110000000  0.6864180000000 1.0
C      1  0.2806240000000  0.7013790000000  0.7254460000000 1.0
C      1  0.4699780000000  0.4082740000000  0.6015370000000 1.0
C      1  0.4215440000000  0.5036540000000  0.5938850000000 1.0
C      1  0.4955460000000  0.5838500000000  0.5950840000000 1.0
C      1  0.5960970000000  0.5451350000000  0.5792740000000 1.0
C      1  0.5552780000000  0.4519520000000  0.5514390000000 1.0
C      1  0.3772960000000  0.2968870000000  0.2869270000000 1.0
C      1  0.2592970000000  0.5213930000000  0.3280120000000 1.0
C      1  0.4891970000000  0.7549220000000  0.3166640000000 1.0
C      1  0.7243070000000  0.5969250000000  0.2666330000000 1.0
C      1  0.6590290000000  0.3181650000000  0.3053210000000 1.0
C      1  0.6930790000000  0.5454650000000  0.5934340000000 1.0
C      1  0.5902030000000  0.3527160000000  0.5956070000000 1.0
C      1  0.3486570000000  0.2987070000000  0.6056380000000 1.0
C      1  0.3372070000000  0.5691750000000  0.6033270000000 1.0
C      1  0.5092500000000  0.6889380000000  0.6249440000000 1.0
C      1  0.3411130000000  0.5428080000000  0.3645880000000 1.0
C      1  0.5090030000000  0.6745530000000  0.3567680000000 1.0
C      1  0.6702080000000  0.5469160000000  0.3190180000000 1.0
C      1  0.5936960000000  0.3672130000000  0.3482460000000 1.0
C      1  0.3933150000000  0.3705960000000  0.3370180000000 1.0
C      1  0.6588160000000  0.7107490000000  0.5727050000000 1.0
C      1  0.7385760000000  0.4558060000000  0.5410200000000 1.0
C      1  0.5307420000000  0.2650900000000  0.5691650000000 1.0
C      1  0.2510870000000  0.4056130000000  0.5376110000000 1.0
C      1  0.3542720000000  0.6681830000000  0.5536050000000 1.0
C      1  0.4751160000000  0.3616800000000  0.4966760000000 1.0
C      1  0.4039800000000  0.4494290000000  0.4942910000000 1.0
C      1  0.4406280000000  0.5870760000000  0.4927650000000 1.0
C      1  0.5497330000000  0.5617540000000  0.4763070000000 1.0
C      1  0.6170050000000  0.4764540000000  0.4586970000000 1.0
C      1  0.6235480000000  0.7187510000000  0.4843770000000 1.0
C      1  0.7712930000000  0.4907960000000  0.4486750000000 1.0
C      1  0.5610510000000  0.2485550000000  0.4803900000000 1.0
C      1  0.2672620000000  0.3636180000000  0.4525730000000 1.0
C      1  0.2879750000000  0.6648320000000  0.4683910000000 1.0
C      1  0.3467380000000  0.5695040000000  0.4620970000000 1.0
C      1  0.5366250000000  0.6697890000000  0.4541870000000 1.0
C      1  0.6952410000000  0.5070660000000  0.3987540000000 1.0
C      1  0.5760350000000  0.3503680000000  0.4458090000000 1.0
C      1  0.3530990000000  0.3867750000000  0.4193900000000 1.0
END
