TITL C-3036479-9801-264 0.0304773739755631 3375 -343.525469989301 0 0 60 (C1) n - 1
REM
REM in /home/bkarasulu/work/CARBON/AIRSS/Generating-Clusters/REBO/Higher-Symm/Only-C60
REM
REM
REM
REM
REM
REM ./C.cell (a2850807a9bf4ad07a5b6933b78d9264)
REM AIRSS Version 0.9.1 bugfix July 2018 build 013d7b7c2542+ Fri, 06 Jul 2018 19:26:36 +0100
REM compiler GCC version 9.2.1 20190827 (Red Hat 9.2.1-1)
REM options -cpp -mtune=generic -march=x86-64 -g -O0 -fpre-include=/usr/include/finclude/math-vector-fortran.h
REM seed -769721186 931349341 1211296489 541804256 383095385 -374435545 1891610998 -711692682 -122082005 -1725591620 1190105070 200097130 1096864795 1538371945 -486576450 1498836860 463509422 970588815 224927658 -203162538 -1986481796 158873853 414115103 1584936665 -1385059401 148804612 -428138742 1387204269 466659536 -2077509248 543592265 1046190725 -829835985
REM
CELL 1.54180   15.00000   15.00000   15.00000   90.00000   90.00000   90.00000
LATT -1
SFAC C  
C      1  0.5930100000000  0.1936840000000  0.4991820000000 1.0
C      1  0.3934110000000  0.8257250000000  0.4944680000000 1.0
C      1  0.3877390000000  0.2021040000000  0.5023340000000 1.0
C      1  0.5923640000000  0.7790500000000  0.4903480000000 1.0
C      1  0.5693960000000  0.2988570000000  0.3574490000000 1.0
C      1  0.4329610000000  0.7092500000000  0.3499180000000 1.0
C      1  0.4590790000000  0.3123870000000  0.3665600000000 1.0
C      1  0.5436140000000  0.6866630000000  0.3461240000000 1.0
C      1  0.6603310000000  0.3588530000000  0.3569480000000 1.0
C      1  0.3415930000000  0.6448300000000  0.3483590000000 1.0
C      1  0.3856010000000  0.3805600000000  0.3600460000000 1.0
C      1  0.6222200000000  0.6239730000000  0.3443420000000 1.0
C      1  0.3996650000000  0.8552670000000  0.5796250000000 1.0
C      1  0.5929340000000  0.1635470000000  0.5842640000000 1.0
C      1  0.6024900000000  0.8081990000000  0.5750880000000 1.0
C      1  0.3839670000000  0.1704730000000  0.5869190000000 1.0
C      1  0.5570470000000  0.4331180000000  0.5352530000000 1.0
C      1  0.4411610000000  0.5926030000000  0.5296820000000 1.0
C      1  0.4381270000000  0.4997360000000  0.5357840000000 1.0
C      1  0.5682930000000  0.5282950000000  0.5320620000000 1.0
C      1  0.2964700000000  0.5704420000000  0.6973360000000 1.0
C      1  0.7001690000000  0.3937670000000  0.6920700000000 1.0
C      1  0.7059210000000  0.5964800000000  0.6931140000000 1.0
C      1  0.3186370000000  0.3441800000000  0.6683590000000 1.0
C      1  0.2933280000000  0.5412450000000  0.3521530000000 1.0
C      1  0.7124600000000  0.4602330000000  0.3536660000000 1.0
C      1  0.7123840000000  0.5528140000000  0.3466410000000 1.0
C      1  0.2934300000000  0.4484260000000  0.3548100000000 1.0
C      1  0.5463250000000  0.5742580000000  0.6210500000000 1.0
C      1  0.4543590000000  0.4486490000000  0.6574270000000 1.0
C      1  0.4630350000000  0.5489220000000  0.6565400000000 1.0
C      1  0.5372210000000  0.4088540000000  0.6302580000000 1.0
C      1  0.3546990000000  0.4184310000000  0.6283340000000 1.0
C      1  0.6577380000000  0.5536390000000  0.6261240000000 1.0
C      1  0.6461910000000  0.4410910000000  0.6331560000000 1.0
C      1  0.3532330000000  0.5327690000000  0.6323760000000 1.0
C      1  0.6886100000000  0.6045380000000  0.4363120000000 1.0
C      1  0.3173180000000  0.4039760000000  0.4493400000000 1.0
C      1  0.3111250000000  0.5900440000000  0.4446820000000 1.0
C      1  0.6921030000000  0.4182900000000  0.4501930000000 1.0
C      1  0.6949970000000  0.5666400000000  0.5203250000000 1.0
C      1  0.3158810000000  0.4483750000000  0.5316970000000 1.0
C      1  0.3152100000000  0.5496060000000  0.5266660000000 1.0
C      1  0.6860560000000  0.4655920000000  0.5304830000000 1.0
C      1  0.5349900000000  0.7557620000000  0.4206160000000 1.0
C      1  0.4419980000000  0.2365990000000  0.4364130000000 1.0
C      1  0.4351810000000  0.7812620000000  0.4253690000000 1.0
C      1  0.5443490000000  0.2326320000000  0.4297320000000 1.0
C      1  0.5818500000000  0.4292930000000  0.3763470000000 1.0
C      1  0.4224930000000  0.5791940000000  0.3723480000000 1.0
C      1  0.4181790000000  0.4886400000000  0.3732090000000 1.0
C      1  0.5861710000000  0.5191350000000  0.3685110000000 1.0
C      1  0.5517250000000  0.8418570000000  0.6424160000000 1.0
C      1  0.4429150000000  0.1475680000000  0.6522460000000 1.0
C      1  0.4629460000000  0.8623490000000  0.6444630000000 1.0
C      1  0.5340120000000  0.1450030000000  0.6508050000000 1.0
C      1  0.5296410000000  0.3965790000000  0.4487810000000 1.0
C      1  0.4757410000000  0.6181280000000  0.4420460000000 1.0
C      1  0.4458770000000  0.4455660000000  0.4593690000000 1.0
C      1  0.5600270000000  0.5719990000000  0.4494610000000 1.0
END
