TITL C-3036479-9801-378 9.49761668134317e-06 3375 -331.106316581556 0 0 60 (C1) n - 1
REM
REM in /home/bkarasulu/work/CARBON/AIRSS/Generating-Clusters/REBO/Higher-Symm/Only-C60
REM
REM
REM
REM
REM
REM ./C.cell (a2850807a9bf4ad07a5b6933b78d9264)
REM AIRSS Version 0.9.1 bugfix July 2018 build 013d7b7c2542+ Fri, 06 Jul 2018 19:26:36 +0100
REM compiler GCC version 9.2.1 20190827 (Red Hat 9.2.1-1)
REM options -cpp -mtune=generic -march=x86-64 -g -O0 -fpre-include=/usr/include/finclude/math-vector-fortran.h
REM seed 525279850 -2073735416 -1579680439 1814220841 11355073 1960390725 -1104801548 1390322923 790686301 2053997978 -1654908044 1978318814 1863749917 -452081058 243161569 1796013724 -792572073 1606301599 -2032948986 104071323 -1587017464 425142745 -829879519 -1006161735 -1931785527 -371214195 1118517037 -170248834 -1187929773 952913847 -1994944107 1508276431 -1285581002
REM
CELL 1.54180   15.00000   15.00000   15.00000   90.00000   90.00000   90.00000
LATT -1
SFAC C  
C      1  0.4157280000000  0.6831380000000  0.6258390000000 1.0
C      1  0.3344700000000  0.4678830000000  0.6479000000000 1.0
C      1  0.3744140000000  0.5738180000000  0.7650050000000 1.0
C      1  0.3352670000000  0.7127680000000  0.4858990000000 1.0
C      1  0.7363780000000  0.3133490000000  0.4197690000000 1.0
C      1  0.5063820000000  0.6096990000000  0.3097420000000 1.0
C      1  0.4918870000000  0.3368550000000  0.4639850000000 1.0
C      1  0.4894270000000  0.5964800000000  0.3989330000000 1.0
C      1  0.6375030000000  0.5604250000000  0.5375310000000 1.0
C      1  0.6457750000000  0.6286570000000  0.3761820000000 1.0
C      1  0.3946390000000  0.5872160000000  0.5370110000000 1.0
C      1  0.3604970000000  0.3508950000000  0.4808560000000 1.0
C      1  0.5892150000000  0.6420120000000  0.4741900000000 1.0
C      1  0.6530640000000  0.4717670000000  0.4401810000000 1.0
C      1  0.6457960000000  0.3016110000000  0.3522640000000 1.0
C      1  0.6555680000000  0.5701430000000  0.6389260000000 1.0
C      1  0.4610360000000  0.6864320000000  0.4432180000000 1.0
C      1  0.5375070000000  0.2865680000000  0.3733390000000 1.0
C      1  0.4390970000000  0.5346040000000  0.6978740000000 1.0
C      1  0.6027100000000  0.4302300000000  0.3244620000000 1.0
C      1  0.4207630000000  0.4035560000000  0.6837900000000 1.0
C      1  0.4130230000000  0.4419230000000  0.4453590000000 1.0
C      1  0.5310540000000  0.4003020000000  0.6541580000000 1.0
C      1  0.7277320000000  0.2937700000000  0.5092310000000 1.0
C      1  0.5797620000000  0.6347410000000  0.6855760000000 1.0
C      1  0.3452090000000  0.5250780000000  0.4698290000000 1.0
C      1  0.4869910000000  0.4320660000000  0.5287540000000 1.0
C      1  0.5480210000000  0.5182410000000  0.4482070000000 1.0
C      1  0.6984670000000  0.4015000000000  0.3636010000000 1.0
C      1  0.3754030000000  0.2874890000000  0.4028950000000 1.0
C      1  0.6038010000000  0.5960730000000  0.2931890000000 1.0
C      1  0.3294420000000  0.6277480000000  0.6204330000000 1.0
C      1  0.3797520000000  0.3562990000000  0.5929120000000 1.0
C      1  0.3931910000000  0.4941740000000  0.3495360000000 1.0
C      1  0.4281370000000  0.4989280000000  0.5916530000000 1.0
C      1  0.6216000000000  0.3671650000000  0.4665550000000 1.0
C      1  0.4883730000000  0.6086990000000  0.6380400000000 1.0
C      1  0.4314700000000  0.3967590000000  0.3051960000000 1.0
C      1  0.5680130000000  0.4987380000000  0.2703590000000 1.0
C      1  0.2880120000000  0.5593450000000  0.6653260000000 1.0
C      1  0.4998720000000  0.4580120000000  0.7447870000000 1.0
C      1  0.4636590000000  0.3038200000000  0.5566750000000 1.0
C      1  0.3336170000000  0.5785190000000  0.3730860000000 1.0
C      1  0.5713910000000  0.5206790000000  0.6936090000000 1.0
C      1  0.4274970000000  0.7320830000000  0.5383700000000 1.0
C      1  0.5467460000000  0.3101270000000  0.6113810000000 1.0
C      1  0.5374730000000  0.7332460000000  0.5126200000000 1.0
C      1  0.5707960000000  0.4825890000000  0.5862260000000 1.0
C      1  0.6002490000000  0.7327280000000  0.6674620000000 1.0
C      1  0.4720490000000  0.4881480000000  0.2677670000000 1.0
C      1  0.6268520000000  0.2976420000000  0.5556140000000 1.0
C      1  0.2924680000000  0.6527720000000  0.4474560000000 1.0
C      1  0.6939750000000  0.5681540000000  0.4423520000000 1.0
C      1  0.5073220000000  0.5858560000000  0.5299250000000 1.0
C      1  0.5382160000000  0.4164580000000  0.4069130000000 1.0
C      1  0.3899090000000  0.6744840000000  0.3600170000000 1.0
C      1  0.5878100000000  0.7703800000000  0.5937050000000 1.0
C      1  0.6142800000000  0.2547200000000  0.4513000000000 1.0
C      1  0.3203130000000  0.4391140000000  0.5398290000000 1.0
C      1  0.4409320000000  0.3133240000000  0.3432020000000 1.0
END
