TITL C-3036486-2224-575 1.06541568036836e-06 3375 -320.10373962506 0 0 60 (D2) n - 1
REM
REM in /home/bkarasulu/work/CARBON/AIRSS/Generating-Clusters/REBO/Higher-Symm/Only-C60
REM
REM
REM
REM
REM
REM ./C.cell (a2850807a9bf4ad07a5b6933b78d9264)
REM AIRSS Version 0.9.1 bugfix July 2018 build 013d7b7c2542+ Fri, 06 Jul 2018 19:26:36 +0100
REM compiler GCC version 9.2.1 20190827 (Red Hat 9.2.1-1)
REM options -cpp -mtune=generic -march=x86-64 -g -O0 -fpre-include=/usr/include/finclude/math-vector-fortran.h
REM seed -1724398595 1356375142 178726046 -37751836 621456668 430811065 1029075262 -1077107077 1957062848 -350693737 399485813 -478550351 516297911 -476108898 -1060899874 455977219 -1129528151 -2000806043 1647439328 818799918 1889040049 -1802312834 50464071 -1737607988 2045413604 -99178054 -1952267643 -1164057468 56557470 -1440788903 1719607935 -1603182786 1499681891
REM
CELL 1.54180   15.00000   15.00000   15.00000   90.00000   90.00000   90.00000
LATT -1
SFAC C  
C      1  0.3723720000000  0.5519070000000  0.4592510000000 1.0
C      1  0.3723720000000  0.4480930000000  0.5407490000000 1.0
C      1  0.6100210000000  0.5566410000000  0.4353710000000 1.0
C      1  0.6100210000000  0.4433590000000  0.5646290000000 1.0
C      1  0.3899790000000  0.5566410000000  0.5646290000000 1.0
C      1  0.3899790000000  0.4433590000000  0.4353710000000 1.0
C      1  0.6276280000000  0.5519070000000  0.5407490000000 1.0
C      1  0.6276280000000  0.4480930000000  0.4592510000000 1.0
C      1  0.7349010000000  0.4281620000000  0.4420930000000 1.0
C      1  0.7349010000000  0.5718380000000  0.5579070000000 1.0
C      1  0.2775850000000  0.4589790000000  0.4480460000000 1.0
C      1  0.2775850000000  0.5410210000000  0.5519550000000 1.0
C      1  0.7224150000000  0.4589790000000  0.5519540000000 1.0
C      1  0.7224150000000  0.5410220000000  0.4480460000000 1.0
C      1  0.2650990000000  0.4281620000000  0.5579070000000 1.0
C      1  0.2650990000000  0.5718380000000  0.4420940000000 1.0
C      1  0.3517510000000  0.5442450000000  0.2752730000000 1.0
C      1  0.3517510000000  0.4557540000000  0.7247280000000 1.0
C      1  0.6431580000000  0.5483730000000  0.2848100000000 1.0
C      1  0.6431590000000  0.4516270000000  0.7151900000000 1.0
C      1  0.3568420000000  0.5483720000000  0.7151900000000 1.0
C      1  0.3568420000000  0.4516270000000  0.2848100000000 1.0
C      1  0.6482490000000  0.5442450000000  0.7247270000000 1.0
C      1  0.6482490000000  0.4557560000000  0.2752730000000 1.0
C      1  0.4496550000000  0.3179580000000  0.5936110000000 1.0
C      1  0.4496550000000  0.6820420000000  0.4063890000000 1.0
C      1  0.5467940000000  0.3201470000000  0.5909240000000 1.0
C      1  0.5467930000000  0.6798530000000  0.4090770000000 1.0
C      1  0.4532060000000  0.3201470000000  0.4090760000000 1.0
C      1  0.4532060000000  0.6798530000000  0.5909240000000 1.0
C      1  0.5503450000000  0.3179580000000  0.4063880000000 1.0
C      1  0.5503450000000  0.6820420000000  0.5936120000000 1.0
C      1  0.6845880000000  0.6644820000000  0.5799650000000 1.0
C      1  0.6845880000000  0.3355180000000  0.4200350000000 1.0
C      1  0.2952140000000  0.6472540000000  0.5477940000000 1.0
C      1  0.2952140000000  0.3527460000000  0.4522070000000 1.0
C      1  0.7047850000000  0.6472550000000  0.4522070000000 1.0
C      1  0.7047860000000  0.3527460000000  0.5477930000000 1.0
C      1  0.3154120000000  0.6644820000000  0.4200360000000 1.0
C      1  0.3154120000000  0.3355170000000  0.5799640000000 1.0
C      1  0.5364010000000  0.4448960000000  0.6360590000000 1.0
C      1  0.5364000000000  0.5551040000000  0.3639410000000 1.0
C      1  0.4360740000000  0.4466580000000  0.6227220000000 1.0
C      1  0.4360730000000  0.5533420000000  0.3772780000000 1.0
C      1  0.5639260000000  0.4466590000000  0.3772780000000 1.0
C      1  0.5639260000000  0.5533410000000  0.6227220000000 1.0
C      1  0.4635990000000  0.4448970000000  0.3639410000000 1.0
C      1  0.4635990000000  0.5551030000000  0.6360590000000 1.0
C      1  0.6003450000000  0.6338790000000  0.3271670000000 1.0
C      1  0.6003450000000  0.3661210000000  0.6728330000000 1.0
C      1  0.3908730000000  0.6331990000000  0.3225030000000 1.0
C      1  0.3908740000000  0.3668010000000  0.6774970000000 1.0
C      1  0.6091260000000  0.6331980000000  0.6774980000000 1.0
C      1  0.6091270000000  0.3668020000000  0.3225020000000 1.0
C      1  0.3996550000000  0.6338790000000  0.6728340000000 1.0
C      1  0.3996550000000  0.3661210000000  0.3271660000000 1.0
C      1  0.6078040000000  0.3144920000000  0.5023580000000 1.0
C      1  0.3921960000000  0.6855080000000  0.5023590000000 1.0
C      1  0.6078040000000  0.6855080000000  0.4976420000000 1.0
C      1  0.3921960000000  0.3144920000000  0.4976420000000 1.0
END
