TITL C-3036481-494-87 -0.000722141168953057 3375 -332.007966568263 0 0 60 (C2h) n - 1
REM
REM in /home/bkarasulu/work/CARBON/AIRSS/Generating-Clusters/REBO/Higher-Symm/Only-C60
REM
REM
REM
REM
REM
REM ./C.cell (a2850807a9bf4ad07a5b6933b78d9264)
REM AIRSS Version 0.9.1 bugfix July 2018 build 013d7b7c2542+ Fri, 06 Jul 2018 19:26:36 +0100
REM compiler GCC version 9.2.1 20190827 (Red Hat 9.2.1-1)
REM options -cpp -mtune=generic -march=x86-64 -g -O0 -fpre-include=/usr/include/finclude/math-vector-fortran.h
REM seed 1313686918 -390844462 -1869629819 -125917772 871816178 1345801131 -77556202 2026947235 -1197928137 2031619722 -652373988 -150881518 561038732 -835052876 569636474 -1752284756 -1396443258 -1909897356 1527726760 -1789632745 1333385372 916502626 -283650438 -954227638 1931695334 -1301531951 -1510877023 -193720315 -1441373752 -47447189 1554997036 1946151627 1240558351
REM
CELL 1.54180   15.00000   15.00000   15.00000   90.00000   90.00000   90.00000
LATT -1
SFAC C  
C      1  0.2937660000000  0.5794480000000  0.5435140000000 1.0
C      1  0.2937660000000  0.4205520000000  0.4564860000000 1.0
C      1  0.7062340000000  0.5794480000000  0.5435140000000 1.0
C      1  0.7062340000000  0.4205520000000  0.4564860000000 1.0
C      1  0.5852630000000  0.5048530000000  0.5512170000000 1.0
C      1  0.5852630000000  0.4951470000000  0.4487830000000 1.0
C      1  0.4147370000000  0.5048530000000  0.5512170000000 1.0
C      1  0.4147370000000  0.4951470000000  0.4487830000000 1.0
C      1  0.4481770000000  0.5781160000000  0.3969820000000 1.0
C      1  0.4481770000000  0.4218840000000  0.6030180000000 1.0
C      1  0.5518230000000  0.5781160000000  0.3969820000000 1.0
C      1  0.5518230000000  0.4218840000000  0.6030180000000 1.0
C      1  0.3248510000000  0.4220150000000  0.6520770000000 1.0
C      1  0.3248510000000  0.5779850000000  0.3479230000000 1.0
C      1  0.6751490000000  0.4220150000000  0.6520770000000 1.0
C      1  0.6751490000000  0.5779850000000  0.3479230000000 1.0
C      1  0.5567220000000  0.4490070000000  0.7122680000000 1.0
C      1  0.5567220000000  0.5509930000000  0.2877320000000 1.0
C      1  0.4432780000000  0.4490070000000  0.7122680000000 1.0
C      1  0.4432780000000  0.5509930000000  0.2877320000000 1.0
C      1  0.4488660000000  0.2892950000000  0.4530560000000 1.0
C      1  0.4488660000000  0.7107050000000  0.5469440000000 1.0
C      1  0.5511340000000  0.2892950000000  0.4530560000000 1.0
C      1  0.5511340000000  0.7107050000000  0.5469440000000 1.0
C      1  0.5558910000000  0.3906480000000  0.4161980000000 1.0
C      1  0.5558910000000  0.6093520000000  0.5838020000000 1.0
C      1  0.4441090000000  0.3906480000000  0.4161980000000 1.0
C      1  0.4441090000000  0.6093520000000  0.5838020000000 1.0
C      1  0.5934420000000  0.2512790000000  0.5502710000000 1.0
C      1  0.5934420000000  0.7487210000000  0.4497290000000 1.0
C      1  0.4065580000000  0.2512790000000  0.5502710000000 1.0
C      1  0.4065580000000  0.7487210000000  0.4497290000000 1.0
C      1  0.6840220000000  0.5518870000000  0.4584670000000 1.0
C      1  0.6840220000000  0.4481130000000  0.5415330000000 1.0
C      1  0.3159780000000  0.5518870000000  0.4584670000000 1.0
C      1  0.3159780000000  0.4481130000000  0.5415330000000 1.0
C      1  0.3971190000000  0.3461580000000  0.6997810000000 1.0
C      1  0.3971190000000  0.6538420000000  0.3002190000000 1.0
C      1  0.6028810000000  0.3461580000000  0.6997810000000 1.0
C      1  0.6028810000000  0.6538420000000  0.3002190000000 1.0
C      1  0.3471140000000  0.4103520000000  0.3731820000000 1.0
C      1  0.3471140000000  0.5896480000000  0.6268180000000 1.0
C      1  0.6528860000000  0.4103520000000  0.3731820000000 1.0
C      1  0.6528860000000  0.5896480000000  0.6268180000000 1.0
C      1  0.3767320000000  0.2090400000000  0.4498040000000 1.0
C      1  0.3767320000000  0.7909600000000  0.5501960000000 1.0
C      1  0.6232680000000  0.2090400000000  0.4498040000000 1.0
C      1  0.6232680000000  0.7909600000000  0.5501960000000 1.0
C      1  0.5476100000000  0.2585740000000  0.6536540000000 1.0
C      1  0.5476100000000  0.7414260000000  0.3463460000000 1.0
C      1  0.4523900000000  0.2585740000000  0.6536540000000 1.0
C      1  0.4523900000000  0.7414260000000  0.3463460000000 1.0
C      1  0.6285380000000  0.3395130000000  0.5889460000000 1.0
C      1  0.6285380000000  0.6604870000000  0.4110540000000 1.0
C      1  0.3714620000000  0.3395130000000  0.5889460000000 1.0
C      1  0.3714620000000  0.6604870000000  0.4110540000000 1.0
C      1  0.3553470000000  0.5177400000000  0.6905660000000 1.0
C      1  0.3553470000000  0.4822600000000  0.3094340000000 1.0
C      1  0.6446530000000  0.5177400000000  0.6905660000000 1.0
C      1  0.6446530000000  0.4822600000000  0.3094340000000 1.0
END
