TITL C-3036484-3770-913 4.68991770290625e-06 3375 -340.095696252074 0 0 60 (C1) n - 1
REM
REM in /home/bkarasulu/work/CARBON/AIRSS/Generating-Clusters/REBO/Higher-Symm/Only-C60
REM
REM
REM
REM
REM
REM ./C.cell (a2850807a9bf4ad07a5b6933b78d9264)
REM AIRSS Version 0.9.1 bugfix July 2018 build 013d7b7c2542+ Fri, 06 Jul 2018 19:26:36 +0100
REM compiler GCC version 9.2.1 20190827 (Red Hat 9.2.1-1)
REM options -cpp -mtune=generic -march=x86-64 -g -O0 -fpre-include=/usr/include/finclude/math-vector-fortran.h
REM seed -245948109 377945507 1402140333 666319910 880770638 -786026739 -74182716 -1547420785 -1486599534 -1552415926 999073745 44468879 -1944557484 -1923765410 589874463 245022352 1909785829 -645988028 -1683407400 -88368408 94273760 -1999982716 1686793261 1008548287 -1100333312 822037978 -607421079 1615341932 1583446120 -613552744 -1826297472 -468663570 -750389763
REM
CELL 1.54180   15.00000   15.00000   15.00000   90.00000   90.00000   90.00000
LATT -1
SFAC C  
C      1  0.3737140000000  0.3203920000000  0.6065550000000 1.0
C      1  0.4992490000000  0.3492870000000  0.3221220000000 1.0
C      1  0.6635680000000  0.3101500000000  0.5555830000000 1.0
C      1  0.5343550000000  0.4737310000000  0.3543450000000 1.0
C      1  0.6229850000000  0.4699210000000  0.6230490000000 1.0
C      1  0.3320640000000  0.4727220000000  0.5425810000000 1.0
C      1  0.3504160000000  0.3610870000000  0.3531950000000 1.0
C      1  0.6697750000000  0.3716390000000  0.4091700000000 1.0
C      1  0.4753020000000  0.3760470000000  0.7135010000000 1.0
C      1  0.6017710000000  0.7084350000000  0.5300650000000 1.0
C      1  0.4417180000000  0.7115770000000  0.5599390000000 1.0
C      1  0.4964640000000  0.7177110000000  0.4064520000000 1.0
C      1  0.5815380000000  0.5257850000000  0.6985930000000 1.0
C      1  0.2772430000000  0.5101140000000  0.4620910000000 1.0
C      1  0.6195390000000  0.5242250000000  0.3379300000000 1.0
C      1  0.5072090000000  0.2390110000000  0.6365180000000 1.0
C      1  0.4218990000000  0.2453020000000  0.4248190000000 1.0
C      1  0.5757130000000  0.2490020000000  0.4444830000000 1.0
C      1  0.6663620000000  0.5257500000000  0.5357280000000 1.0
C      1  0.3869040000000  0.5334730000000  0.6202710000000 1.0
C      1  0.4406570000000  0.5373760000000  0.3491820000000 1.0
C      1  0.3657740000000  0.4632240000000  0.3054990000000 1.0
C      1  0.7219350000000  0.4437020000000  0.4795300000000 1.0
C      1  0.3967460000000  0.4562100000000  0.7036670000000 1.0
C      1  0.3414400000000  0.4087750000000  0.6268290000000 1.0
C      1  0.4670970000000  0.4331720000000  0.2736530000000 1.0
C      1  0.6945350000000  0.4009420000000  0.5712910000000 1.0
C      1  0.4971670000000  0.4755320000000  0.7538820000000 1.0
C      1  0.2800410000000  0.4410660000000  0.3771660000000 1.0
C      1  0.7085160000000  0.4651280000000  0.3688570000000 1.0
C      1  0.5067530000000  0.3228690000000  0.4910530000000 1.0
C      1  0.5654160000000  0.3062650000000  0.5813890000000 1.0
C      1  0.3993930000000  0.3143730000000  0.5079210000000 1.0
C      1  0.6617410000000  0.2832270000000  0.4618680000000 1.0
C      1  0.4371510000000  0.2895280000000  0.6709580000000 1.0
C      1  0.4240210000000  0.2950000000000  0.3462420000000 1.0
C      1  0.5317710000000  0.7206700000000  0.6874480000000 1.0
C      1  0.3408740000000  0.7181210000000  0.4257880000000 1.0
C      1  0.6658660000000  0.7218210000000  0.3870880000000 1.0
C      1  0.4616860000000  0.6490440000000  0.3449260000000 1.0
C      1  0.6727530000000  0.6389120000000  0.5291680000000 1.0
C      1  0.3990010000000  0.6464320000000  0.6223690000000 1.0
C      1  0.4762230000000  0.5601820000000  0.6857320000000 1.0
C      1  0.3377210000000  0.5577180000000  0.3928110000000 1.0
C      1  0.6780690000000  0.5561490000000  0.4264740000000 1.0
C      1  0.3607480000000  0.6472000000000  0.3634260000000 1.0
C      1  0.7158120000000  0.6537920000000  0.4320180000000 1.0
C      1  0.4602440000000  0.6611350000000  0.7093350000000 1.0
C      1  0.1139510000000  0.5878790000000  0.5045540000000 1.0
C      1  0.6261070000000  0.6317370000000  0.1868330000000 1.0
C      1  0.6977930000000  0.6355970000000  0.7929740000000 1.0
C      1  0.3404810000000  0.3929270000000  0.4625140000000 1.0
C      1  0.5601500000000  0.3762380000000  0.4063400000000 1.0
C      1  0.5564150000000  0.3884010000000  0.6441940000000 1.0
C      1  0.5846930000000  0.7358810000000  0.4363150000000 1.0
C      1  0.5334830000000  0.7303460000000  0.5921030000000 1.0
C      1  0.4236390000000  0.7380550000000  0.4706620000000 1.0
C      1  0.1887180000000  0.5522730000000  0.4851120000000 1.0
C      1  0.6230960000000  0.5824500000000  0.2560990000000 1.0
C      1  0.6445380000000  0.5852910000000  0.7497400000000 1.0
END
