TITL C-3036481-494-1135 6.67992457468403e-07 3375 -336.073431598181 0 0 60 (C1) n - 1
REM
REM in /home/bkarasulu/work/CARBON/AIRSS/Generating-Clusters/REBO/Higher-Symm/Only-C60
REM
REM
REM
REM
REM
REM ./C.cell (a2850807a9bf4ad07a5b6933b78d9264)
REM AIRSS Version 0.9.1 bugfix July 2018 build 013d7b7c2542+ Fri, 06 Jul 2018 19:26:36 +0100
REM compiler GCC version 9.2.1 20190827 (Red Hat 9.2.1-1)
REM options -cpp -mtune=generic -march=x86-64 -g -O0 -fpre-include=/usr/include/finclude/math-vector-fortran.h
REM seed -911741262 769766872 -2122681034 1336167567 450730568 -1747315756 -528988297 357155766 -165938653 251418388 411318417 625855578 87364132 -598387414 -767973281 -1404858639 -1015357653 -139163928 197589595 -1371968473 1474314770 -1044940266 -82892090 -756422555 -166089257 -1882677824 -1673145015 -1537263068 -811655676 -1540362255 -2071316417 564578885 1446585996
REM
CELL 1.54180   15.00000   15.00000   15.00000   90.00000   90.00000   90.00000
LATT -1
SFAC C  
C      1  0.5340670000000  0.3212800000000  0.3765990000000 1.0
C      1  0.5317240000000  0.6801950000000  0.3773160000000 1.0
C      1  0.4698700000000  0.4119940000000  0.3737170000000 1.0
C      1  0.4709790000000  0.5859660000000  0.3798310000000 1.0
C      1  0.4388180000000  0.4407230000000  0.4688420000000 1.0
C      1  0.4409050000000  0.5480780000000  0.4715330000000 1.0
C      1  0.4779390000000  0.4528010000000  0.7604210000000 1.0
C      1  0.4940340000000  0.5566440000000  0.7642580000000 1.0
C      1  0.4060510000000  0.5784530000000  0.2880850000000 1.0
C      1  0.4125810000000  0.4686530000000  0.2959290000000 1.0
C      1  0.5613310000000  0.4635200000000  0.6267330000000 1.0
C      1  0.5830070000000  0.5640950000000  0.6274090000000 1.0
C      1  0.7019440000000  0.4534820000000  0.3521020000000 1.0
C      1  0.6984250000000  0.5568760000000  0.3353050000000 1.0
C      1  0.4725250000000  0.5621450000000  0.6226090000000 1.0
C      1  0.4475340000000  0.4544980000000  0.6295970000000 1.0
C      1  0.5387760000000  0.3987970000000  0.7080800000000 1.0
C      1  0.5523270000000  0.6131660000000  0.7164010000000 1.0
C      1  0.3471600000000  0.4416000000000  0.5811150000000 1.0
C      1  0.3663740000000  0.5483100000000  0.5820350000000 1.0
C      1  0.5607320000000  0.6719390000000  0.5527060000000 1.0
C      1  0.5580360000000  0.3246090000000  0.5567490000000 1.0
C      1  0.3393550000000  0.4388330000000  0.3748470000000 1.0
C      1  0.3410980000000  0.5473760000000  0.3760720000000 1.0
C      1  0.5236670000000  0.4478640000000  0.2803710000000 1.0
C      1  0.5166080000000  0.5506670000000  0.2826230000000 1.0
C      1  0.4736110000000  0.6553190000000  0.4944650000000 1.0
C      1  0.4740930000000  0.3349920000000  0.4947400000000 1.0
C      1  0.3397430000000  0.6609510000000  0.3814060000000 1.0
C      1  0.3398610000000  0.3286480000000  0.3807550000000 1.0
C      1  0.5229960000000  0.6827220000000  0.6487010000000 1.0
C      1  0.5179000000000  0.3182320000000  0.6534930000000 1.0
C      1  0.7230670000000  0.5370440000000  0.5234280000000 1.0
C      1  0.7114800000000  0.4384330000000  0.5377420000000 1.0
C      1  0.3667900000000  0.6344640000000  0.6559400000000 1.0
C      1  0.3599090000000  0.3576950000000  0.6546470000000 1.0
C      1  0.7696330000000  0.4425760000000  0.4428090000000 1.0
C      1  0.7653320000000  0.5551640000000  0.4271840000000 1.0
C      1  0.4253600000000  0.2941900000000  0.6554010000000 1.0
C      1  0.4291880000000  0.7017250000000  0.6542550000000 1.0
C      1  0.3905970000000  0.2689650000000  0.5249750000000 1.0
C      1  0.3883070000000  0.7194930000000  0.5292100000000 1.0
C      1  0.5971930000000  0.5947190000000  0.3406430000000 1.0
C      1  0.5994990000000  0.4087980000000  0.3445850000000 1.0
C      1  0.6072470000000  0.6702030000000  0.4491120000000 1.0
C      1  0.6049260000000  0.3343060000000  0.4538490000000 1.0
C      1  0.4284820000000  0.7083850000000  0.4036920000000 1.0
C      1  0.4313800000000  0.2882160000000  0.3999640000000 1.0
C      1  0.7000400000000  0.3585930000000  0.4156270000000 1.0
C      1  0.7017890000000  0.6465780000000  0.4051080000000 1.0
C      1  0.6113990000000  0.4513730000000  0.4496380000000 1.0
C      1  0.6163970000000  0.5534380000000  0.4454430000000 1.0
C      1  0.3151920000000  0.3035450000000  0.4805390000000 1.0
C      1  0.3141210000000  0.6842630000000  0.4824570000000 1.0
C      1  0.6404180000000  0.5926380000000  0.5496480000000 1.0
C      1  0.6125850000000  0.4154380000000  0.5574250000000 1.0
C      1  0.3750410000000  0.4408510000000  0.7206360000000 1.0
C      1  0.3971990000000  0.5462690000000  0.7116860000000 1.0
C      1  0.3303980000000  0.4103090000000  0.4844520000000 1.0
C      1  0.3329620000000  0.5789020000000  0.4850600000000 1.0
END
