TITL C-3036481-494-965 -3.25174022870689e-08 3375 -341.337105239372 0 0 60 (D3) n - 1
REM
REM in /home/bkarasulu/work/CARBON/AIRSS/Generating-Clusters/REBO/Higher-Symm/Only-C60
REM
REM
REM
REM
REM
REM ./C.cell (a2850807a9bf4ad07a5b6933b78d9264)
REM AIRSS Version 0.9.1 bugfix July 2018 build 013d7b7c2542+ Fri, 06 Jul 2018 19:26:36 +0100
REM compiler GCC version 9.2.1 20190827 (Red Hat 9.2.1-1)
REM options -cpp -mtune=generic -march=x86-64 -g -O0 -fpre-include=/usr/include/finclude/math-vector-fortran.h
REM seed 1483155027 -485739929 443686077 967449620 -687773974 261553926 -470855939 1586674978 -537789413 -28829528 238726297 -1943290913 1358762806 -1000672091 -1625248219 793625886 -773873038 635773861 -2054179430 -511172743 2019038506 115326116 -59780059 1282274469 -1146298535 -1117310814 1322649025 -1576551869 -1006550270 -1589001979 -747856145 393481033 752456376
REM
CELL 1.54180   15.00000   15.00000   15.00000   90.00000   90.00000   90.00000
LATT -1
SFAC C  
C      1  0.2834790000000  0.4178710000000  0.4835690000000 1.0
C      1  0.6224900000000  0.4178710000000  0.3207030000000 1.0
C      1  0.5940300000000  0.4178710000000  0.6957280000000 1.0
C      1  0.7165210000000  0.5821290000000  0.4835690000000 1.0
C      1  0.3775100000000  0.5821290000000  0.3207030000000 1.0
C      1  0.4059700000000  0.5821290000000  0.6957280000000 1.0
C      1  0.3385560000000  0.6323250000000  0.5671360000000 1.0
C      1  0.5225810000000  0.6323250000000  0.3266170000000 1.0
C      1  0.6388630000000  0.6323250000000  0.6062470000000 1.0
C      1  0.6614440000000  0.3676750000000  0.5671360000000 1.0
C      1  0.4774190000000  0.3676750000000  0.3266170000000 1.0
C      1  0.3611370000000  0.3676750000000  0.6062470000000 1.0
C      1  0.5883510000000  0.5860170000000  0.5175320000000 1.0
C      1  0.4406410000000  0.5860170000000  0.5677480000000 1.0
C      1  0.4710080000000  0.5860170000000  0.4147200000000 1.0
C      1  0.4116490000000  0.4139830000000  0.5175320000000 1.0
C      1  0.5593590000000  0.4139830000000  0.5677480000000 1.0
C      1  0.5289920000000  0.4139830000000  0.4147200000000 1.0
C      1  0.5486990000000  0.4892100000000  0.7634550000000 1.0
C      1  0.2474910000000  0.4892100000000  0.4104470000000 1.0
C      1  0.7038090000000  0.4892100000000  0.3260980000000 1.0
C      1  0.4513010000000  0.5107900000000  0.7634550000000 1.0
C      1  0.7525090000000  0.5107900000000  0.4104470000000 1.0
C      1  0.2961910000000  0.5107900000000  0.3260980000000 1.0
C      1  0.6155790000000  0.3432190000000  0.4059380000000 1.0
C      1  0.5236700000000  0.3432190000000  0.6471250000000 1.0
C      1  0.3607510000000  0.3432190000000  0.4469360000000 1.0
C      1  0.3844210000000  0.6567810000000  0.4059380000000 1.0
C      1  0.4763300000000  0.6567810000000  0.6471250000000 1.0
C      1  0.6392490000000  0.6567810000000  0.4469360000000 1.0
C      1  0.5729810000000  0.6480530000000  0.6802650000000 1.0
C      1  0.3073950000000  0.6480530000000  0.4730710000000 1.0
C      1  0.6196240000000  0.6480530000000  0.3466640000000 1.0
C      1  0.4270190000000  0.3519470000000  0.6802650000000 1.0
C      1  0.6926050000000  0.3519470000000  0.4730710000000 1.0
C      1  0.3803760000000  0.3519470000000  0.3466640000000 1.0
C      1  0.7118670000000  0.4499830000000  0.4765540000000 1.0
C      1  0.4143710000000  0.4499830000000  0.6952050000000 1.0
C      1  0.3737620000000  0.4499830000000  0.3282400000000 1.0
C      1  0.2881330000000  0.5500170000000  0.4765540000000 1.0
C      1  0.5856290000000  0.5500170000000  0.6952050000000 1.0
C      1  0.6262380000000  0.5500170000000  0.3282400000000 1.0
C      1  0.4798580000000  0.7128210000000  0.5585650000000 1.0
C      1  0.4593520000000  0.7128210000000  0.4532740000000 1.0
C      1  0.5607900000000  0.7128210000000  0.4881610000000 1.0
C      1  0.5201420000000  0.2871790000000  0.5585650000000 1.0
C      1  0.5406480000000  0.2871790000000  0.4532740000000 1.0
C      1  0.4392100000000  0.2871790000000  0.4881610000000 1.0
C      1  0.6139660000000  0.4796040000000  0.4934010000000 1.0
C      1  0.4487320000000  0.4796040000000  0.6019970000000 1.0
C      1  0.4373020000000  0.4796040000000  0.4046020000000 1.0
C      1  0.3860340000000  0.5203960000000  0.4934010000000 1.0
C      1  0.5512680000000  0.5203960000000  0.6019970000000 1.0
C      1  0.5626980000000  0.5203960000000  0.4046020000000 1.0
C      1  0.5263910000000  0.4566990000000  0.2892410000000 1.0
C      1  0.6693270000000  0.4566990000000  0.6282350000000 1.0
C      1  0.3042820000000  0.4566990000000  0.5825240000000 1.0
C      1  0.4736090000000  0.5433010000000  0.2892410000000 1.0
C      1  0.3306730000000  0.5433010000000  0.6282350000000 1.0
C      1  0.6957180000000  0.5433010000000  0.5825240000000 1.0
END
