TITL C-3036479-9801-1168 -0.0535239308820472 3375 -313.06077347689 0 0 60 (C1) n - 1
REM
REM in /home/bkarasulu/work/CARBON/AIRSS/Generating-Clusters/REBO/Higher-Symm/Only-C60
REM
REM
REM
REM
REM
REM ./C.cell (a2850807a9bf4ad07a5b6933b78d9264)
REM AIRSS Version 0.9.1 bugfix July 2018 build 013d7b7c2542+ Fri, 06 Jul 2018 19:26:36 +0100
REM compiler GCC version 9.2.1 20190827 (Red Hat 9.2.1-1)
REM options -cpp -mtune=generic -march=x86-64 -g -O0 -fpre-include=/usr/include/finclude/math-vector-fortran.h
REM seed -413581503 -1614032314 -1767437855 -308585334 1363400226 1292780624 729526838 712628756 1235179415 -1534880543 1368240367 -37914298 -2035090123 302724989 2113271709 -1985994884 1592364808 1791076635 445982444 -1344116574 2020831579 -566826947 2133238587 -1931912359 -1246649593 -1903229453 990588846 -1649098327 882486745 -1059007215 1067478476 1785596568 -672313541
REM
CELL 1.54180   15.00000   15.00000   15.00000   90.00000   90.00000   90.00000
LATT -1
SFAC C  
C      1  0.6536430000000  0.4103420000000  0.6136770000000 1.0
C      1  0.6685790000000  0.5828720000000  0.3751620000000 1.0
C      1  0.6543050000000  0.4039700000000  0.3786020000000 1.0
C      1  0.6656570000000  0.5914750000000  0.6100730000000 1.0
C      1  0.4334680000000  0.6194410000000  0.4072690000000 1.0
C      1  0.4510150000000  0.4144950000000  0.5779960000000 1.0
C      1  0.4459280000000  0.6205950000000  0.5778870000000 1.0
C      1  0.4477340000000  0.4106670000000  0.4175510000000 1.0
C      1  0.5446770000000  0.2870210000000  0.4332360000000 1.0
C      1  0.5365600000000  0.7020530000000  0.5688000000000 1.0
C      1  0.5462000000000  0.2875610000000  0.5657320000000 1.0
C      1  0.5616340000000  0.7014620000000  0.3998730000000 1.0
C      1  0.6950760000000  0.6628150000000  0.5453630000000 1.0
C      1  0.7011530000000  0.3378410000000  0.4428630000000 1.0
C      1  0.6896390000000  0.6604640000000  0.4378950000000 1.0
C      1  0.6999380000000  0.3416570000000  0.5519730000000 1.0
C      1  0.5723990000000  0.6271230000000  0.3459230000000 1.0
C      1  0.5610490000000  0.3527670000000  0.6343490000000 1.0
C      1  0.5633890000000  0.6289640000000  0.6397400000000 1.0
C      1  0.5592370000000  0.3495950000000  0.3621550000000 1.0
C      1  0.3930850000000  0.7827950000000  0.6041120000000 1.0
C      1  0.4120520000000  0.2086510000000  0.4245460000000 1.0
C      1  0.4603800000000  0.8020990000000  0.4622270000000 1.0
C      1  0.4126580000000  0.2100340000000  0.5779160000000 1.0
C      1  0.2689500000000  0.4325900000000  0.5732180000000 1.0
C      1  0.2634370000000  0.5680200000000  0.4268820000000 1.0
C      1  0.2627670000000  0.3925790000000  0.4041310000000 1.0
C      1  0.2693940000000  0.5909180000000  0.5882820000000 1.0
C      1  0.4987310000000  0.3793410000000  0.6970690000000 1.0
C      1  0.5077930000000  0.5864760000000  0.2955580000000 1.0
C      1  0.4971540000000  0.3763900000000  0.2991220000000 1.0
C      1  0.5011340000000  0.5906670000000  0.6974680000000 1.0
C      1  0.4553500000000  0.2610490000000  0.5007060000000 1.0
C      1  0.4423020000000  0.7416510000000  0.5341390000000 1.0
C      1  0.7272070000000  0.4887850000000  0.3994850000000 1.0
C      1  0.7256540000000  0.4962540000000  0.5939900000000 1.0
C      1  0.3698790000000  0.4993000000000  0.6770230000000 1.0
C      1  0.3690560000000  0.4876680000000  0.3115970000000 1.0
C      1  0.3893780000000  0.6553490000000  0.4933360000000 1.0
C      1  0.4114100000000  0.3584950000000  0.4997600000000 1.0
C      1  0.2943390000000  0.6234230000000  0.5001540000000 1.0
C      1  0.3097120000000  0.3629580000000  0.5003040000000 1.0
C      1  0.2861810000000  0.5056660000000  0.6336610000000 1.0
C      1  0.2828560000000  0.4866910000000  0.3503130000000 1.0
C      1  0.4717800000000  0.4824470000000  0.2666670000000 1.0
C      1  0.4697250000000  0.4851370000000  0.7264440000000 1.0
C      1  0.6301970000000  0.2725170000000  0.4987730000000 1.0
C      1  0.6072490000000  0.7129490000000  0.4976710000000 1.0
C      1  0.5818290000000  0.4770920000000  0.2941030000000 1.0
C      1  0.5788790000000  0.4838950000000  0.6953930000000 1.0
C      1  0.5943930000000  0.5064350000000  0.5978580000000 1.0
C      1  0.5964400000000  0.5009300000000  0.3920090000000 1.0
C      1  0.4348290000000  0.5151950000000  0.3895400000000 1.0
C      1  0.4409590000000  0.5199250000000  0.6018910000000 1.0
C      1  0.5632720000000  0.5129620000000  0.4941620000000 1.0
C      1  0.4626430000000  0.5178270000000  0.4949000000000 1.0
C      1  0.6761160000000  0.5250350000000  0.4949380000000 1.0
C      1  0.3552640000000  0.5005640000000  0.4955480000000 1.0
C      1  0.2453410000000  0.4746480000000  0.4762890000000 1.0
C      1  0.7845300000000  0.4871760000000  0.4974610000000 1.0
END
