TITL C-3036483-1610-1104 -9.48649230138337e-06 3375 -323.562562668656 0 0 60 (Ci) n - 1
REM
REM in /home/bkarasulu/work/CARBON/AIRSS/Generating-Clusters/REBO/Higher-Symm/Only-C60
REM
REM
REM
REM
REM
REM ./C.cell (a2850807a9bf4ad07a5b6933b78d9264)
REM AIRSS Version 0.9.1 bugfix July 2018 build 013d7b7c2542+ Fri, 06 Jul 2018 19:26:36 +0100
REM compiler GCC version 9.2.1 20190827 (Red Hat 9.2.1-1)
REM options -cpp -mtune=generic -march=x86-64 -g -O0 -fpre-include=/usr/include/finclude/math-vector-fortran.h
REM seed -1113314000 -1944999639 -502651846 -1204064835 171847499 724635042 -837683817 674171159 638978388 816800108 842704744 1415790146 2264510 1731254682 -945054106 668934200 1752609081 -244159156 -1190926001 -401621340 906578677 2043473322 -1537899604 24580008 -1001859182 -1049914494 -1478191411 -1522836517 1892586597 735104923 -1047158584 -1119269639 965271124
REM
CELL 1.54180   15.00000   15.00000   15.00000   90.00000   90.00000   90.00000
LATT -1
SFAC C  
C      1  0.3637040000000  0.3055650000000  0.4074210000000 1.0
C      1  0.3486550000000  0.7112090000000  0.6113240000000 1.0
C      1  0.6513450000000  0.2887910000000  0.3886750000000 1.0
C      1  0.6362960000000  0.6944340000000  0.5925790000000 1.0
C      1  0.3611010000000  0.6966570000000  0.4175000000000 1.0
C      1  0.3512840000000  0.3105090000000  0.5998610000000 1.0
C      1  0.6487160000000  0.6894910000000  0.4001390000000 1.0
C      1  0.6388990000000  0.3033430000000  0.5825000000000 1.0
C      1  0.6510880000000  0.4028960000000  0.6364450000000 1.0
C      1  0.6472740000000  0.5890310000000  0.3463130000000 1.0
C      1  0.3527250000000  0.4109700000000  0.6536870000000 1.0
C      1  0.3489130000000  0.5971040000000  0.3635550000000 1.0
C      1  0.6255070000000  0.5969090000000  0.6506440000000 1.0
C      1  0.6602960000000  0.3900320000000  0.3371300000000 1.0
C      1  0.3397040000000  0.6099680000000  0.6628690000000 1.0
C      1  0.3744930000000  0.4030910000000  0.3493560000000 1.0
C      1  0.4328660000000  0.6492400000000  0.5781060000000 1.0
C      1  0.4667570000000  0.3425350000000  0.4224380000000 1.0
C      1  0.5332430000000  0.6574650000000  0.5775620000000 1.0
C      1  0.5671340000000  0.3507600000000  0.4218930000000 1.0
C      1  0.4502450000000  0.3559810000000  0.5848090000000 1.0
C      1  0.4519700000000  0.6360270000000  0.4352810000000 1.0
C      1  0.5480300000000  0.3639740000000  0.5647200000000 1.0
C      1  0.5497550000000  0.6440190000000  0.4151920000000 1.0
C      1  0.3379900000000  0.4421040000000  0.4496430000000 1.0
C      1  0.2898850000000  0.5648380000000  0.5709860000000 1.0
C      1  0.7101150000000  0.4351630000000  0.4290140000000 1.0
C      1  0.6620100000000  0.5578960000000  0.5503560000000 1.0
C      1  0.3114510000000  0.5487390000000  0.4599000000000 1.0
C      1  0.3128700000000  0.4597480000000  0.5590950000000 1.0
C      1  0.6871300000000  0.5402520000000  0.4409040000000 1.0
C      1  0.6885500000000  0.4512610000000  0.5401000000000 1.0
C      1  0.4258570000000  0.5418070000000  0.4557200000000 1.0
C      1  0.4252330000000  0.4484990000000  0.5499430000000 1.0
C      1  0.5747670000000  0.5515000000000  0.4500570000000 1.0
C      1  0.5741430000000  0.4581920000000  0.5442800000000 1.0
C      1  0.4535760000000  0.4385250000000  0.4490530000000 1.0
C      1  0.4013090000000  0.5590410000000  0.5573000000000 1.0
C      1  0.5986910000000  0.4409580000000  0.4427000000000 1.0
C      1  0.5464230000000  0.5614750000000  0.5509470000000 1.0
C      1  0.5568770000000  0.4422050000000  0.6750800000000 1.0
C      1  0.5557340000000  0.5422120000000  0.3187710000000 1.0
C      1  0.4442660000000  0.4577890000000  0.6812290000000 1.0
C      1  0.4431230000000  0.5577950000000  0.3249200000000 1.0
C      1  0.5422630000000  0.5478240000000  0.6830350000000 1.0
C      1  0.5700920000000  0.4355390000000  0.3128180000000 1.0
C      1  0.4299080000000  0.5644620000000  0.6871820000000 1.0
C      1  0.4577370000000  0.4521760000000  0.3169650000000 1.0
C      1  0.4426180000000  0.2473690000000  0.6228790000000 1.0
C      1  0.4622900000000  0.7406040000000  0.3907300000000 1.0
C      1  0.5377100000000  0.2593960000000  0.6092710000000 1.0
C      1  0.5573820000000  0.7526320000000  0.3771230000000 1.0
C      1  0.4535350000000  0.7529710000000  0.6228740000000 1.0
C      1  0.4498910000000  0.2378260000000  0.3781250000000 1.0
C      1  0.5501090000000  0.7621740000000  0.6218740000000 1.0
C      1  0.5464650000000  0.2470290000000  0.3771250000000 1.0
C      1  0.3139920000000  0.2956260000000  0.5004200000000 1.0
C      1  0.6859210000000  0.2764500000000  0.4921920000000 1.0
C      1  0.3140780000000  0.7235500000000  0.5078080000000 1.0
C      1  0.6860090000000  0.7043740000000  0.4995800000000 1.0
END
