TITL C-3036481-494-181 0.00043668598437882 3375 -352.293174527973 0 0 60 (C1) n - 1
REM
REM in /home/bkarasulu/work/CARBON/AIRSS/Generating-Clusters/REBO/Higher-Symm/Only-C60
REM
REM
REM
REM
REM
REM ./C.cell (a2850807a9bf4ad07a5b6933b78d9264)
REM AIRSS Version 0.9.1 bugfix July 2018 build 013d7b7c2542+ Fri, 06 Jul 2018 19:26:36 +0100
REM compiler GCC version 9.2.1 20190827 (Red Hat 9.2.1-1)
REM options -cpp -mtune=generic -march=x86-64 -g -O0 -fpre-include=/usr/include/finclude/math-vector-fortran.h
REM seed -2050060012 1478205075 -1782853738 1352795187 557648133 846500123 -1370748331 -1970833028 737631441 -1254284450 776330325 186264439 -673393866 2017577019 1858284374 -793082507 -1899249629 1636891129 1242879516 -227485116 -1543049965 2034419933 -659733499 -1217954498 -68779581 -2044085297 -1744463001 -240366391 1311938079 403642219 758746670 -1064180682 -2083865709
REM
CELL 1.54180   15.00000   15.00000   15.00000   90.00000   90.00000   90.00000
LATT -1
SFAC C  
C      1  0.2642940000000  0.6255940000000  0.5288080000000 1.0
C      1  0.7018330000000  0.3596320000000  0.5331670000000 1.0
C      1  0.6177560000000  0.6000650000000  0.4300940000000 1.0
C      1  0.7438290000000  0.6406090000000  0.6168400000000 1.0
C      1  0.6696340000000  0.5105700000000  0.6907000000000 1.0
C      1  0.5604010000000  0.7729690000000  0.5212600000000 1.0
C      1  0.5806870000000  0.7632280000000  0.4286990000000 1.0
C      1  0.7620530000000  0.5877870000000  0.5277860000000 1.0
C      1  0.3013740000000  0.6048710000000  0.6192830000000 1.0
C      1  0.2975400000000  0.3563250000000  0.5203970000000 1.0
C      1  0.4408570000000  0.5662460000000  0.3287610000000 1.0
C      1  0.4212930000000  0.3175200000000  0.3563640000000 1.0
C      1  0.4527850000000  0.2370630000000  0.5525120000000 1.0
C      1  0.5970220000000  0.6080740000000  0.3190740000000 1.0
C      1  0.3708370000000  0.6428970000000  0.4096330000000 1.0
C      1  0.5196720000000  0.1991560000000  0.4735780000000 1.0
C      1  0.5099260000000  0.5660500000000  0.2675440000000 1.0
C      1  0.5345740000000  0.4159060000000  0.6689990000000 1.0
C      1  0.5972360000000  0.4999890000000  0.5150130000000 1.0
C      1  0.6183290000000  0.7415190000000  0.5886760000000 1.0
C      1  0.3407560000000  0.3052750000000  0.4286320000000 1.0
C      1  0.2522670000000  0.5396530000000  0.4881170000000 1.0
C      1  0.3207850000000  0.4613720000000  0.5326600000000 1.0
C      1  0.4585930000000  0.5645340000000  0.5785610000000 1.0
C      1  0.4559310000000  0.4891570000000  0.6632240000000 1.0
C      1  0.6722490000000  0.3164770000000  0.4627430000000 1.0
C      1  0.5946360000000  0.2517690000000  0.4120540000000 1.0
C      1  0.4805260000000  0.6318650000000  0.4108150000000 1.0
C      1  0.3640010000000  0.4433950000000  0.6571850000000 1.0
C      1  0.4567330000000  0.4038810000000  0.3459870000000 1.0
C      1  0.3292550000000  0.6837540000000  0.4836220000000 1.0
C      1  0.6035490000000  0.4990350000000  0.3335170000000 1.0
C      1  0.6961090000000  0.4348780000000  0.6099440000000 1.0
C      1  0.6568510000000  0.6728240000000  0.6398490000000 1.0
C      1  0.4907880000000  0.2374690000000  0.3705270000000 1.0
C      1  0.5918260000000  0.4180210000000  0.5799360000000 1.0
C      1  0.7551780000000  0.5277940000000  0.6212290000000 1.0
C      1  0.6082220000000  0.6057220000000  0.6851380000000 1.0
C      1  0.6320810000000  0.3954060000000  0.3027050000000 1.0
C      1  0.5131630000000  0.5740730000000  0.7137000000000 1.0
C      1  0.4918870000000  0.3932300000000  0.5462140000000 1.0
C      1  0.3943810000000  0.7197700000000  0.5502330000000 1.0
C      1  0.7022300000000  0.5935930000000  0.4584830000000 1.0
C      1  0.5302750000000  0.4244130000000  0.2872750000000 1.0
C      1  0.4695600000000  0.4540390000000  0.4261920000000 1.0
C      1  0.5534000000000  0.6990230000000  0.3712620000000 1.0
C      1  0.4685390000000  0.7750450000000  0.5422920000000 1.0
C      1  0.5590800000000  0.4810950000000  0.4260650000000 1.0
C      1  0.2952640000000  0.5097410000000  0.6309000000000 1.0
C      1  0.3935010000000  0.6394800000000  0.6079000000000 1.0
C      1  0.2848720000000  0.4953590000000  0.4052550000000 1.0
C      1  0.3582430000000  0.3597640000000  0.6103510000000 1.0
C      1  0.4236300000000  0.4749990000000  0.5200940000000 1.0
C      1  0.3427840000000  0.5549760000000  0.3579190000000 1.0
C      1  0.4440170000000  0.3222500000000  0.5888240000000 1.0
C      1  0.6547460000000  0.3270550000000  0.3583610000000 1.0
C      1  0.4097400000000  0.2259850000000  0.4507840000000 1.0
C      1  0.2886980000000  0.4030980000000  0.4172070000000 1.0
C      1  0.5276110000000  0.5879960000000  0.4986050000000 1.0
C      1  0.5721100000000  0.4866640000000  0.7284510000000 1.0
END
