TITL C-3036485-3770-255 -1.68546179559371e-05 3375 -341.676545365244 0 0 60 (S4) n - 1
REM
REM in /home/bkarasulu/work/CARBON/AIRSS/Generating-Clusters/REBO/Higher-Symm/Only-C60
REM
REM
REM
REM
REM
REM ./C.cell (a2850807a9bf4ad07a5b6933b78d9264)
REM AIRSS Version 0.9.1 bugfix July 2018 build 013d7b7c2542+ Fri, 06 Jul 2018 19:26:36 +0100
REM compiler GCC version 9.2.1 20190827 (Red Hat 9.2.1-1)
REM options -cpp -mtune=generic -march=x86-64 -g -O0 -fpre-include=/usr/include/finclude/math-vector-fortran.h
REM seed -1355807908 -402717808 -1516850084 595950849 1476253508 -1774833747 387007965 -1938939783 -701148753 -21950135 280689286 -1777019197 -1012000456 2099257268 -1342724645 -520769222 456819822 1441732734 -263346273 -1253512296 328775301 1025925917 -977552831 2095654217 -346616854 1047511572 530904086 -1336897288 -1228028066 -708924401 -426121602 -1323153380 -406820627
REM
CELL 1.54180   15.00000   15.00000   15.00000   90.00000   90.00000   90.00000
LATT -1
SFAC C  
C      1  0.5973290000000  0.6258340000000  0.3657520000000 1.0
C      1  0.3657520000000  0.3741650000000  0.4026710000000 1.0
C      1  0.4026710000000  0.6258350000000  0.6342480000000 1.0
C      1  0.6342480000000  0.3741650000000  0.5973290000000 1.0
C      1  0.5714220000000  0.6607180000000  0.6642910000000 1.0
C      1  0.6642910000000  0.3392820000000  0.4285780000000 1.0
C      1  0.4285780000000  0.6607180000000  0.3357090000000 1.0
C      1  0.3357090000000  0.3392820000000  0.5714220000000 1.0
C      1  0.3449260000000  0.4426210000000  0.3314960000000 1.0
C      1  0.3314960000000  0.5573790000000  0.6550740000000 1.0
C      1  0.6550740000000  0.4426210000000  0.6685040000000 1.0
C      1  0.6685040000000  0.5573790000000  0.3449260000000 1.0
C      1  0.5627020000000  0.4146960000000  0.5490970000000 1.0
C      1  0.5490970000000  0.5853040000000  0.4372980000000 1.0
C      1  0.4372980000000  0.4146960000000  0.4509030000000 1.0
C      1  0.4509030000000  0.5853040000000  0.5627020000000 1.0
C      1  0.4937810000000  0.2960500000000  0.4345590000000 1.0
C      1  0.4345590000000  0.7039500000000  0.5062190000000 1.0
C      1  0.5062190000000  0.2960500000000  0.5654410000000 1.0
C      1  0.5654410000000  0.7039500000000  0.4937810000000 1.0
C      1  0.5799300000000  0.4667730000000  0.3863320000000 1.0
C      1  0.3863320000000  0.5332270000000  0.4200700000000 1.0
C      1  0.4200700000000  0.4667730000000  0.6136680000000 1.0
C      1  0.6136680000000  0.5332270000000  0.5799300000000 1.0
C      1  0.3862810000000  0.3733020000000  0.6567850000000 1.0
C      1  0.6567850000000  0.6266980000000  0.6137190000000 1.0
C      1  0.6137190000000  0.3733020000000  0.3432150000000 1.0
C      1  0.3432150000000  0.6266980000000  0.3862810000000 1.0
C      1  0.4139030000000  0.2844110000000  0.5097750000000 1.0
C      1  0.5097750000000  0.7155890000000  0.5860970000000 1.0
C      1  0.5860970000000  0.2844110000000  0.4902250000000 1.0
C      1  0.4902250000000  0.7155890000000  0.4139030000000 1.0
C      1  0.4075880000000  0.4954590000000  0.5155520000000 1.0
C      1  0.5155520000000  0.5045410000000  0.5924120000000 1.0
C      1  0.5924120000000  0.4954590000000  0.4844480000000 1.0
C      1  0.4844480000000  0.5045410000000  0.4075880000000 1.0
C      1  0.3800620000000  0.4729800000000  0.7132820000000 1.0
C      1  0.7132820000000  0.5270210000000  0.6199380000000 1.0
C      1  0.6199380000000  0.4729790000000  0.2867180000000 1.0
C      1  0.2867180000000  0.5270200000000  0.3800620000000 1.0
C      1  0.4755790000000  0.5771620000000  0.2804060000000 1.0
C      1  0.2804060000000  0.4228380000000  0.5244210000000 1.0
C      1  0.5244210000000  0.5771620000000  0.7195940000000 1.0
C      1  0.7195940000000  0.4228380000000  0.4755790000000 1.0
C      1  0.6818810000000  0.3123950000000  0.5380330000000 1.0
C      1  0.5380330000000  0.6876050000000  0.3181190000000 1.0
C      1  0.3181190000000  0.3123960000000  0.4619670000000 1.0
C      1  0.4619670000000  0.6876040000000  0.6818810000000 1.0
C      1  0.5081890000000  0.4922310000000  0.2770460000000 1.0
C      1  0.2770460000000  0.5077690000000  0.4918110000000 1.0
C      1  0.4918110000000  0.4922310000000  0.7229540000000 1.0
C      1  0.7229540000000  0.5077690000000  0.5081890000000 1.0
C      1  0.4511300000000  0.4195640000000  0.3108780000000 1.0
C      1  0.3108780000000  0.5804360000000  0.5488700000000 1.0
C      1  0.5488700000000  0.4195640000000  0.6891220000000 1.0
C      1  0.6891220000000  0.5804360000000  0.4511300000000 1.0
C      1  0.4943360000000  0.3512960000000  0.6441700000000 1.0
C      1  0.6441700000000  0.6487040000000  0.5056640000000 1.0
C      1  0.5056640000000  0.3512960000000  0.3558300000000 1.0
C      1  0.3558300000000  0.6487040000000  0.4943360000000 1.0
END
