TITL C-3036480-97-206 -0.0546299671427064 3375 -333.859450788074 0 0 60 (Ci) n - 1
REM
REM in /home/bkarasulu/work/CARBON/AIRSS/Generating-Clusters/REBO/Higher-Symm/Only-C60
REM
REM
REM
REM
REM
REM ./C.cell (a2850807a9bf4ad07a5b6933b78d9264)
REM AIRSS Version 0.9.1 bugfix July 2018 build 013d7b7c2542+ Fri, 06 Jul 2018 19:26:36 +0100
REM compiler GCC version 9.2.1 20190827 (Red Hat 9.2.1-1)
REM options -cpp -mtune=generic -march=x86-64 -g -O0 -fpre-include=/usr/include/finclude/math-vector-fortran.h
REM seed 1977154782 1879342655 -523240377 1155274916 -2134605008 2114600572 -1803497667 403719165 -158030561 -1975781337 -1755475779 -607473112 -491380633 -1956984165 -817131134 -153690653 -1099676999 1241903863 2016280567 -103915778 1286712798 -254304604 531214429 450739304 1033454855 786262836 1167265136 -194841374 1924806942 -1061423083 -180406410 -1923026478 -1370089577
REM
CELL 1.54180   15.00000   15.00000   15.00000   90.00000   90.00000   90.00000
LATT -1
SFAC C  
C      1  0.3163440000000  0.6763130000000  0.5178030000000 1.0
C      1  0.6836560000000  0.3236870000000  0.4821970000000 1.0
C      1  0.4105320000000  0.6388670000000  0.2677050000000 1.0
C      1  0.5894680000000  0.3611330000000  0.7322950000000 1.0
C      1  0.5266650000000  0.2787090000000  0.5935770000000 1.0
C      1  0.4733350000000  0.7212910000000  0.4064230000000 1.0
C      1  0.4803300000000  0.4550800000000  0.4790710000000 1.0
C      1  0.5196700000000  0.5449200000000  0.5209290000000 1.0
C      1  0.2881370000000  0.5509590000000  0.4860190000000 1.0
C      1  0.7118630000000  0.4490410000000  0.5139810000000 1.0
C      1  0.5470680000000  0.5535170000000  0.7320250000000 1.0
C      1  0.4529320000000  0.4464830000000  0.2679750000000 1.0
C      1  0.3192580000000  0.4048830000000  0.4972910000000 1.0
C      1  0.6807420000000  0.5951170000000  0.5027090000000 1.0
C      1  0.5994460000000  0.2957130000000  0.4421460000000 1.0
C      1  0.4005540000000  0.7042870000000  0.5578540000000 1.0
C      1  0.4109710000000  0.4094240000000  0.5494500000000 1.0
C      1  0.5890290000000  0.5905760000000  0.4505500000000 1.0
C      1  0.4660300000000  0.4823690000000  0.7208700000000 1.0
C      1  0.5339700000000  0.5176310000000  0.2791300000000 1.0
C      1  0.3945630000000  0.5451140000000  0.2742490000000 1.0
C      1  0.6054370000000  0.4548860000000  0.7257510000000 1.0
C      1  0.4323570000000  0.5571690000000  0.5839880000000 1.0
C      1  0.5676430000000  0.4428310000000  0.4160120000000 1.0
C      1  0.3932290000000  0.5556410000000  0.4838410000000 1.0
C      1  0.6067710000000  0.4443590000000  0.5161590000000 1.0
C      1  0.4637630000000  0.3605770000000  0.6309160000000 1.0
C      1  0.5362370000000  0.6394230000000  0.3690840000000 1.0
C      1  0.3151670000000  0.4539570000000  0.6388570000000 1.0
C      1  0.6848330000000  0.5460430000000  0.3611430000000 1.0
C      1  0.7483660000000  0.3841460000000  0.4266640000000 1.0
C      1  0.2516340000000  0.6158540000000  0.5733360000000 1.0
C      1  0.5518670000000  0.6544040000000  0.5331200000000 1.0
C      1  0.4481330000000  0.3455960000000  0.4668800000000 1.0
C      1  0.5643520000000  0.3525120000000  0.3688990000000 1.0
C      1  0.4356480000000  0.6474880000000  0.6311010000000 1.0
C      1  0.6105390000000  0.3131190000000  0.6449270000000 1.0
C      1  0.3894610000000  0.6868810000000  0.3550730000000 1.0
C      1  0.6394960000000  0.6324670000000  0.3349910000000 1.0
C      1  0.3605040000000  0.3675330000000  0.6650090000000 1.0
C      1  0.4425380000000  0.5933240000000  0.4152220000000 1.0
C      1  0.5574620000000  0.4066760000000  0.5847780000000 1.0
C      1  0.4778080000000  0.7188910000000  0.5021680000000 1.0
C      1  0.5221920000000  0.2811090000000  0.4978320000000 1.0
C      1  0.7005220000000  0.5684470000000  0.6091790000000 1.0
C      1  0.2994780000000  0.4315530000000  0.3908210000000 1.0
C      1  0.6558360000000  0.5528280000000  0.7078980000000 1.0
C      1  0.3441640000000  0.4471720000000  0.2921020000000 1.0
C      1  0.7410780000000  0.4924180000000  0.4136290000000 1.0
C      1  0.2589220000000  0.5075820000000  0.5863710000000 1.0
C      1  0.6830450000000  0.4619510000000  0.6429030000000 1.0
C      1  0.3169550000000  0.5380490000000  0.3570970000000 1.0
C      1  0.6464010000000  0.6638440000000  0.5836250000000 1.0
C      1  0.3535990000000  0.3361560000000  0.4163750000000 1.0
C      1  0.4062150000000  0.4919220000000  0.6534030000000 1.0
C      1  0.5937850000000  0.5080780000000  0.3465970000000 1.0
C      1  0.4954140000000  0.6427510000000  0.7013020000000 1.0
C      1  0.5045860000000  0.3572490000000  0.2986980000000 1.0
C      1  0.6850350000000  0.3648280000000  0.5880320000000 1.0
C      1  0.3149650000000  0.6351720000000  0.4119680000000 1.0
END
