TITL C-3036485-3770-1151 -0.00542580195127348 3375 -344.862522078211 0 0 60 (D2) n - 1
REM
REM in /home/bkarasulu/work/CARBON/AIRSS/Generating-Clusters/REBO/Higher-Symm/Only-C60
REM
REM
REM
REM
REM
REM ./C.cell (a2850807a9bf4ad07a5b6933b78d9264)
REM AIRSS Version 0.9.1 bugfix July 2018 build 013d7b7c2542+ Fri, 06 Jul 2018 19:26:36 +0100
REM compiler GCC version 9.2.1 20190827 (Red Hat 9.2.1-1)
REM options -cpp -mtune=generic -march=x86-64 -g -O0 -fpre-include=/usr/include/finclude/math-vector-fortran.h
REM seed 305558012 1767048730 1916331187 1057733710 1630422981 1520291661 -1372930632 1638440702 -1073063145 922607794 -1910893849 261594923 -1136084999 232536899 -1638700697 -1409822241 2112608102 -122252488 1998842606 402098365 871887452 2068184475 512263442 -1061767912 866353888 2085094574 -939235638 1529177245 -816882994 -922070599 -1539115844 2089902019 -584651303
REM
CELL 1.54180   15.00000   15.00000   15.00000   90.00000   90.00000   90.00000
LATT -1
SFAC C  
C      1  0.3630850000000  0.5802500000000  0.4660940000000 1.0
C      1  0.6372190000000  0.4196110000000  0.4653470000000 1.0
C      1  0.3566730000000  0.5809250000000  0.5537630000000 1.0
C      1  0.6431630000000  0.4186630000000  0.5530320000000 1.0
C      1  0.6442490000000  0.5821290000000  0.4462760000000 1.0
C      1  0.3557670000000  0.4177480000000  0.4470140000000 1.0
C      1  0.6378240000000  0.5816090000000  0.5340890000000 1.0
C      1  0.3617860000000  0.4183200000000  0.5348870000000 1.0
C      1  0.5622530000000  0.4364690000000  0.7007240000000 1.0
C      1  0.4377470000000  0.5636410000000  0.7013900000000 1.0
C      1  0.5465270000000  0.4522890000000  0.3200770000000 1.0
C      1  0.4546120000000  0.5477430000000  0.3214260000000 1.0
C      1  0.4539780000000  0.4519540000000  0.6799130000000 1.0
C      1  0.5455240000000  0.5479970000000  0.6789070000000 1.0
C      1  0.4376570000000  0.4362650000000  0.2993510000000 1.0
C      1  0.5627160000000  0.5640030000000  0.2984680000000 1.0
C      1  0.6934030000000  0.3915590000000  0.3857460000000 1.0
C      1  0.3074480000000  0.6085060000000  0.3862510000000 1.0
C      1  0.7053780000000  0.3880890000000  0.6264290000000 1.0
C      1  0.2941980000000  0.6115080000000  0.6269640000000 1.0
C      1  0.2935110000000  0.3873160000000  0.3734860000000 1.0
C      1  0.7068040000000  0.6128170000000  0.3730920000000 1.0
C      1  0.3055210000000  0.3906070000000  0.6146000000000 1.0
C      1  0.6937440000000  0.6095050000000  0.6139730000000 1.0
C      1  0.5485660000000  0.5481950000000  0.5641670000000 1.0
C      1  0.4510010000000  0.4516280000000  0.5650510000000 1.0
C      1  0.5578430000000  0.5529070000000  0.4067130000000 1.0
C      1  0.4423420000000  0.4469960000000  0.4077890000000 1.0
C      1  0.4434760000000  0.5523550000000  0.5931130000000 1.0
C      1  0.5564060000000  0.4474570000000  0.5922890000000 1.0
C      1  0.4528020000000  0.5472000000000  0.4359980000000 1.0
C      1  0.5477500000000  0.4526910000000  0.4348590000000 1.0
C      1  0.4545080000000  0.3196500000000  0.5490090000000 1.0
C      1  0.5452950000000  0.6803010000000  0.5490670000000 1.0
C      1  0.4399590000000  0.3152310000000  0.4361870000000 1.0
C      1  0.5602140000000  0.6848530000000  0.4362410000000 1.0
C      1  0.5590460000000  0.3159970000000  0.5634410000000 1.0
C      1  0.4406760000000  0.6837730000000  0.5632400000000 1.0
C      1  0.5443440000000  0.3206310000000  0.4506660000000 1.0
C      1  0.4558250000000  0.6794310000000  0.4504610000000 1.0
C      1  0.2283320000000  0.4441710000000  0.6263790000000 1.0
C      1  0.7706580000000  0.5557510000000  0.6263510000000 1.0
C      1  0.2188280000000  0.4461090000000  0.3666470000000 1.0
C      1  0.7817250000000  0.5542610000000  0.3666260000000 1.0
C      1  0.7803540000000  0.4463930000000  0.6331420000000 1.0
C      1  0.2188940000000  0.5535430000000  0.6331560000000 1.0
C      1  0.7705500000000  0.4450110000000  0.3736030000000 1.0
C      1  0.2302220000000  0.5552990000000  0.3737690000000 1.0
C      1  0.4062410000000  0.6439430000000  0.3591200000000 1.0
C      1  0.5946200000000  0.3560690000000  0.3580930000000 1.0
C      1  0.3925280000000  0.6575820000000  0.6547620000000 1.0
C      1  0.6071950000000  0.3423310000000  0.6542780000000 1.0
C      1  0.6085010000000  0.6579300000000  0.3445760000000 1.0
C      1  0.3917520000000  0.3422590000000  0.3451290000000 1.0
C      1  0.5951100000000  0.6440010000000  0.6420500000000 1.0
C      1  0.4041830000000  0.3560740000000  0.6430190000000 1.0
C      1  0.1796030000000  0.5004450000000  0.4536290000000 1.0
C      1  0.8204440000000  0.4999220000000  0.4538380000000 1.0
C      1  0.1792370000000  0.4997140000000  0.5460290000000 1.0
C      1  0.8201770000000  0.5003720000000  0.5462150000000 1.0
END
