TITL C-3036486-2224-616 -7.27073860631841e-07 3375 -343.495810639552 0 0 60 (C1) n - 1
REM
REM in /home/bkarasulu/work/CARBON/AIRSS/Generating-Clusters/REBO/Higher-Symm/Only-C60
REM
REM
REM
REM
REM
REM ./C.cell (a2850807a9bf4ad07a5b6933b78d9264)
REM AIRSS Version 0.9.1 bugfix July 2018 build 013d7b7c2542+ Fri, 06 Jul 2018 19:26:36 +0100
REM compiler GCC version 9.2.1 20190827 (Red Hat 9.2.1-1)
REM options -cpp -mtune=generic -march=x86-64 -g -O0 -fpre-include=/usr/include/finclude/math-vector-fortran.h
REM seed -946192339 1238591573 447302511 -843238141 939946227 -408346975 1676144974 -1048293137 -421298107 35966836 937573505 -26569839 -117782366 -168467451 940517152 896708512 121196968 -1414783621 1505692197 -1194255305 -361901106 -1761371346 1282771343 1397990284 -1662186471 723723740 930025390 -1272770871 144105819 425863910 1921257529 -1798054857 -1106936539
REM
CELL 1.54180   15.00000   15.00000   15.00000   90.00000   90.00000   90.00000
LATT -1
SFAC C  
C      1  0.3981160000000  0.2730310000000  0.4404900000000 1.0
C      1  0.4610730000000  0.3550610000000  0.2850600000000 1.0
C      1  0.2608370000000  0.4478210000000  0.3535430000000 1.0
C      1  0.6449340000000  0.7395810000000  0.4514010000000 1.0
C      1  0.5998790000000  0.2674120000000  0.5624350000000 1.0
C      1  0.3519890000000  0.7252980000000  0.5424190000000 1.0
C      1  0.5553410000000  0.6112730000000  0.2715380000000 1.0
C      1  0.5328530000000  0.3540110000000  0.7139010000000 1.0
C      1  0.4530240000000  0.6141440000000  0.7273880000000 1.0
C      1  0.7121250000000  0.5466500000000  0.3466360000000 1.0
C      1  0.7157760000000  0.4526730000000  0.6448940000000 1.0
C      1  0.2946360000000  0.5400280000000  0.6647040000000 1.0
C      1  0.3115350000000  0.3370040000000  0.4599360000000 1.0
C      1  0.3370580000000  0.4618750000000  0.2885730000000 1.0
C      1  0.4607320000000  0.2668510000000  0.3493800000000 1.0
C      1  0.7121730000000  0.6649870000000  0.4593310000000 1.0
C      1  0.2881980000000  0.6473140000000  0.5411200000000 1.0
C      1  0.6871650000000  0.3298770000000  0.5427230000000 1.0
C      1  0.6464600000000  0.5499650000000  0.2599270000000 1.0
C      1  0.3650780000000  0.5504280000000  0.7473480000000 1.0
C      1  0.6564800000000  0.4597700000000  0.7263940000000 1.0
C      1  0.5364360000000  0.6947400000000  0.3403000000000 1.0
C      1  0.4655220000000  0.6931880000000  0.6532910000000 1.0
C      1  0.5325390000000  0.2655380000000  0.6501140000000 1.0
C      1  0.5868020000000  0.5045710000000  0.3450320000000 1.0
C      1  0.3417750000000  0.5621020000000  0.4994200000000 1.0
C      1  0.5004290000000  0.3529970000000  0.5854430000000 1.0
C      1  0.4156360000000  0.5078440000000  0.3452370000000 1.0
C      1  0.4216180000000  0.5028450000000  0.6611980000000 1.0
C      1  0.5927900000000  0.5025060000000  0.6462970000000 1.0
C      1  0.6503450000000  0.4158260000000  0.4895430000000 1.0
C      1  0.6615210000000  0.5828290000000  0.5033630000000 1.0
C      1  0.3530180000000  0.4296560000000  0.5023940000000 1.0
C      1  0.5039520000000  0.6443550000000  0.5641620000000 1.0
C      1  0.5004490000000  0.3531360000000  0.4111810000000 1.0
C      1  0.4963930000000  0.6465550000000  0.4316290000000 1.0
C      1  0.4966390000000  0.5700240000000  0.3569040000000 1.0
C      1  0.5663660000000  0.3506050000000  0.4931040000000 1.0
C      1  0.3479740000000  0.4929160000000  0.5846700000000 1.0
C      1  0.5028190000000  0.4380700000000  0.3432610000000 1.0
C      1  0.5035570000000  0.4374980000000  0.6524820000000 1.0
C      1  0.5112080000000  0.5695930000000  0.6417620000000 1.0
C      1  0.4137450000000  0.6452060000000  0.4977150000000 1.0
C      1  0.5856130000000  0.6590530000000  0.4996550000000 1.0
C      1  0.4343870000000  0.3593650000000  0.5029580000000 1.0
C      1  0.6606280000000  0.4980170000000  0.5617550000000 1.0
C      1  0.3361800000000  0.4987410000000  0.4161740000000 1.0
C      1  0.6559550000000  0.5006970000000  0.4288490000000 1.0
C      1  0.3783970000000  0.7401990000000  0.6337190000000 1.0
C      1  0.6259860000000  0.3717000000000  0.7496360000000 1.0
C      1  0.6568680000000  0.6591690000000  0.2958370000000 1.0
C      1  0.7396520000000  0.6403620000000  0.3711240000000 1.0
C      1  0.6424820000000  0.2960770000000  0.6658880000000 1.0
C      1  0.6205690000000  0.7468950000000  0.3587740000000 1.0
C      1  0.3481950000000  0.6556690000000  0.7037620000000 1.0
C      1  0.3662990000000  0.3759270000000  0.2585340000000 1.0
C      1  0.2586790000000  0.3542690000000  0.3757460000000 1.0
C      1  0.2636550000000  0.6300410000000  0.6324010000000 1.0
C      1  0.7293920000000  0.3588590000000  0.6287370000000 1.0
C      1  0.3500710000000  0.2973060000000  0.3388070000000 1.0
END
