TITL C-3036480-97-940 -6.51612547745052e-06 3375 -354.777684417728 0 0 60 (C1) n - 1
REM
REM in /home/bkarasulu/work/CARBON/AIRSS/Generating-Clusters/REBO/Higher-Symm/Only-C60
REM
REM
REM
REM
REM
REM ./C.cell (a2850807a9bf4ad07a5b6933b78d9264)
REM AIRSS Version 0.9.1 bugfix July 2018 build 013d7b7c2542+ Fri, 06 Jul 2018 19:26:36 +0100
REM compiler GCC version 9.2.1 20190827 (Red Hat 9.2.1-1)
REM options -cpp -mtune=generic -march=x86-64 -g -O0 -fpre-include=/usr/include/finclude/math-vector-fortran.h
REM seed 1774959233 1713310891 2034267522 1651691511 1202859880 443779000 -153671837 1720733603 547495996 -402104224 -1389827501 909074530 561191318 1254489482 570548794 248715794 -616889330 1844581968 549167169 1359108798 1313171775 -611808637 1482525374 -2051737335 -668323714 -1726471240 -1613433861 735897449 -1988892678 -13574903 -1586692529 1105200776 615658886
REM
CELL 1.54180   15.00000   15.00000   15.00000   90.00000   90.00000   90.00000
LATT -1
SFAC C  
C      1  0.7074010000000  0.5479090000000  0.4228990000000 1.0
C      1  0.4198050000000  0.5477160000000  0.2950170000000 1.0
C      1  0.2895370000000  0.5500460000000  0.5816180000000 1.0
C      1  0.5850920000000  0.5570950000000  0.7176390000000 1.0
C      1  0.2943470000000  0.5421010000000  0.4149260000000 1.0
C      1  0.5853960000000  0.5387570000000  0.2980050000000 1.0
C      1  0.7068660000000  0.5399680000000  0.5882930000000 1.0
C      1  0.4079520000000  0.5462490000000  0.7147510000000 1.0
C      1  0.3890020000000  0.5574170000000  0.5494490000000 1.0
C      1  0.5448790000000  0.5530310000000  0.6187330000000 1.0
C      1  0.6099120000000  0.5587500000000  0.4597010000000 1.0
C      1  0.4548800000000  0.5610500000000  0.3924660000000 1.0
C      1  0.6101480000000  0.5564500000000  0.5534440000000 1.0
C      1  0.4512450000000  0.5533430000000  0.6178180000000 1.0
C      1  0.3889040000000  0.5607200000000  0.4555530000000 1.0
C      1  0.5478220000000  0.5606680000000  0.3926590000000 1.0
C      1  0.5359660000000  0.2972330000000  0.3727040000000 1.0
C      1  0.3704030000000  0.3026010000000  0.4573530000000 1.0
C      1  0.4658110000000  0.3020110000000  0.6230130000000 1.0
C      1  0.6305590000000  0.3019900000000  0.5382810000000 1.0
C      1  0.4296980000000  0.2955840000000  0.3599100000000 1.0
C      1  0.6334860000000  0.2991130000000  0.4318080000000 1.0
C      1  0.5718800000000  0.3005220000000  0.6361710000000 1.0
C      1  0.3682360000000  0.3022170000000  0.5640050000000 1.0
C      1  0.4384460000000  0.6439010000000  0.7148190000000 1.0
C      1  0.7140290000000  0.6394600000000  0.5613960000000 1.0
C      1  0.5606370000000  0.6383760000000  0.2853310000000 1.0
C      1  0.2843520000000  0.6414750000000  0.4389760000000 1.0
C      1  0.5430050000000  0.6514670000000  0.7081620000000 1.0
C      1  0.2919970000000  0.6480800000000  0.5433990000000 1.0
C      1  0.4556820000000  0.6471190000000  0.2913970000000 1.0
C      1  0.7086010000000  0.6475230000000  0.4561680000000 1.0
C      1  0.4473130000000  0.4535280000000  0.2787850000000 1.0
C      1  0.2756000000000  0.4553990000000  0.5498620000000 1.0
C      1  0.5519170000000  0.4595480000000  0.7134920000000 1.0
C      1  0.7233320000000  0.4537290000000  0.4501760000000 1.0
C      1  0.5480860000000  0.4476440000000  0.2852080000000 1.0
C      1  0.7226330000000  0.4491920000000  0.5508430000000 1.0
C      1  0.4535690000000  0.4539720000000  0.7066070000000 1.0
C      1  0.2790700000000  0.4509720000000  0.4493280000000 1.0
C      1  0.5566560000000  0.6971190000000  0.6128580000000 1.0
C      1  0.6142220000000  0.6968770000000  0.4416760000000 1.0
C      1  0.4419680000000  0.6982300000000  0.3847600000000 1.0
C      1  0.3852900000000  0.6976260000000  0.5562990000000 1.0
C      1  0.4515740000000  0.6946420000000  0.6222940000000 1.0
C      1  0.3753220000000  0.6953020000000  0.4513500000000 1.0
C      1  0.5472800000000  0.6938440000000  0.3753780000000 1.0
C      1  0.6231760000000  0.6930850000000  0.5468770000000 1.0
C      1  0.3863550000000  0.3882700000000  0.3136370000000 1.0
C      1  0.3180970000000  0.3907470000000  0.6047340000000 1.0
C      1  0.6131120000000  0.3945540000000  0.6805980000000 1.0
C      1  0.6819120000000  0.3898690000000  0.3926650000000 1.0
C      1  0.5976110000000  0.3794410000000  0.3317160000000 1.0
C      1  0.6782890000000  0.3799510000000  0.6004560000000 1.0
C      1  0.4044130000000  0.3859290000000  0.6611650000000 1.0
C      1  0.3225640000000  0.3825130000000  0.3974240000000 1.0
C      1  0.5547020000000  0.3752640000000  0.4573280000000 1.0
C      1  0.4510320000000  0.3820200000000  0.4295010000000 1.0
C      1  0.4475800000000  0.3770930000000  0.5358300000000 1.0
C      1  0.5513500000000  0.3841070000000  0.5632880000000 1.0
END
