TITL C-3036481-494-161 3.61183970924621e-06 3375 -355.359059290589 0 0 60 (Ci) n - 1
REM
REM in /home/bkarasulu/work/CARBON/AIRSS/Generating-Clusters/REBO/Higher-Symm/Only-C60
REM
REM
REM
REM
REM
REM ./C.cell (a2850807a9bf4ad07a5b6933b78d9264)
REM AIRSS Version 0.9.1 bugfix July 2018 build 013d7b7c2542+ Fri, 06 Jul 2018 19:26:36 +0100
REM compiler GCC version 9.2.1 20190827 (Red Hat 9.2.1-1)
REM options -cpp -mtune=generic -march=x86-64 -g -O0 -fpre-include=/usr/include/finclude/math-vector-fortran.h
REM seed -1811893811 73845032 171204090 1123394943 1112559831 -865285038 1888571166 1155847889 -2137428019 -1629058362 1507481027 811460820 -769116700 1118374729 1985202794 -775089744 -802825855 800750786 1185945257 -1035667897 -1188891173 -623608239 1836973700 -93145411 1653833282 -218446456 -1260345293 -1788090586 -132557534 1527059473 1561866069 -237444071 506967777
REM
CELL 1.54180   15.00000   15.00000   15.00000   90.00000   90.00000   90.00000
LATT -1
SFAC C  
C      1  0.5233750000000  0.4986750000000  0.5521690000000 1.0
C      1  0.4766250000000  0.5013250000000  0.4478310000000 1.0
C      1  0.2742220000000  0.4397100000000  0.6423310000000 1.0
C      1  0.7257780000000  0.5602900000000  0.3576690000000 1.0
C      1  0.4704490000000  0.6502860000000  0.4676400000000 1.0
C      1  0.5295510000000  0.3497140000000  0.5323600000000 1.0
C      1  0.4739280000000  0.3064500000000  0.6095330000000 1.0
C      1  0.5260720000000  0.6935500000000  0.3904670000000 1.0
C      1  0.5252760000000  0.6005060000000  0.7056580000000 1.0
C      1  0.4747240000000  0.3994940000000  0.2943420000000 1.0
C      1  0.4540360000000  0.6801610000000  0.5624720000000 1.0
C      1  0.5459640000000  0.3198390000000  0.4375280000000 1.0
C      1  0.2809020000000  0.4442530000000  0.4280580000000 1.0
C      1  0.7190980000000  0.5557470000000  0.5719420000000 1.0
C      1  0.6099310000000  0.3975560000000  0.5518430000000 1.0
C      1  0.3900690000000  0.6024440000000  0.4481570000000 1.0
C      1  0.6308570000000  0.3614980000000  0.4073530000000 1.0
C      1  0.3691430000000  0.6385020000000  0.5926470000000 1.0
C      1  0.5843150000000  0.6583030000000  0.6608160000000 1.0
C      1  0.4156850000000  0.3416970000000  0.3391840000000 1.0
C      1  0.5581380000000  0.3657420000000  0.2645270000000 1.0
C      1  0.4418620000000  0.6342580000000  0.7354730000000 1.0
C      1  0.3615250000000  0.5822570000000  0.3483500000000 1.0
C      1  0.6384750000000  0.4177430000000  0.6516500000000 1.0
C      1  0.5124640000000  0.5143770000000  0.6588800000000 1.0
C      1  0.4875360000000  0.4856230000000  0.3411200000000 1.0
C      1  0.3098640000000  0.5197390000000  0.5810640000000 1.0
C      1  0.6901360000000  0.4802610000000  0.4189360000000 1.0
C      1  0.6867620000000  0.6479310000000  0.5120490000000 1.0
C      1  0.3132380000000  0.3520690000000  0.4879510000000 1.0
C      1  0.3806580000000  0.4994500000000  0.4961630000000 1.0
C      1  0.6193420000000  0.5005500000000  0.5038370000000 1.0
C      1  0.6337050000000  0.6080730000000  0.3067620000000 1.0
C      1  0.3662950000000  0.3919270000000  0.6932380000000 1.0
C      1  0.6870450000000  0.6519300000000  0.3987500000000 1.0
C      1  0.3129550000000  0.3480700000000  0.6012500000000 1.0
C      1  0.2982390000000  0.6016280000000  0.5108840000000 1.0
C      1  0.7017610000000  0.3983720000000  0.4891160000000 1.0
C      1  0.4598380000000  0.2874790000000  0.4057510000000 1.0
C      1  0.5401620000000  0.7125210000000  0.5942490000000 1.0
C      1  0.4425990000000  0.4185950000000  0.5454650000000 1.0
C      1  0.5574010000000  0.5814050000000  0.4545350000000 1.0
C      1  0.3395490000000  0.5024760000000  0.7094120000000 1.0
C      1  0.6604510000000  0.4975240000000  0.2905880000000 1.0
C      1  0.6668330000000  0.6308840000000  0.6235000000000 1.0
C      1  0.3331670000000  0.3691160000000  0.3765000000000 1.0
C      1  0.3927940000000  0.2714060000000  0.4730580000000 1.0
C      1  0.6072060000000  0.7285940000000  0.5269420000000 1.0
C      1  0.5483660000000  0.4253110000000  0.6949720000000 1.0
C      1  0.4516340000000  0.5746890000000  0.3050280000000 1.0
C      1  0.3904220000000  0.2823760000000  0.5713060000000 1.0
C      1  0.6095780000000  0.7176240000000  0.4286940000000 1.0
C      1  0.5304040000000  0.6356130000000  0.3135560000000 1.0
C      1  0.4695960000000  0.3643870000000  0.6864440000000 1.0
C      1  0.2813420000000  0.5379660000000  0.4161490000000 1.0
C      1  0.7186580000000  0.4620340000000  0.5838510000000 1.0
C      1  0.4127310000000  0.4951780000000  0.6243460000000 1.0
C      1  0.5872690000000  0.5048220000000  0.3756540000000 1.0
C      1  0.3671490000000  0.6055260000000  0.6831200000000 1.0
C      1  0.6328510000000  0.3944740000000  0.3168800000000 1.0
END
