TITL C-3036479-9801-1123 -1.40163859745759e-05 3375 -345.843083739421 0 0 60 (C1) n - 1
REM
REM in /home/bkarasulu/work/CARBON/AIRSS/Generating-Clusters/REBO/Higher-Symm/Only-C60
REM
REM
REM
REM
REM
REM ./C.cell (a2850807a9bf4ad07a5b6933b78d9264)
REM AIRSS Version 0.9.1 bugfix July 2018 build 013d7b7c2542+ Fri, 06 Jul 2018 19:26:36 +0100
REM compiler GCC version 9.2.1 20190827 (Red Hat 9.2.1-1)
REM options -cpp -mtune=generic -march=x86-64 -g -O0 -fpre-include=/usr/include/finclude/math-vector-fortran.h
REM seed -2059274574 2044994084 980013556 975558860 -1689983850 -892959457 777793256 -2137028715 -601016923 -1471763669 354207370 1799161735 1388210351 927181685 1412876452 -1575195947 -433880984 -1449285954 -1825410013 -914908111 -1348535999 927686601 91812278 68905805 -34732020 -236110525 -1555697849 -195593812 -1861011558 1641274062 1452019025 1020546158 -1946750816
REM
CELL 1.54180   15.00000   15.00000   15.00000   90.00000   90.00000   90.00000
LATT -1
SFAC C  
C      1  0.4603700000000  0.6066790000000  0.6982590000000 1.0
C      1  0.4541170000000  0.3923780000000  0.7230880000000 1.0
C      1  0.5611670000000  0.3514500000000  0.4193350000000 1.0
C      1  0.3875930000000  0.4188110000000  0.6637240000000 1.0
C      1  0.2710510000000  0.5128510000000  0.4923960000000 1.0
C      1  0.6141280000000  0.6638820000000  0.4663800000000 1.0
C      1  0.5503480000000  0.5437740000000  0.2913550000000 1.0
C      1  0.4675500000000  0.5169550000000  0.2584620000000 1.0
C      1  0.3272500000000  0.4647080000000  0.3335230000000 1.0
C      1  0.4779070000000  0.6654260000000  0.4029360000000 1.0
C      1  0.4537340000000  0.2741120000000  0.4151020000000 1.0
C      1  0.3532280000000  0.5901290000000  0.6636510000000 1.0
C      1  0.6723230000000  0.5618450000000  0.4052830000000 1.0
C      1  0.5145620000000  0.7645380000000  0.4026970000000 1.0
C      1  0.5903010000000  0.5420100000000  0.6326870000000 1.0
C      1  0.6197820000000  0.2834850000000  0.4686960000000 1.0
C      1  0.4562150000000  0.6230270000000  0.5896610000000 1.0
C      1  0.4338160000000  0.4532770000000  0.3707090000000 1.0
C      1  0.4725480000000  0.3040670000000  0.5874700000000 1.0
C      1  0.3979940000000  0.3726570000000  0.5656040000000 1.0
C      1  0.7098070000000  0.5040720000000  0.5913750000000 1.0
C      1  0.5161840000000  0.6248730000000  0.4969100000000 1.0
C      1  0.6921310000000  0.6067320000000  0.5087020000000 1.0
C      1  0.3420850000000  0.5350240000000  0.4204120000000 1.0
C      1  0.6050450000000  0.6920420000000  0.6281610000000 1.0
C      1  0.4425430000000  0.2808450000000  0.3267730000000 1.0
C      1  0.6692210000000  0.6087460000000  0.6129970000000 1.0
C      1  0.6270910000000  0.4074260000000  0.3617210000000 1.0
C      1  0.5931530000000  0.7635230000000  0.4396210000000 1.0
C      1  0.3653230000000  0.6933620000000  0.4681100000000 1.0
C      1  0.2594450000000  0.3972230000000  0.3782290000000 1.0
C      1  0.2440540000000  0.4128530000000  0.4678790000000 1.0
C      1  0.6307170000000  0.4972880000000  0.3294530000000 1.0
C      1  0.5366000000000  0.4475750000000  0.7386720000000 1.0
C      1  0.3879970000000  0.5537000000000  0.2982440000000 1.0
C      1  0.4614500000000  0.3710180000000  0.4711470000000 1.0
C      1  0.6697760000000  0.3402480000000  0.5533570000000 1.0
C      1  0.4307910000000  0.7435290000000  0.5406630000000 1.0
C      1  0.3284980000000  0.4992040000000  0.6515740000000 1.0
C      1  0.3048340000000  0.4343130000000  0.5616430000000 1.0
C      1  0.6782370000000  0.4174340000000  0.6276710000000 1.0
C      1  0.5600630000000  0.5023860000000  0.5539040000000 1.0
C      1  0.4478080000000  0.3411970000000  0.2594550000000 1.0
C      1  0.5335730000000  0.3281230000000  0.6801970000000 1.0
C      1  0.7177560000000  0.4989180000000  0.4843070000000 1.0
C      1  0.5175670000000  0.2540340000000  0.5005050000000 1.0
C      1  0.5137010000000  0.6967980000000  0.6843810000000 1.0
C      1  0.4595600000000  0.4262670000000  0.2309790000000 1.0
C      1  0.5828130000000  0.2802190000000  0.5925590000000 1.0
C      1  0.4136880000000  0.4736480000000  0.4803890000000 1.0
C      1  0.4649920000000  0.5318920000000  0.5363860000000 1.0
C      1  0.5124180000000  0.7438140000000  0.5878640000000 1.0
C      1  0.5710990000000  0.6061710000000  0.3770250000000 1.0
C      1  0.6748970000000  0.4037430000000  0.4646470000000 1.0
C      1  0.6181140000000  0.3999540000000  0.6987600000000 1.0
C      1  0.5326860000000  0.5359350000000  0.7074120000000 1.0
C      1  0.5218530000000  0.4772760000000  0.4031360000000 1.0
C      1  0.5880240000000  0.4709770000000  0.4715680000000 1.0
C      1  0.3554360000000  0.6645860000000  0.5775420000000 1.0
C      1  0.3829860000000  0.6269670000000  0.3846500000000 1.0
END
