TITL C-3036482-790-350 0.0046243484692666 3375 -337.797991619124 0 0 60 (C1) n - 1
REM
REM in /home/bkarasulu/work/CARBON/AIRSS/Generating-Clusters/REBO/Higher-Symm/Only-C60
REM
REM
REM
REM
REM
REM ./C.cell (a2850807a9bf4ad07a5b6933b78d9264)
REM AIRSS Version 0.9.1 bugfix July 2018 build 013d7b7c2542+ Fri, 06 Jul 2018 19:26:36 +0100
REM compiler GCC version 9.2.1 20190827 (Red Hat 9.2.1-1)
REM options -cpp -mtune=generic -march=x86-64 -g -O0 -fpre-include=/usr/include/finclude/math-vector-fortran.h
REM seed 1755801563 1397063535 1009061007 1129525956 897970984 594394675 2029609704 -1073972327 1876377533 303874474 -930618634 -1191394047 325450039 -597747267 608785223 -542217011 1299770513 893245146 1248832988 715905994 -1927717163 1577314271 1339947352 173060909 -1191491201 -804768403 -1354420761 834116254 -1087741597 -971340227 1420113778 582756109 -2077417253
REM
CELL 1.54180   15.00000   15.00000   15.00000   90.00000   90.00000   90.00000
LATT -1
SFAC C  
C      1  0.3009530000000  0.3948070000000  0.6562330000000 1.0
C      1  0.6806000000000  0.4080560000000  0.3465840000000 1.0
C      1  0.6896080000000  0.4067120000000  0.6630420000000 1.0
C      1  0.3017850000000  0.4112780000000  0.3426660000000 1.0
C      1  0.5520150000000  0.5431480000000  0.6353370000000 1.0
C      1  0.4367800000000  0.5552500000000  0.3709370000000 1.0
C      1  0.4432320000000  0.5394540000000  0.6297830000000 1.0
C      1  0.5462160000000  0.5540900000000  0.3631370000000 1.0
C      1  0.3886350000000  0.3689700000000  0.2926190000000 1.0
C      1  0.6042710000000  0.3759190000000  0.7237710000000 1.0
C      1  0.5976520000000  0.3728840000000  0.2887000000000 1.0
C      1  0.3945880000000  0.3849120000000  0.7061930000000 1.0
C      1  0.3615040000000  0.3541520000000  0.4120800000000 1.0
C      1  0.6281600000000  0.3584220000000  0.5946220000000 1.0
C      1  0.6211960000000  0.3600020000000  0.4179330000000 1.0
C      1  0.3620150000000  0.3488440000000  0.5846630000000 1.0
C      1  0.4563560000000  0.6705570000000  0.6484510000000 1.0
C      1  0.5435200000000  0.6843970000000  0.3372930000000 1.0
C      1  0.5394040000000  0.6748980000000  0.6475310000000 1.0
C      1  0.4603500000000  0.6818920000000  0.3369850000000 1.0
C      1  0.6251550000000  0.4908190000000  0.5822080000000 1.0
C      1  0.4125470000000  0.4978960000000  0.4582260000000 1.0
C      1  0.3701100000000  0.4811110000000  0.5820340000000 1.0
C      1  0.5911420000000  0.5133380000000  0.4558690000000 1.0
C      1  0.2999810000000  0.5577250000000  0.5414350000000 1.0
C      1  0.6920710000000  0.5598770000000  0.4386380000000 1.0
C      1  0.6999340000000  0.5642780000000  0.5446320000000 1.0
C      1  0.3197070000000  0.5577020000000  0.4345920000000 1.0
C      1  0.4625120000000  0.3553330000000  0.6263180000000 1.0
C      1  0.5425720000000  0.3197800000000  0.3623300000000 1.0
C      1  0.5522330000000  0.3213710000000  0.6511510000000 1.0
C      1  0.4499220000000  0.3142450000000  0.3629470000000 1.0
C      1  0.2713650000000  0.4927450000000  0.3681670000000 1.0
C      1  0.7302880000000  0.4906910000000  0.6255660000000 1.0
C      1  0.7275550000000  0.4862330000000  0.3716180000000 1.0
C      1  0.2638040000000  0.4839000000000  0.6203250000000 1.0
C      1  0.6171400000000  0.6327410000000  0.4026470000000 1.0
C      1  0.3793140000000  0.6211930000000  0.5864530000000 1.0
C      1  0.3790150000000  0.6450360000000  0.3986190000000 1.0
C      1  0.6147770000000  0.6232920000000  0.5853080000000 1.0
C      1  0.4634730000000  0.5298920000000  0.7333460000000 1.0
C      1  0.5630010000000  0.5332200000000  0.2582310000000 1.0
C      1  0.5682170000000  0.5385870000000  0.7442340000000 1.0
C      1  0.4562200000000  0.5233370000000  0.2707990000000 1.0
C      1  0.4415670000000  0.4370630000000  0.7695070000000 1.0
C      1  0.5466360000000  0.4334510000000  0.2343820000000 1.0
C      1  0.5510210000000  0.4391050000000  0.7740820000000 1.0
C      1  0.4410440000000  0.4277130000000  0.2365680000000 1.0
C      1  0.3730620000000  0.4058090000000  0.4958710000000 1.0
C      1  0.6134250000000  0.4133670000000  0.5032990000000 1.0
C      1  0.5876590000000  0.7851520000000  0.5082890000000 1.0
C      1  0.4075640000000  0.7871620000000  0.5124500000000 1.0
C      1  0.3949000000000  0.6782230000000  0.4948660000000 1.0
C      1  0.5979410000000  0.6759850000000  0.4930650000000 1.0
C      1  0.4976290000000  0.7518620000000  0.5338840000000 1.0
C      1  0.4998920000000  0.2674320000000  0.4776120000000 1.0
C      1  0.5008000000000  0.5359930000000  0.5099350000000 1.0
C      1  0.4904620000000  0.4346890000000  0.5501290000000 1.0
C      1  0.4952830000000  0.3527430000000  0.4973440000000 1.0
C      1  0.4965020000000  0.6376070000000  0.5255200000000 1.0
END
