TITL C-3036480-97-936 1.19339718709537e-05 3375 -341.135393949647 0 0 60 (D3) n - 1
REM
REM in /home/bkarasulu/work/CARBON/AIRSS/Generating-Clusters/REBO/Higher-Symm/Only-C60
REM
REM
REM
REM
REM
REM ./C.cell (a2850807a9bf4ad07a5b6933b78d9264)
REM AIRSS Version 0.9.1 bugfix July 2018 build 013d7b7c2542+ Fri, 06 Jul 2018 19:26:36 +0100
REM compiler GCC version 9.2.1 20190827 (Red Hat 9.2.1-1)
REM options -cpp -mtune=generic -march=x86-64 -g -O0 -fpre-include=/usr/include/finclude/math-vector-fortran.h
REM seed 1564954179 -377263832 836973678 -820890596 886440138 -85035683 -1719178950 1564002906 -625940715 -40189458 153060045 972198682 729576373 778577169 1186795595 1031572980 1877615514 -455319009 -1897881019 -794029734 1443765984 1305911928 -562518528 -1773086150 -1347032631 1199229708 -932539502 804995814 -1976040190 -210521865 -1634976950 1623982717 1243767764
REM
CELL 1.54180   15.00000   15.00000   15.00000   90.00000   90.00000   90.00000
LATT -1
SFAC C  
C      1  0.5451840000000  0.4232430000000  0.4964180000000 1.0
C      1  0.5451850000000  0.5352780000000  0.5682640000000 1.0
C      1  0.5451830000000  0.5414820000000  0.4353160000000 1.0
C      1  0.4548160000000  0.4232440000000  0.5035820000000 1.0
C      1  0.4548150000000  0.5352780000000  0.4317360000000 1.0
C      1  0.4548170000000  0.5414820000000  0.5646840000000 1.0
C      1  0.4554250000000  0.2562500000000  0.5000810000000 1.0
C      1  0.4554270000000  0.6219440000000  0.7110520000000 1.0
C      1  0.4554220000000  0.6218040000000  0.2888680000000 1.0
C      1  0.5445750000000  0.2562500000000  0.4999190000000 1.0
C      1  0.5445730000000  0.6219440000000  0.2889480000000 1.0
C      1  0.5445780000000  0.6218040000000  0.7111320000000 1.0
C      1  0.3911130000000  0.4751620000000  0.7560820000000 1.0
C      1  0.3911090000000  0.7341920000000  0.3934700000000 1.0
C      1  0.3911090000000  0.2906460000000  0.3504500000000 1.0
C      1  0.6088870000000  0.4751620000000  0.2439180000000 1.0
C      1  0.6088910000000  0.7341920000000  0.6065300000000 1.0
C      1  0.6088900000000  0.2906460000000  0.6495500000000 1.0
C      1  0.3739950000000  0.5631580000000  0.7402520000000 1.0
C      1  0.3739910000000  0.6764840000000  0.3251790000000 1.0
C      1  0.3739920000000  0.2603570000000  0.4345720000000 1.0
C      1  0.6260050000000  0.5631580000000  0.2597490000000 1.0
C      1  0.6260090000000  0.6764840000000  0.6748210000000 1.0
C      1  0.6260080000000  0.2603570000000  0.5654280000000 1.0
C      1  0.4596380000000  0.4336420000000  0.6898340000000 1.0
C      1  0.4596350000000  0.6975810000000  0.4625510000000 1.0
C      1  0.4596340000000  0.3687780000000  0.3476170000000 1.0
C      1  0.5403620000000  0.4336420000000  0.3101660000000 1.0
C      1  0.5403650000000  0.6975800000000  0.5374490000000 1.0
C      1  0.5403660000000  0.3687780000000  0.6523830000000 1.0
C      1  0.5568300000000  0.6827710000000  0.4061100000000 1.0
C      1  0.5568300000000  0.3273050000000  0.3886620000000 1.0
C      1  0.5568340000000  0.4899250000000  0.7052280000000 1.0
C      1  0.4431700000000  0.6827700000000  0.5938900000000 1.0
C      1  0.4431700000000  0.3273050000000  0.6113380000000 1.0
C      1  0.4431660000000  0.4899250000000  0.2947720000000 1.0
C      1  0.5898440000000  0.6088690000000  0.5107270000000 1.0
C      1  0.5898420000000  0.4548570000000  0.4003520000000 1.0
C      1  0.5898450000000  0.4362760000000  0.5889180000000 1.0
C      1  0.4101560000000  0.6088690000000  0.4892730000000 1.0
C      1  0.4101580000000  0.4548570000000  0.5996480000000 1.0
C      1  0.4101550000000  0.4362760000000  0.4110820000000 1.0
C      1  0.6993470000000  0.5348470000000  0.5944300000000 1.0
C      1  0.6993440000000  0.5643570000000  0.4226050000000 1.0
C      1  0.6993460000000  0.4007960000000  0.4829610000000 1.0
C      1  0.3006530000000  0.5348470000000  0.4055700000000 1.0
C      1  0.3006560000000  0.5643560000000  0.5773960000000 1.0
C      1  0.3006540000000  0.4007960000000  0.5170390000000 1.0
C      1  0.6358840000000  0.5638050000000  0.6715020000000 1.0
C      1  0.6358800000000  0.6166230000000  0.3589910000000 1.0
C      1  0.6358820000000  0.3195710000000  0.4695050000000 1.0
C      1  0.3641160000000  0.5638050000000  0.3284980000000 1.0
C      1  0.3641200000000  0.6166230000000  0.6410090000000 1.0
C      1  0.3641180000000  0.3195710000000  0.5304950000000 1.0
C      1  0.6905630000000  0.4400640000000  0.5711490000000 1.0
C      1  0.6905620000000  0.5915860000000  0.5163290000000 1.0
C      1  0.6905600000000  0.4683490000000  0.4125170000000 1.0
C      1  0.3094370000000  0.4400640000000  0.4288510000000 1.0
C      1  0.3094380000000  0.5915860000000  0.4836710000000 1.0
C      1  0.3094400000000  0.4683490000000  0.5874830000000 1.0
END
