TITL C-3036480-97-669 0.00174851556544856 3375 -339.230813103982 0 0 60 (Ci) n - 1
REM
REM in /home/bkarasulu/work/CARBON/AIRSS/Generating-Clusters/REBO/Higher-Symm/Only-C60
REM
REM
REM
REM
REM
REM ./C.cell (a2850807a9bf4ad07a5b6933b78d9264)
REM AIRSS Version 0.9.1 bugfix July 2018 build 013d7b7c2542+ Fri, 06 Jul 2018 19:26:36 +0100
REM compiler GCC version 9.2.1 20190827 (Red Hat 9.2.1-1)
REM options -cpp -mtune=generic -march=x86-64 -g -O0 -fpre-include=/usr/include/finclude/math-vector-fortran.h
REM seed -1265727626 1467634627 903047973 538945930 -23640922 -596952278 -813793547 -406806825 1063019854 778980402 806656313 1744787562 -1839775083 -1069654871 -2012591756 -2022121193 -1676690593 -1747829501 523833591 -467202943 600948147 -1808020757 1304445940 -622302712 -631326674 -1892353937 124082392 1392473555 1913479106 1347357441 -1782089350 -591979478 -943667423
REM
CELL 1.54180   15.00000   15.00000   15.00000   90.00000   90.00000   90.00000
LATT -1
SFAC C  
C      1  0.3354340000000  0.3859590000000  0.5105920000000 1.0
C      1  0.6640490000000  0.6140790000000  0.4892560000000 1.0
C      1  0.6125110000000  0.7035990000000  0.4060110000000 1.0
C      1  0.3880280000000  0.2972000000000  0.5939840000000 1.0
C      1  0.4020770000000  0.3058120000000  0.4807020000000 1.0
C      1  0.5990120000000  0.6955500000000  0.5194210000000 1.0
C      1  0.4588270000000  0.6241610000000  0.3070120000000 1.0
C      1  0.5417020000000  0.3761540000000  0.6931220000000 1.0
C      1  0.3972760000000  0.4595230000000  0.3427020000000 1.0
C      1  0.6026280000000  0.5406180000000  0.6571490000000 1.0
C      1  0.4959250000000  0.7095480000000  0.4852590000000 1.0
C      1  0.5045370000000  0.2892790000000  0.5158170000000 1.0
C      1  0.4194150000000  0.4437390000000  0.5311360000000 1.0
C      1  0.5807280000000  0.5555000000000  0.4687810000000 1.0
C      1  0.3388870000000  0.5483870000000  0.4969700000000 1.0
C      1  0.6604960000000  0.4517440000000  0.5026950000000 1.0
C      1  0.6845250000000  0.6256990000000  0.2701860000000 1.0
C      1  0.3155980000000  0.3746880000000  0.7299560000000 1.0
C      1  0.2522410000000  0.4481750000000  0.6766640000000 1.0
C      1  0.7477000000000  0.5520720000000  0.3234040000000 1.0
C      1  0.4713460000000  0.3168900000000  0.6412530000000 1.0
C      1  0.5294470000000  0.6823750000000  0.3598730000000 1.0
C      1  0.4038290000000  0.5460710000000  0.4128780000000 1.0
C      1  0.5956800000000  0.4540810000000  0.5868070000000 1.0
C      1  0.3965420000000  0.6898560000000  0.4760890000000 1.0
C      1  0.6036830000000  0.3101680000000  0.5242510000000 1.0
C      1  0.5208210000000  0.3215740000000  0.3461900000000 1.0
C      1  0.4791840000000  0.6782760000000  0.6530020000000 1.0
C      1  0.7653810000000  0.5387470000000  0.6151100000000 1.0
C      1  0.2342990000000  0.4609950000000  0.3848200000000 1.0
C      1  0.4751690000000  0.4286180000000  0.4452330000000 1.0
C      1  0.5246140000000  0.5709910000000  0.5546320000000 1.0
C      1  0.7419420000000  0.5081840000000  0.5080080000000 1.0
C      1  0.2575200000000  0.4918310000000  0.4919030000000 1.0
C      1  0.3649980000000  0.6268400000000  0.5486780000000 1.0
C      1  0.6345990000000  0.3730250000000  0.4511110000000 1.0
C      1  0.4855280000000  0.5229580000000  0.3101970000000 1.0
C      1  0.5144630000000  0.4771490000000  0.6898470000000 1.0
C      1  0.6892680000000  0.6624930000000  0.3680080000000 1.0
C      1  0.3111700000000  0.3379970000000  0.6321580000000 1.0
C      1  0.5950570000000  0.3747980000000  0.3620400000000 1.0
C      1  0.4049660000000  0.6249450000000  0.6375360000000 1.0
C      1  0.6620760000000  0.5189180000000  0.2679610000000 1.0
C      1  0.3378270000000  0.4814710000000  0.7321520000000 1.0
C      1  0.2497050000000  0.4164660000000  0.5765120000000 1.0
C      1  0.7502300000000  0.5836400000000  0.4235620000000 1.0
C      1  0.2959000000000  0.4637160000000  0.3177230000000 1.0
C      1  0.7038920000000  0.5361530000000  0.6822950000000 1.0
C      1  0.5732180000000  0.6429010000000  0.6169350000000 1.0
C      1  0.4268950000000  0.3570760000000  0.3822870000000 1.0
C      1  0.6194960000000  0.3480850000000  0.6221490000000 1.0
C      1  0.3807250000000  0.6524400000000  0.3777720000000 1.0
C      1  0.4601700000000  0.5111880000000  0.5965580000000 1.0
C      1  0.5396780000000  0.4883240000000  0.4033640000000 1.0
C      1  0.4924720000000  0.6083920000000  0.4336640000000 1.0
C      1  0.5070580000000  0.3908860000000  0.5665820000000 1.0
C      1  0.2387560000000  0.3816500000000  0.4545050000000 1.0
C      1  0.7608170000000  0.6182560000000  0.5456660000000 1.0
C      1  0.4132240000000  0.5298570000000  0.6937260000000 1.0
C      1  0.5867610000000  0.4702340000000  0.3061430000000 1.0
END
