TITL C-3036485-3770-597 3.77342515149417e-06 3375 -338.012934705714 0 0 60 (Th) n - 1
REM
REM in /home/bkarasulu/work/CARBON/AIRSS/Generating-Clusters/REBO/Higher-Symm/Only-C60
REM
REM
REM
REM
REM
REM ./C.cell (a2850807a9bf4ad07a5b6933b78d9264)
REM AIRSS Version 0.9.1 bugfix July 2018 build 013d7b7c2542+ Fri, 06 Jul 2018 19:26:36 +0100
REM compiler GCC version 9.2.1 20190827 (Red Hat 9.2.1-1)
REM options -cpp -mtune=generic -march=x86-64 -g -O0 -fpre-include=/usr/include/finclude/math-vector-fortran.h
REM seed 516374733 1549911793 722940383 467785548 -899366175 -329288424 -882173340 -1497578277 -378949072 2006439341 2099565472 -1891474331 463543066 -1052169838 1635950075 -1154315922 -1671698958 -1166510576 -1074694032 1023039545 -81685146 -1642114761 85729483 -1603152888 -1663797175 -1221528106 1399174759 -756843951 1157874741 1541446075 -1881146010 -109520609 695739511
REM
CELL 1.54180   15.00000   15.00000   15.00000   90.00000   90.00000   90.00000
LATT -1
SFAC C  
C      1  0.7487160000000  0.4484710000000  0.5573070000000 1.0
C      1  0.4484710000000  0.5573070000000  0.7487160000000 1.0
C      1  0.5573070000000  0.7487160000000  0.4484710000000 1.0
C      1  0.2512840000000  0.4484710000000  0.4426930000000 1.0
C      1  0.2512840000000  0.5515290000000  0.5573070000000 1.0
C      1  0.7487160000000  0.5515290000000  0.4426930000000 1.0
C      1  0.5515290000000  0.5573070000000  0.2512840000000 1.0
C      1  0.5515290000000  0.4426930000000  0.7487160000000 1.0
C      1  0.4484710000000  0.4426930000000  0.2512840000000 1.0
C      1  0.4426930000000  0.7487160000000  0.5515290000000 1.0
C      1  0.4426930000000  0.2512840000000  0.4484710000000 1.0
C      1  0.5573070000000  0.2512840000000  0.5515290000000 1.0
C      1  0.7487160000000  0.5515290000000  0.5573070000000 1.0
C      1  0.4484710000000  0.4426930000000  0.7487160000000 1.0
C      1  0.5573070000000  0.2512840000000  0.4484710000000 1.0
C      1  0.2512840000000  0.5515290000000  0.4426930000000 1.0
C      1  0.2512840000000  0.4484710000000  0.5573070000000 1.0
C      1  0.7487160000000  0.4484710000000  0.4426930000000 1.0
C      1  0.5515290000000  0.4426930000000  0.2512840000000 1.0
C      1  0.5515290000000  0.5573070000000  0.7487160000000 1.0
C      1  0.4484710000000  0.5573070000000  0.2512840000000 1.0
C      1  0.4426930000000  0.2512840000000  0.5515290000000 1.0
C      1  0.4426930000000  0.7487160000000  0.4484710000000 1.0
C      1  0.5573070000000  0.7487160000000  0.5515290000000 1.0
C      1  0.6914590000000  0.6334360000000  0.3958960000000 1.0
C      1  0.6334360000000  0.3958960000000  0.6914590000000 1.0
C      1  0.3958960000000  0.6914590000000  0.6334360000000 1.0
C      1  0.3085410000000  0.6334360000000  0.6041040000000 1.0
C      1  0.3085410000000  0.3665640000000  0.3958960000000 1.0
C      1  0.6914590000000  0.3665640000000  0.6041040000000 1.0
C      1  0.3665640000000  0.3958960000000  0.3085410000000 1.0
C      1  0.3665640000000  0.6041040000000  0.6914590000000 1.0
C      1  0.6334360000000  0.6041040000000  0.3085410000000 1.0
C      1  0.6041040000000  0.6914590000000  0.3665640000000 1.0
C      1  0.6041040000000  0.3085410000000  0.6334360000000 1.0
C      1  0.3958960000000  0.3085410000000  0.3665640000000 1.0
C      1  0.6914590000000  0.3665640000000  0.3958960000000 1.0
C      1  0.6334360000000  0.6041040000000  0.6914590000000 1.0
C      1  0.3958960000000  0.3085410000000  0.6334360000000 1.0
C      1  0.3085410000000  0.3665640000000  0.6041040000000 1.0
C      1  0.3085410000000  0.6334360000000  0.3958960000000 1.0
C      1  0.6914590000000  0.6334360000000  0.6041040000000 1.0
C      1  0.3665640000000  0.6041040000000  0.3085410000000 1.0
C      1  0.3665640000000  0.3958960000000  0.6914590000000 1.0
C      1  0.6334360000000  0.3958960000000  0.3085410000000 1.0
C      1  0.6041040000000  0.3085410000000  0.3665640000000 1.0
C      1  0.6041040000000  0.6914590000000  0.6334360000000 1.0
C      1  0.3958960000000  0.6914590000000  0.3665640000000 1.0
C      1  0.7234730000000  0.3532870000000  0.5000000000000 1.0
C      1  0.2765270000000  0.3532870000000  0.5000000000000 1.0
C      1  0.2765270000000  0.6467130000000  0.5000000000000 1.0
C      1  0.7234730000000  0.6467130000000  0.5000000000000 1.0
C      1  0.5000000000000  0.7234720000000  0.3532870000000 1.0
C      1  0.3532870000000  0.5000000000000  0.7234730000000 1.0
C      1  0.5000000000000  0.7234730000000  0.6467130000000 1.0
C      1  0.5000000000000  0.2765270000000  0.3532870000000 1.0
C      1  0.5000000000000  0.2765280000000  0.6467130000000 1.0
C      1  0.6467130000000  0.5000000000000  0.2765270000000 1.0
C      1  0.6467130000000  0.5000000000000  0.7234720000000 1.0
C      1  0.3532870000000  0.5000000000000  0.2765280000000 1.0
END
