TITL C-3036484-3770-965 0.0134434240870415 3375 -336.106239752477 0 0 60 (C1) n - 1
REM
REM in /home/bkarasulu/work/CARBON/AIRSS/Generating-Clusters/REBO/Higher-Symm/Only-C60
REM
REM
REM
REM
REM
REM ./C.cell (a2850807a9bf4ad07a5b6933b78d9264)
REM AIRSS Version 0.9.1 bugfix July 2018 build 013d7b7c2542+ Fri, 06 Jul 2018 19:26:36 +0100
REM compiler GCC version 9.2.1 20190827 (Red Hat 9.2.1-1)
REM options -cpp -mtune=generic -march=x86-64 -g -O0 -fpre-include=/usr/include/finclude/math-vector-fortran.h
REM seed 1596703087 996707670 1975670620 1897227352 1613694089 816907665 -1105186356 -843748798 255712921 805456082 -837324373 -204164874 -1820865925 1908085155 1793962019 1548753357 1869055044 73231823 2080659273 1883351776 -1340099009 -940221207 -188047988 -1768535298 1644536801 -1602156192 -1180094427 -919073142 164648696 540019457 642654676 -577751505 -1703092298
REM
CELL 1.54180   15.00000   15.00000   15.00000   90.00000   90.00000   90.00000
LATT -1
SFAC C  
C      1  0.3986850000000  0.3809420000000  0.6366040000000 1.0
C      1  0.7188490000000  0.4643440000000  0.6345370000000 1.0
C      1  0.4833270000000  0.6481480000000  0.6351230000000 1.0
C      1  0.6574950000000  0.6107200000000  0.6180420000000 1.0
C      1  0.5294600000000  0.6255520000000  0.4937790000000 1.0
C      1  0.5610600000000  0.4885430000000  0.4700170000000 1.0
C      1  0.3940910000000  0.3550760000000  0.3315880000000 1.0
C      1  0.5152790000000  0.2853780000000  0.5475230000000 1.0
C      1  0.2933970000000  0.5400520000000  0.5246230000000 1.0
C      1  0.3430040000000  0.6988820000000  0.5526710000000 1.0
C      1  0.3549860000000  0.2746860000000  0.3569690000000 1.0
C      1  0.4932220000000  0.3526070000000  0.3387190000000 1.0
C      1  0.7427440000000  0.4841410000000  0.5411180000000 1.0
C      1  0.5785540000000  0.7474160000000  0.4731180000000 1.0
C      1  0.6281970000000  0.6714920000000  0.5272070000000 1.0
C      1  0.6163230000000  0.5008850000000  0.3099410000000 1.0
C      1  0.7190590000000  0.4262280000000  0.4457220000000 1.0
C      1  0.4238190000000  0.3731910000000  0.5065870000000 1.0
C      1  0.4619390000000  0.4712840000000  0.6410190000000 1.0
C      1  0.7032740000000  0.5462140000000  0.6820680000000 1.0
C      1  0.3987450000000  0.6894060000000  0.3466400000000 1.0
C      1  0.2998340000000  0.3629150000000  0.4613520000000 1.0
C      1  0.3369370000000  0.3238300000000  0.5618660000000 1.0
C      1  0.5426210000000  0.4673450000000  0.5694990000000 1.0
C      1  0.3494870000000  0.4319890000000  0.3839610000000 1.0
C      1  0.6546090000000  0.3934790000000  0.6503150000000 1.0
C      1  0.6522100000000  0.5119040000000  0.4541040000000 1.0
C      1  0.3064160000000  0.6574930000000  0.3796420000000 1.0
C      1  0.5757650000000  0.4147030000000  0.7056600000000 1.0
C      1  0.4264370000000  0.6066620000000  0.5057910000000 1.0
C      1  0.3614630000000  0.4541590000000  0.5562170000000 1.0
C      1  0.5940910000000  0.3506280000000  0.3487060000000 1.0
C      1  0.6994350000000  0.5861170000000  0.5156190000000 1.0
C      1  0.4645760000000  0.5637290000000  0.7044360000000 1.0
C      1  0.3597410000000  0.5942710000000  0.6730950000000 1.0
C      1  0.3019270000000  0.6220420000000  0.5911760000000 1.0
C      1  0.5833740000000  0.7301710000000  0.3751070000000 1.0
C      1  0.5014030000000  0.6928330000000  0.3092420000000 1.0
C      1  0.2663630000000  0.4645650000000  0.4540140000000 1.0
C      1  0.5238830000000  0.3632650000000  0.5943760000000 1.0
C      1  0.5693110000000  0.2877080000000  0.4257150000000 1.0
C      1  0.3997040000000  0.5210550000000  0.3790880000000 1.0
C      1  0.4120490000000  0.5484600000000  0.5834290000000 1.0
C      1  0.3575210000000  0.2654190000000  0.4663710000000 1.0
C      1  0.5505900000000  0.5025460000000  0.7351970000000 1.0
C      1  0.4938000000000  0.3536960000000  0.6927160000000 1.0
C      1  0.6615040000000  0.3241370000000  0.5850210000000 1.0
C      1  0.6522420000000  0.4247450000000  0.3539370000000 1.0
C      1  0.4605640000000  0.3011560000000  0.4337570000000 1.0
C      1  0.7205590000000  0.3360540000000  0.4940130000000 1.0
C      1  0.6346600000000  0.2744110000000  0.4909640000000 1.0
C      1  0.4413390000000  0.7145840000000  0.5827230000000 1.0
C      1  0.4912440000000  0.7586980000000  0.5048940000000 1.0
C      1  0.5465050000000  0.6245080000000  0.3874950000000 1.0
C      1  0.5578630000000  0.5778820000000  0.5901780000000 1.0
C      1  0.3394960000000  0.5852250000000  0.4363060000000 1.0
C      1  0.5422910000000  0.5446640000000  0.2811810000000 1.0
C      1  0.4466020000000  0.5928820000000  0.3060350000000 1.0
C      1  0.4033120000000  0.7065010000000  0.4558020000000 1.0
C      1  0.5027650000000  0.5283820000000  0.4073830000000 1.0
END
