TITL C-3036485-3770-442 -0.016774136944217 3375 -323.536895483403 0 0 60 (C1) n - 1
REM
REM in /home/bkarasulu/work/CARBON/AIRSS/Generating-Clusters/REBO/Higher-Symm/Only-C60
REM
REM
REM
REM
REM
REM ./C.cell (a2850807a9bf4ad07a5b6933b78d9264)
REM AIRSS Version 0.9.1 bugfix July 2018 build 013d7b7c2542+ Fri, 06 Jul 2018 19:26:36 +0100
REM compiler GCC version 9.2.1 20190827 (Red Hat 9.2.1-1)
REM options -cpp -mtune=generic -march=x86-64 -g -O0 -fpre-include=/usr/include/finclude/math-vector-fortran.h
REM seed -1243447731 1930634635 -719126488 -652270944 397536356 -46307219 495993811 1160683505 609435583 -553951311 1040249575 -1218505780 -76005277 -1022404873 -210467100 -941867435 1382693593 -1456449590 -1970575198 -737738596 -471148571 -1389272081 -440140014 283036480 282570544 1407060304 1862705207 -348853009 1103623656 1729257733 -263070605 2039687706 98661429
REM
CELL 1.54180   15.00000   15.00000   15.00000   90.00000   90.00000   90.00000
LATT -1
SFAC C  
C      1  0.3283340000000  0.3657300000000  0.6052860000000 1.0
C      1  0.4951410000000  0.3660910000000  0.2976150000000 1.0
C      1  0.6786430000000  0.3637060000000  0.5963860000000 1.0
C      1  0.7221520000000  0.3996840000000  0.5222530000000 1.0
C      1  0.3701890000000  0.4030810000000  0.6795580000000 1.0
C      1  0.4099280000000  0.4035700000000  0.2972020000000 1.0
C      1  0.4561920000000  0.3818580000000  0.7135830000000 1.0
C      1  0.3372110000000  0.3818820000000  0.3541460000000 1.0
C      1  0.7088110000000  0.3786730000000  0.4305910000000 1.0
C      1  0.4300250000000  0.5176870000000  0.6470250000000 1.0
C      1  0.4076650000000  0.5176210000000  0.3661850000000 1.0
C      1  0.6612160000000  0.5125810000000  0.4861150000000 1.0
C      1  0.6558150000000  0.4379940000000  0.6789770000000 1.0
C      1  0.2661720000000  0.4381390000000  0.5440740000000 1.0
C      1  0.5792270000000  0.4388610000000  0.2757180000000 1.0
C      1  0.5019580000000  0.6336650000000  0.2740960000000 1.0
C      1  0.6936560000000  0.6336870000000  0.6143930000000 1.0
C      1  0.3029560000000  0.6332270000000  0.6118530000000 1.0
C      1  0.2500300000000  0.5079700000000  0.4319320000000 1.0
C      1  0.6841330000000  0.5083060000000  0.3189830000000 1.0
C      1  0.5671140000000  0.5083670000000  0.7490610000000 1.0
C      1  0.4232480000000  0.3269850000000  0.4946400000000 1.0
C      1  0.5451580000000  0.3289940000000  0.4407680000000 1.0
C      1  0.5308960000000  0.3238380000000  0.5731980000000 1.0
C      1  0.3449030000000  0.6759440000000  0.5394480000000 1.0
C      1  0.5429000000000  0.6762250000000  0.3471240000000 1.0
C      1  0.6091520000000  0.6748620000000  0.6138310000000 1.0
C      1  0.2757900000000  0.4034030000000  0.4347470000000 1.0
C      1  0.6691550000000  0.4030300000000  0.3379530000000 1.0
C      1  0.5566320000000  0.4036700000000  0.7261350000000 1.0
C      1  0.5275620000000  0.5309100000000  0.2503100000000 1.0
C      1  0.7029710000000  0.5303220000000  0.6452510000000 1.0
C      1  0.2697930000000  0.5302260000000  0.6019260000000 1.0
C      1  0.7427810000000  0.4978510000000  0.5441810000000 1.0
C      1  0.3389090000000  0.5006830000000  0.6869130000000 1.0
C      1  0.4193760000000  0.5013210000000  0.2673680000000 1.0
C      1  0.5619860000000  0.6779270000000  0.5139120000000 1.0
C      1  0.4550760000000  0.6781840000000  0.5469410000000 1.0
C      1  0.4800800000000  0.6782150000000  0.4379700000000 1.0
C      1  0.5960160000000  0.5429430000000  0.6236950000000 1.0
C      1  0.3425320000000  0.5443390000000  0.5207430000000 1.0
C      1  0.5607660000000  0.5446580000000  0.3540570000000 1.0
C      1  0.4204780000000  0.4981130000000  0.5526420000000 1.0
C      1  0.4940700000000  0.4986830000000  0.4055850000000 1.0
C      1  0.5844850000000  0.4936900000000  0.5419790000000 1.0
C      1  0.3363500000000  0.5694500000000  0.4216180000000 1.0
C      1  0.6493020000000  0.5684850000000  0.3998540000000 1.0
C      1  0.5142650000000  0.5694630000000  0.6794790000000 1.0
C      1  0.5167290000000  0.4104170000000  0.4266350000000 1.0
C      1  0.5561600000000  0.4052250000000  0.5537790000000 1.0
C      1  0.4262830000000  0.4090870000000  0.5244330000000 1.0
C      1  0.5950750000000  0.3277900000000  0.2980190000000 1.0
C      1  0.6276740000000  0.3271560000000  0.6831240000000 1.0
C      1  0.2792470000000  0.3274830000000  0.5182140000000 1.0
C      1  0.4082460000000  0.6460810000000  0.2916190000000 1.0
C      1  0.7250520000000  0.6487120000000  0.5245830000000 1.0
C      1  0.3657440000000  0.6460040000000  0.6835450000000 1.0
C      1  0.6539040000000  0.6494730000000  0.4646030000000 1.0
C      1  0.4528260000000  0.6489420000000  0.6510650000000 1.0
C      1  0.3918580000000  0.6488350000000  0.3830830000000 1.0
END
