TITL C-3036484-3770-740 -4.75297439831166e-06 3375 -335.730280080919 0 0 60 (C1) n - 1
REM
REM in /home/bkarasulu/work/CARBON/AIRSS/Generating-Clusters/REBO/Higher-Symm/Only-C60
REM
REM
REM
REM
REM
REM ./C.cell (a2850807a9bf4ad07a5b6933b78d9264)
REM AIRSS Version 0.9.1 bugfix July 2018 build 013d7b7c2542+ Fri, 06 Jul 2018 19:26:36 +0100
REM compiler GCC version 9.2.1 20190827 (Red Hat 9.2.1-1)
REM options -cpp -mtune=generic -march=x86-64 -g -O0 -fpre-include=/usr/include/finclude/math-vector-fortran.h
REM seed -137044054 -375943978 1572631571 80121345 1964884691 -1311438766 1291050129 -463130202 588252541 -1890232695 1514798737 409005069 1039352632 -911391762 -483786992 727920011 784125589 1338085061 -680609835 343387896 -1555802674 -292067562 -1156504707 -239658808 -1778666222 -353813035 -667360968 556341969 2052800896 -756691004 -281237888 2033327869 617600903
REM
CELL 1.54180   15.00000   15.00000   15.00000   90.00000   90.00000   90.00000
LATT -1
SFAC C  
C      1  0.4180000000000  0.5493080000000  0.4267670000000 1.0
C      1  0.6279010000000  0.6018860000000  0.4242180000000 1.0
C      1  0.3347980000000  0.3783070000000  0.5711830000000 1.0
C      1  0.7114290000000  0.5404200000000  0.5076650000000 1.0
C      1  0.5574320000000  0.5151360000000  0.7287230000000 1.0
C      1  0.5542460000000  0.6903260000000  0.6099330000000 1.0
C      1  0.5349550000000  0.4606310000000  0.3223150000000 1.0
C      1  0.3586710000000  0.4237570000000  0.3133970000000 1.0
C      1  0.4734070000000  0.7231330000000  0.5656970000000 1.0
C      1  0.6860280000000  0.5883820000000  0.6556750000000 1.0
C      1  0.2756380000000  0.6500480000000  0.4209590000000 1.0
C      1  0.6850950000000  0.4100060000000  0.6087080000000 1.0
C      1  0.4835880000000  0.5278280000000  0.2678200000000 1.0
C      1  0.6225350000000  0.3306590000000  0.5711150000000 1.0
C      1  0.4010940000000  0.3206900000000  0.3155650000000 1.0
C      1  0.6062930000000  0.3699370000000  0.4723910000000 1.0
C      1  0.5817760000000  0.4527240000000  0.6042790000000 1.0
C      1  0.4875660000000  0.7176210000000  0.4571590000000 1.0
C      1  0.5148910000000  0.4326970000000  0.7177720000000 1.0
C      1  0.5606030000000  0.3547630000000  0.3013140000000 1.0
C      1  0.5394840000000  0.4813700000000  0.4318200000000 1.0
C      1  0.5050690000000  0.4346740000000  0.5295110000000 1.0
C      1  0.5002050000000  0.3556930000000  0.4494510000000 1.0
C      1  0.5364080000000  0.5814770000000  0.3785710000000 1.0
C      1  0.5959860000000  0.7357180000000  0.4678100000000 1.0
C      1  0.6976080000000  0.4722180000000  0.3505410000000 1.0
C      1  0.4266390000000  0.6009620000000  0.6619170000000 1.0
C      1  0.2560090000000  0.5994990000000  0.4957190000000 1.0
C      1  0.4930880000000  0.3012720000000  0.3546600000000 1.0
C      1  0.3603400000000  0.5121750000000  0.3359160000000 1.0
C      1  0.5543660000000  0.3559610000000  0.6585360000000 1.0
C      1  0.3926180000000  0.3799560000000  0.4761080000000 1.0
C      1  0.2674560000000  0.5064990000000  0.4849410000000 1.0
C      1  0.4618360000000  0.6617440000000  0.3707990000000 1.0
C      1  0.3395760000000  0.3540530000000  0.3931820000000 1.0
C      1  0.5909330000000  0.5517170000000  0.6051240000000 1.0
C      1  0.4129190000000  0.4390850000000  0.7069910000000 1.0
C      1  0.4063830000000  0.5656760000000  0.5579370000000 1.0
C      1  0.7463660000000  0.4505150000000  0.5405740000000 1.0
C      1  0.6492970000000  0.4725730000000  0.4483240000000 1.0
C      1  0.3132320000000  0.4419880000000  0.6503720000000 1.0
C      1  0.2880960000000  0.5438120000000  0.6572100000000 1.0
C      1  0.7040530000000  0.5702600000000  0.3767660000000 1.0
C      1  0.6318370000000  0.6966100000000  0.5496170000000 1.0
C      1  0.4554720000000  0.6055000000000  0.2757580000000 1.0
C      1  0.6376110000000  0.4301070000000  0.2918410000000 1.0
C      1  0.3074540000000  0.6179250000000  0.5831490000000 1.0
C      1  0.5035300000000  0.2216440000000  0.5222520000000 1.0
C      1  0.5279730000000  0.6064120000000  0.6759830000000 1.0
C      1  0.4958220000000  0.2238910000000  0.4320590000000 1.0
C      1  0.3580040000000  0.6209630000000  0.3651450000000 1.0
C      1  0.4768590000000  0.6115060000000  0.4931710000000 1.0
C      1  0.3723450000000  0.5366350000000  0.7200800000000 1.0
C      1  0.6946850000000  0.6204500000000  0.5584670000000 1.0
C      1  0.7190100000000  0.3672510000000  0.4872410000000 1.0
C      1  0.3703770000000  0.4810610000000  0.4952350000000 1.0
C      1  0.3926120000000  0.6887880000000  0.6049140000000 1.0
C      1  0.4309210000000  0.4144030000000  0.5988250000000 1.0
C      1  0.5377240000000  0.2653780000000  0.5921620000000 1.0
C      1  0.5738510000000  0.5843210000000  0.5086690000000 1.0
END
