TITL C-3036484-3770-796 -7.41243072784701e-05 3375 -361.430223585519 0 0 60 (D2d) n - 1
REM
REM in /home/bkarasulu/work/CARBON/AIRSS/Generating-Clusters/REBO/Higher-Symm/Only-C60
REM
REM
REM
REM
REM
REM ./C.cell (a2850807a9bf4ad07a5b6933b78d9264)
REM AIRSS Version 0.9.1 bugfix July 2018 build 013d7b7c2542+ Fri, 06 Jul 2018 19:26:36 +0100
REM compiler GCC version 9.2.1 20190827 (Red Hat 9.2.1-1)
REM options -cpp -mtune=generic -march=x86-64 -g -O0 -fpre-include=/usr/include/finclude/math-vector-fortran.h
REM seed -1613804742 -244213729 -1056911732 -786167017 1664886137 -1009107866 -2096274302 1450566328 1842553762 119936355 2093317694 -467629189 -2063079251 -1523082997 -229163252 327189225 1879977554 -784254461 -1924029152 731641034 555610511 -441113484 519698497 11617581 -164821221 -1240382588 -1952472950 -1595501264 1956022180 -1440661051 654617499 1980505353 -1331655388
REM
CELL 1.54180   15.00000   15.00000   15.00000   90.00000   90.00000   90.00000
LATT -1
SFAC C  
C      1  0.5969800000000  0.2762580000000  0.5327380000000 1.0
C      1  0.4030200000000  0.2762580000000  0.4672620000000 1.0
C      1  0.5969800000000  0.7237420000000  0.4672620000000 1.0
C      1  0.4030200000000  0.7237420000000  0.5327380000000 1.0
C      1  0.5327380000000  0.2762580000000  0.5969800000000 1.0
C      1  0.4672620000000  0.2762580000000  0.4030200000000 1.0
C      1  0.4672620000000  0.7237420000000  0.5969800000000 1.0
C      1  0.5327380000000  0.7237420000000  0.4030200000000 1.0
C      1  0.5504800000000  0.5891590000000  0.3111720000000 1.0
C      1  0.4495200000000  0.5891590000000  0.6888280000000 1.0
C      1  0.5504800000000  0.4108410000000  0.6888280000000 1.0
C      1  0.4495200000000  0.4108410000000  0.3111720000000 1.0
C      1  0.3111720000000  0.5891590000000  0.5504800000000 1.0
C      1  0.6888280000000  0.5891590000000  0.4495200000000 1.0
C      1  0.6888280000000  0.4108410000000  0.5504800000000 1.0
C      1  0.3111720000000  0.4108410000000  0.4495200000000 1.0
C      1  0.4003630000000  0.6430140000000  0.3315240000000 1.0
C      1  0.5996370000000  0.6430140000000  0.6684760000000 1.0
C      1  0.4003630000000  0.3569860000000  0.6684760000000 1.0
C      1  0.5996370000000  0.3569860000000  0.3315240000000 1.0
C      1  0.3315240000000  0.6430140000000  0.4003630000000 1.0
C      1  0.6684760000000  0.6430140000000  0.5996370000000 1.0
C      1  0.6684760000000  0.3569860000000  0.4003630000000 1.0
C      1  0.3315240000000  0.3569860000000  0.5996370000000 1.0
C      1  0.7307700000000  0.4302920000000  0.3866460000000 1.0
C      1  0.2692300000000  0.4302920000000  0.6133540000000 1.0
C      1  0.7307700000000  0.5697080000000  0.6133540000000 1.0
C      1  0.2692300000000  0.5697080000000  0.3866460000000 1.0
C      1  0.3866460000000  0.4302920000000  0.7307700000000 1.0
C      1  0.6133540000000  0.4302920000000  0.2692300000000 1.0
C      1  0.6133540000000  0.5697080000000  0.7307700000000 1.0
C      1  0.3866460000000  0.5697080000000  0.2692300000000 1.0
C      1  0.3960450000000  0.5237600000000  0.5398580000000 1.0
C      1  0.6039560000000  0.5237600000000  0.4601410000000 1.0
C      1  0.3960450000000  0.4762410000000  0.4601420000000 1.0
C      1  0.6039560000000  0.4762410000000  0.5398590000000 1.0
C      1  0.5398590000000  0.5237600000000  0.3960440000000 1.0
C      1  0.4601410000000  0.5237600000000  0.6039570000000 1.0
C      1  0.4601410000000  0.4762410000000  0.3960440000000 1.0
C      1  0.5398590000000  0.4762410000000  0.6039560000000 1.0
C      1  0.3401860000000  0.3328510000000  0.5077730000000 1.0
C      1  0.6598140000000  0.3328510000000  0.4922270000000 1.0
C      1  0.3401860000000  0.6671490000000  0.4922270000000 1.0
C      1  0.6598140000000  0.6671490000000  0.5077730000000 1.0
C      1  0.5077730000000  0.3328510000000  0.3401860000000 1.0
C      1  0.4922270000000  0.3328510000000  0.6598140000000 1.0
C      1  0.4922270000000  0.6671490000000  0.3401860000000 1.0
C      1  0.5077730000000  0.6671490000000  0.6598140000000 1.0
C      1  0.3008500000000  0.4816430000000  0.3670290000000 1.0
C      1  0.6991490000000  0.4816430000000  0.6329700000000 1.0
C      1  0.3008500000000  0.5183570000000  0.6329710000000 1.0
C      1  0.6991490000000  0.5183570000000  0.3670300000000 1.0
C      1  0.3670300000000  0.4816430000000  0.3008510000000 1.0
C      1  0.6329700000000  0.4816430000000  0.6991490000000 1.0
C      1  0.6329700000000  0.5183570000000  0.3008510000000 1.0
C      1  0.3670310000000  0.5183570000000  0.6991480000000 1.0
C      1  0.5000000000000  0.5000000000000  0.2681580000000 1.0
C      1  0.5000000000000  0.5000000000000  0.7318420000000 1.0
C      1  0.7318420000000  0.5000000000000  0.5000000000000 1.0
C      1  0.2681580000000  0.5000000000000  0.5000000000000 1.0
END
