TITL C-3036479-9801-481 0.00073829445773734 3375 -360.929190072001 0 0 60 (C1) n - 1
REM
REM in /home/bkarasulu/work/CARBON/AIRSS/Generating-Clusters/REBO/Higher-Symm/Only-C60
REM
REM
REM
REM
REM
REM ./C.cell (a2850807a9bf4ad07a5b6933b78d9264)
REM AIRSS Version 0.9.1 bugfix July 2018 build 013d7b7c2542+ Fri, 06 Jul 2018 19:26:36 +0100
REM compiler GCC version 9.2.1 20190827 (Red Hat 9.2.1-1)
REM options -cpp -mtune=generic -march=x86-64 -g -O0 -fpre-include=/usr/include/finclude/math-vector-fortran.h
REM seed 953965870 1877392783 -292176435 -2081473090 -1329682053 1929433842 -255475392 1985815152 444171294 348332674 1349174159 1318925432 365029372 1606865431 -859877291 -1127525359 667814045 -1647914514 1321837321 -1411333787 -1042966310 1854824408 937942076 2136117596 1283387588 679585911 720307191 2044393351 1170904035 -1675215803 1342555210 2104108074 934500617
REM
CELL 1.54180   15.00000   15.00000   15.00000   90.00000   90.00000   90.00000
LATT -1
SFAC C  
C      1  0.3365610000000  0.3068630000000  0.4457950000000 1.0
C      1  0.4521910000000  0.3575560000000  0.3240260000000 1.0
C      1  0.3289330000000  0.4558990000000  0.3447430000000 1.0
C      1  0.3254670000000  0.6690070000000  0.5482350000000 1.0
C      1  0.6511000000000  0.6779130000000  0.4431790000000 1.0
C      1  0.6513320000000  0.3013830000000  0.5478350000000 1.0
C      1  0.4582000000000  0.6738400000000  0.6896970000000 1.0
C      1  0.5540950000000  0.6749000000000  0.3135080000000 1.0
C      1  0.5579710000000  0.3451910000000  0.7016100000000 1.0
C      1  0.3145630000000  0.5479730000000  0.6557930000000 1.0
C      1  0.7078680000000  0.5460530000000  0.3206950000000 1.0
C      1  0.6794750000000  0.4489970000000  0.6615450000000 1.0
C      1  0.6321660000000  0.3036590000000  0.4503990000000 1.0
C      1  0.5502220000000  0.3480490000000  0.3148870000000 1.0
C      1  0.6969830000000  0.4493660000000  0.3340140000000 1.0
C      1  0.6552870000000  0.6684650000000  0.5385660000000 1.0
C      1  0.3303070000000  0.6721500000000  0.4494300000000 1.0
C      1  0.3587090000000  0.3191180000000  0.5412790000000 1.0
C      1  0.5543510000000  0.6653740000000  0.6796450000000 1.0
C      1  0.4534430000000  0.6764720000000  0.3126650000000 1.0
C      1  0.4667080000000  0.3618760000000  0.6651710000000 1.0
C      1  0.6739070000000  0.5453500000000  0.6432830000000 1.0
C      1  0.3247530000000  0.5521460000000  0.3383100000000 1.0
C      1  0.3383680000000  0.4557440000000  0.6504050000000 1.0
C      1  0.4142300000000  0.5839220000000  0.3220330000000 1.0
C      1  0.3136960000000  0.4042460000000  0.5757030000000 1.0
C      1  0.5422670000000  0.3143220000000  0.4113530000000 1.0
C      1  0.4310380000000  0.4488880000000  0.6720790000000 1.0
C      1  0.6020120000000  0.4242170000000  0.3047280000000 1.0
C      1  0.6049180000000  0.5869630000000  0.7026030000000 1.0
C      1  0.2886740000000  0.5885590000000  0.4179640000000 1.0
C      1  0.6776890000000  0.5762780000000  0.5534600000000 1.0
C      1  0.6851410000000  0.3874430000000  0.4123060000000 1.0
C      1  0.5790320000000  0.6931000000000  0.5870070000000 1.0
C      1  0.4175310000000  0.6828380000000  0.4111700000000 1.0
C      1  0.4473450000000  0.3173450000000  0.5779130000000 1.0
C      1  0.6137780000000  0.5993920000000  0.2979160000000 1.0
C      1  0.6901320000000  0.3931990000000  0.5862610000000 1.0
C      1  0.4151000000000  0.2866990000000  0.3860590000000 1.0
C      1  0.6057560000000  0.4257790000000  0.7222670000000 1.0
C      1  0.4246430000000  0.4451070000000  0.3439380000000 1.0
C      1  0.3887710000000  0.5945320000000  0.6934970000000 1.0
C      1  0.6913210000000  0.5979380000000  0.4060730000000 1.0
C      1  0.2866440000000  0.5818890000000  0.5718060000000 1.0
C      1  0.2842310000000  0.3866250000000  0.4032350000000 1.0
C      1  0.4034580000000  0.6866040000000  0.5981560000000 1.0
C      1  0.5615000000000  0.6871090000000  0.4118500000000 1.0
C      1  0.5730870000000  0.3001210000000  0.6138560000000 1.0
C      1  0.6449060000000  0.5171130000000  0.4649070000000 1.0
C      1  0.4525710000000  0.3714240000000  0.4566030000000 1.0
C      1  0.4895380000000  0.6167270000000  0.4618380000000 1.0
C      1  0.4840500000000  0.5478370000000  0.6551210000000 1.0
C      1  0.4856310000000  0.5300470000000  0.3879130000000 1.0
C      1  0.6275950000000  0.4245620000000  0.5037940000000 1.0
C      1  0.3595110000000  0.4344260000000  0.4758370000000 1.0
C      1  0.2924710000000  0.5249810000000  0.4926200000000 1.0
C      1  0.4907420000000  0.6238300000000  0.5704660000000 1.0
C      1  0.5381410000000  0.3696590000000  0.5309730000000 1.0
C      1  0.5531970000000  0.5065190000000  0.7349730000000 1.0
C      1  0.5866950000000  0.5164160000000  0.3670100000000 1.0
END
