TITL C-3036485-3770-488 0.00769206969742044 3375 -328.068550162957 0 0 60 (C1) n - 1
REM
REM in /home/bkarasulu/work/CARBON/AIRSS/Generating-Clusters/REBO/Higher-Symm/Only-C60
REM
REM
REM
REM
REM
REM ./C.cell (a2850807a9bf4ad07a5b6933b78d9264)
REM AIRSS Version 0.9.1 bugfix July 2018 build 013d7b7c2542+ Fri, 06 Jul 2018 19:26:36 +0100
REM compiler GCC version 9.2.1 20190827 (Red Hat 9.2.1-1)
REM options -cpp -mtune=generic -march=x86-64 -g -O0 -fpre-include=/usr/include/finclude/math-vector-fortran.h
REM seed 1546062786 1312995811 1858038483 482791419 -815539280 635644361 990966967 -756715469 -930789884 988316040 -1676680964 658795464 -220777294 962148364 1422728057 1725797930 1331256995 1782792647 398269464 71425454 31601574 -1366499069 -188505310 -887858667 289449431 839040359 -782015935 654674995 575183025 1496283454 1853966551 -614459254 -2136788436
REM
CELL 1.54180   15.00000   15.00000   15.00000   90.00000   90.00000   90.00000
LATT -1
SFAC C  
C      1  0.2918220000000  0.5049650000000  0.5729800000000 1.0
C      1  0.6061810000000  0.6915420000000  0.5915450000000 1.0
C      1  0.6059390000000  0.3278500000000  0.5735190000000 1.0
C      1  0.6216910000000  0.5267790000000  0.3912170000000 1.0
C      1  0.4573950000000  0.3484790000000  0.4104840000000 1.0
C      1  0.4212770000000  0.6036880000000  0.4402990000000 1.0
C      1  0.6810530000000  0.5738060000000  0.6249490000000 1.0
C      1  0.4733560000000  0.3128360000000  0.6143790000000 1.0
C      1  0.3492090000000  0.6249900000000  0.6230260000000 1.0
C      1  0.4201000000000  0.5764270000000  0.6988750000000 1.0
C      1  0.6045100000000  0.5326920000000  0.6994880000000 1.0
C      1  0.4748740000000  0.3952090000000  0.6941370000000 1.0
C      1  0.5468420000000  0.4195290000000  0.5838850000000 1.0
C      1  0.4021430000000  0.5097140000000  0.5826620000000 1.0
C      1  0.5543150000000  0.5918910000000  0.5886040000000 1.0
C      1  0.7009380000000  0.4803330000000  0.4542920000000 1.0
C      1  0.3676940000000  0.3339850000000  0.4715910000000 1.0
C      1  0.4196000000000  0.7036600000000  0.4856880000000 1.0
C      1  0.5418220000000  0.5663020000000  0.3210110000000 1.0
C      1  0.5045000000000  0.4026530000000  0.3226810000000 1.0
C      1  0.4666600000000  0.5021960000000  0.3123890000000 1.0
C      1  0.5318080000000  0.5414730000000  0.4514390000000 1.0
C      1  0.5211960000000  0.4285650000000  0.4520200000000 1.0
C      1  0.4290560000000  0.4947180000000  0.4446440000000 1.0
C      1  0.5135420000000  0.6760410000000  0.3246570000000 1.0
C      1  0.6179410000000  0.3924000000000  0.3185440000000 1.0
C      1  0.3735250000000  0.4358740000000  0.3224340000000 1.0
C      1  0.3659270000000  0.5478760000000  0.3401390000000 1.0
C      1  0.6232260000000  0.6469560000000  0.3373500000000 1.0
C      1  0.5545640000000  0.2995820000000  0.3353080000000 1.0
C      1  0.5734890000000  0.6412330000000  0.4379400000000 1.0
C      1  0.5873790000000  0.3379930000000  0.4361790000000 1.0
C      1  0.3169420000000  0.4947270000000  0.4274920000000 1.0
C      1  0.4433890000000  0.4107410000000  0.5659530000000 1.0
C      1  0.4482400000000  0.6069450000000  0.5725550000000 1.0
C      1  0.6115560000000  0.5055900000000  0.5692750000000 1.0
C      1  0.6590410000000  0.6595940000000  0.5078110000000 1.0
C      1  0.5564070000000  0.2625790000000  0.5104110000000 1.0
C      1  0.2662150000000  0.5687110000000  0.4929190000000 1.0
C      1  0.6205350000000  0.6448630000000  0.6904760000000 1.0
C      1  0.5662830000000  0.3284020000000  0.6781770000000 1.0
C      1  0.3158100000000  0.5327950000000  0.6802480000000 1.0
C      1  0.4968580000000  0.2436420000000  0.4157400000000 1.0
C      1  0.3173930000000  0.6254610000000  0.4084840000000 1.0
C      1  0.6985100000000  0.6072300000000  0.4136980000000 1.0
C      1  0.4441800000000  0.2678800000000  0.5152060000000 1.0
C      1  0.3284820000000  0.6563490000000  0.5195750000000 1.0
C      1  0.7221130000000  0.5688330000000  0.5193460000000 1.0
C      1  0.6785460000000  0.3499030000000  0.4643380000000 1.0
C      1  0.2684390000000  0.4220650000000  0.4714910000000 1.0
C      1  0.5493970000000  0.7287520000000  0.4774380000000 1.0
C      1  0.4564500000000  0.7180000000000  0.3825690000000 1.0
C      1  0.6960470000000  0.4238290000000  0.3558670000000 1.0
C      1  0.3332490000000  0.3681350000000  0.3691430000000 1.0
C      1  0.3320150000000  0.4010400000000  0.5509270000000 1.0
C      1  0.4970560000000  0.7096410000000  0.5649910000000 1.0
C      1  0.6731870000000  0.4151750000000  0.5431210000000 1.0
C      1  0.5141490000000  0.6016610000000  0.6953360000000 1.0
C      1  0.5787720000000  0.4411840000000  0.6913450000000 1.0
C      1  0.4071630000000  0.4640370000000  0.6877090000000 1.0
END
