TITL C-3036485-3770-715 1.31747219269496e-05 3375 -344.804417616994 0 0 60 (Th) n - 1
REM
REM in /home/bkarasulu/work/CARBON/AIRSS/Generating-Clusters/REBO/Higher-Symm/Only-C60
REM
REM
REM
REM
REM
REM ./C.cell (a2850807a9bf4ad07a5b6933b78d9264)
REM AIRSS Version 0.9.1 bugfix July 2018 build 013d7b7c2542+ Fri, 06 Jul 2018 19:26:36 +0100
REM compiler GCC version 9.2.1 20190827 (Red Hat 9.2.1-1)
REM options -cpp -mtune=generic -march=x86-64 -g -O0 -fpre-include=/usr/include/finclude/math-vector-fortran.h
REM seed -1904133529 -846704675 -1943970301 1405150695 -159465618 -783463203 -1025335411 -343106472 -641797370 67911096 2115600541 -514550564 339887041 1314305684 1150156182 -283815405 -1279707705 649518361 -247517788 -1140065298 2143082893 -1404559927 -2015038084 614218133 1256448245 317180506 801000335 -1295391118 1996949869 -2141538463 -478715025 -1953342341 -2100557375
REM
CELL 1.54180   15.00000   15.00000   15.00000   90.00000   90.00000   90.00000
LATT -1
SFAC C  
C      1  0.4111260000000  0.4016520000000  0.3288180000000 1.0
C      1  0.4016520000000  0.3288180000000  0.4111260000000 1.0
C      1  0.3288180000000  0.4111260000000  0.4016520000000 1.0
C      1  0.5888740000000  0.4016520000000  0.6711820000000 1.0
C      1  0.5888740000000  0.5983480000000  0.3288180000000 1.0
C      1  0.4111260000000  0.5983480000000  0.6711820000000 1.0
C      1  0.5983480000000  0.3288180000000  0.5888740000000 1.0
C      1  0.5983480000000  0.6711820000000  0.4111260000000 1.0
C      1  0.4016520000000  0.6711820000000  0.5888740000000 1.0
C      1  0.6711820000000  0.4111260000000  0.5983480000000 1.0
C      1  0.6711820000000  0.5888740000000  0.4016520000000 1.0
C      1  0.3288180000000  0.5888740000000  0.5983480000000 1.0
C      1  0.4111260000000  0.5983480000000  0.3288180000000 1.0
C      1  0.4016520000000  0.6711820000000  0.4111260000000 1.0
C      1  0.3288180000000  0.5888740000000  0.4016520000000 1.0
C      1  0.5888740000000  0.5983480000000  0.6711820000000 1.0
C      1  0.5888740000000  0.4016520000000  0.3288180000000 1.0
C      1  0.4111260000000  0.4016520000000  0.6711820000000 1.0
C      1  0.5983480000000  0.6711820000000  0.5888740000000 1.0
C      1  0.5983480000000  0.3288180000000  0.4111260000000 1.0
C      1  0.4016520000000  0.3288180000000  0.5888740000000 1.0
C      1  0.6711820000000  0.5888740000000  0.5983480000000 1.0
C      1  0.6711820000000  0.4111260000000  0.4016520000000 1.0
C      1  0.3288180000000  0.4111260000000  0.5983480000000 1.0
C      1  0.5524420000000  0.2354860000000  0.4467510000000 1.0
C      1  0.2354860000000  0.4467510000000  0.5524420000000 1.0
C      1  0.4467510000000  0.5524420000000  0.2354860000000 1.0
C      1  0.4475580000000  0.2354860000000  0.5532490000000 1.0
C      1  0.4475580000000  0.7645140000000  0.4467510000000 1.0
C      1  0.5524420000000  0.7645140000000  0.5532490000000 1.0
C      1  0.7645140000000  0.4467510000000  0.4475580000000 1.0
C      1  0.7645140000000  0.5532490000000  0.5524420000000 1.0
C      1  0.2354860000000  0.5532490000000  0.4475580000000 1.0
C      1  0.5532490000000  0.5524420000000  0.7645140000000 1.0
C      1  0.5532490000000  0.4475580000000  0.2354860000000 1.0
C      1  0.4467510000000  0.4475580000000  0.7645140000000 1.0
C      1  0.5524420000000  0.7645140000000  0.4467510000000 1.0
C      1  0.2354860000000  0.5532490000000  0.5524420000000 1.0
C      1  0.4467510000000  0.4475580000000  0.2354860000000 1.0
C      1  0.4475580000000  0.7645140000000  0.5532490000000 1.0
C      1  0.4475580000000  0.2354860000000  0.4467510000000 1.0
C      1  0.5524420000000  0.2354860000000  0.5532490000000 1.0
C      1  0.7645140000000  0.5532490000000  0.4475580000000 1.0
C      1  0.7645140000000  0.4467510000000  0.5524420000000 1.0
C      1  0.2354860000000  0.4467510000000  0.4475580000000 1.0
C      1  0.5532490000000  0.4475580000000  0.7645140000000 1.0
C      1  0.5532490000000  0.5524420000000  0.2354860000000 1.0
C      1  0.4467510000000  0.5524420000000  0.7645140000000 1.0
C      1  0.5455470000000  0.6431040000000  0.5000000000000 1.0
C      1  0.6431040000000  0.5000000000000  0.5455470000000 1.0
C      1  0.5000000000000  0.5455470000000  0.6431040000000 1.0
C      1  0.4544530000000  0.6431040000000  0.5000000000000 1.0
C      1  0.4544530000000  0.3568960000000  0.5000000000000 1.0
C      1  0.5455470000000  0.3568960000000  0.5000000000000 1.0
C      1  0.3568960000000  0.5000000000000  0.4544530000000 1.0
C      1  0.3568960000000  0.5000000000000  0.5455470000000 1.0
C      1  0.6431040000000  0.5000000000000  0.4544530000000 1.0
C      1  0.5000000000000  0.5455470000000  0.3568960000000 1.0
C      1  0.5000000000000  0.4544530000000  0.6431040000000 1.0
C      1  0.5000000000000  0.4544530000000  0.3568960000000 1.0
END
