TITL C-3036482-790-423 2.87259724903007e-06 3375 -342.846486047266 0 0 60 (C1) n - 1
REM
REM in /home/bkarasulu/work/CARBON/AIRSS/Generating-Clusters/REBO/Higher-Symm/Only-C60
REM
REM
REM
REM
REM
REM ./C.cell (a2850807a9bf4ad07a5b6933b78d9264)
REM AIRSS Version 0.9.1 bugfix July 2018 build 013d7b7c2542+ Fri, 06 Jul 2018 19:26:36 +0100
REM compiler GCC version 9.2.1 20190827 (Red Hat 9.2.1-1)
REM options -cpp -mtune=generic -march=x86-64 -g -O0 -fpre-include=/usr/include/finclude/math-vector-fortran.h
REM seed 1585168254 26982856 -2006967298 -115709401 1358442384 -833892545 982691872 1672960536 1505103095 2032910336 -1828566307 1182629596 -969440573 472614821 345038704 -131330453 -129795756 -1034142177 -317179305 -789366140 -2084431048 1084414178 -1123969658 995343315 979266347 1498981130 -752027387 -650489523 -1639339169 2086968684 -797881787 -1671131637 393961736
REM
CELL 1.54180   15.00000   15.00000   15.00000   90.00000   90.00000   90.00000
LATT -1
SFAC C  
C      1  0.5775340000000  0.6617900000000  0.4810850000000 1.0
C      1  0.6496440000000  0.4926960000000  0.2870560000000 1.0
C      1  0.5909920000000  0.3536080000000  0.3665610000000 1.0
C      1  0.6957280000000  0.5934170000000  0.6178990000000 1.0
C      1  0.7577850000000  0.5158890000000  0.4190420000000 1.0
C      1  0.3502200000000  0.5023590000000  0.3881770000000 1.0
C      1  0.6174030000000  0.5189100000000  0.4859670000000 1.0
C      1  0.7139640000000  0.4756570000000  0.4919010000000 1.0
C      1  0.4004710000000  0.5300700000000  0.6966580000000 1.0
C      1  0.5175500000000  0.5859210000000  0.5410360000000 1.0
C      1  0.2872330000000  0.5562160000000  0.4357510000000 1.0
C      1  0.4597820000000  0.6868240000000  0.3587080000000 1.0
C      1  0.5191030000000  0.3810820000000  0.7654320000000 1.0
C      1  0.2777870000000  0.4886350000000  0.5938500000000 1.0
C      1  0.6626620000000  0.3363000000000  0.5494790000000 1.0
C      1  0.6859430000000  0.5629840000000  0.3626680000000 1.0
C      1  0.6791650000000  0.5959530000000  0.5357750000000 1.0
C      1  0.5653980000000  0.6066580000000  0.6418180000000 1.0
C      1  0.4842090000000  0.4299420000000  0.5981990000000 1.0
C      1  0.5320390000000  0.4472000000000  0.3587130000000 1.0
C      1  0.4098180000000  0.5863960000000  0.5431130000000 1.0
C      1  0.3923410000000  0.3756900000000  0.6411070000000 1.0
C      1  0.2955040000000  0.3450810000000  0.5024230000000 1.0
C      1  0.7161030000000  0.4173250000000  0.5642490000000 1.0
C      1  0.5411590000000  0.2989190000000  0.5139130000000 1.0
C      1  0.4273000000000  0.3776120000000  0.3148030000000 1.0
C      1  0.3453370000000  0.3059650000000  0.5882280000000 1.0
C      1  0.4880820000000  0.4879640000000  0.6923560000000 1.0
C      1  0.2955910000000  0.4398530000000  0.5044150000000 1.0
C      1  0.6649310000000  0.4031510000000  0.3065610000000 1.0
C      1  0.2783230000000  0.5687970000000  0.5335570000000 1.0
C      1  0.5166870000000  0.4797620000000  0.5189340000000 1.0
C      1  0.2862100000000  0.7312810000000  0.5847380000000 1.0
C      1  0.4425670000000  0.6943930000000  0.5266560000000 1.0
C      1  0.5676040000000  0.7015040000000  0.5780660000000 1.0
C      1  0.4512870000000  0.4635580000000  0.4287210000000 1.0
C      1  0.3904000000000  0.6206800000000  0.6699040000000 1.0
C      1  0.6405280000000  0.6519740000000  0.4166190000000 1.0
C      1  0.4723410000000  0.6709210000000  0.6327870000000 1.0
C      1  0.4908450000000  0.3474490000000  0.6797400000000 1.0
C      1  0.3384950000000  0.4640130000000  0.6625960000000 1.0
C      1  0.6381870000000  0.4246510000000  0.6458830000000 1.0
C      1  0.4135390000000  0.6469510000000  0.2732360000000 1.0
C      1  0.5786680000000  0.5377050000000  0.3899990000000 1.0
C      1  0.3961960000000  0.4674620000000  0.3074670000000 1.0
C      1  0.6237480000000  0.3197880000000  0.4572780000000 1.0
C      1  0.6315980000000  0.5344870000000  0.6762740000000 1.0
C      1  0.8463160000000  0.5127720000000  0.3958960000000 1.0
C      1  0.5850500000000  0.4617130000000  0.7403120000000 1.0
C      1  0.2283520000000  0.6042740000000  0.3845100000000 1.0
C      1  0.5744000000000  0.3344660000000  0.6164470000000 1.0
C      1  0.3845480000000  0.4914250000000  0.5140620000000 1.0
C      1  0.4510140000000  0.7238500000000  0.4433800000000 1.0
C      1  0.4660360000000  0.2890850000000  0.4557600000000 1.0
C      1  0.3242000000000  0.6482090000000  0.5860460000000 1.0
C      1  0.4527790000000  0.5415690000000  0.2664910000000 1.0
C      1  0.3799430000000  0.2793600000000  0.4906850000000 1.0
C      1  0.5106740000000  0.5986930000000  0.3461390000000 1.0
C      1  0.5535930000000  0.5057340000000  0.2633620000000 1.0
C      1  0.4850960000000  0.3234080000000  0.3675120000000 1.0
END
