TITL C-3036484-3770-829 -0.00202874160179473 3375 -354.739095213987 0 0 60 (D4) n - 1
REM
REM in /home/bkarasulu/work/CARBON/AIRSS/Generating-Clusters/REBO/Higher-Symm/Only-C60
REM
REM
REM
REM
REM
REM ./C.cell (a2850807a9bf4ad07a5b6933b78d9264)
REM AIRSS Version 0.9.1 bugfix July 2018 build 013d7b7c2542+ Fri, 06 Jul 2018 19:26:36 +0100
REM compiler GCC version 9.2.1 20190827 (Red Hat 9.2.1-1)
REM options -cpp -mtune=generic -march=x86-64 -g -O0 -fpre-include=/usr/include/finclude/math-vector-fortran.h
REM seed -353409330 359660834 -2016972544 -1139405613 -947399564 -837073506 105492419 1541611647 2010860792 108669207 423011387 -1662443302 -243097668 908499918 -1249055944 1141655008 -845357576 1394977341 -1065254654 99568759 -379647459 -2129415068 596090031 -618844772 1257136751 -2012671802 298966983 592224038 2034575960 -1980366148 -921915373 1239955716 -282522672
REM
CELL 1.54180   15.00000   15.00000   15.00000   90.00000   90.00000   90.00000
LATT -1
SFAC C  
C      1  0.3403670000000  0.5509310000000  0.3541360000000 1.0
C      1  0.3541200000000  0.5509290000000  0.6596610000000 1.0
C      1  0.6596280000000  0.5509220000000  0.6458680000000 1.0
C      1  0.6458850000000  0.5509330000000  0.3403340000000 1.0
C      1  0.3403440000000  0.4559320000000  0.6458860000000 1.0
C      1  0.3541200000000  0.4559550000000  0.3403600000000 1.0
C      1  0.6596530000000  0.4559390000000  0.3541150000000 1.0
C      1  0.6458740000000  0.4559490000000  0.6596470000000 1.0
C      1  0.3863930000000  0.7085390000000  0.3556330000000 1.0
C      1  0.3555670000000  0.7085390000000  0.6136710000000 1.0
C      1  0.6136010000000  0.7085390000000  0.6443650000000 1.0
C      1  0.6444180000000  0.7085350000000  0.3863330000000 1.0
C      1  0.3863630000000  0.2983300000000  0.6443930000000 1.0
C      1  0.3556060000000  0.2983310000000  0.3863650000000 1.0
C      1  0.6136350000000  0.2983310000000  0.3556080000000 1.0
C      1  0.6443890000000  0.2983360000000  0.6136320000000 1.0
C      1  0.5775980000000  0.6088440000000  0.5199120000000 1.0
C      1  0.5199710000000  0.6088460000000  0.4223370000000 1.0
C      1  0.4224190000000  0.6088510000000  0.4800750000000 1.0
C      1  0.4800210000000  0.6088220000000  0.5776600000000 1.0
C      1  0.5776250000000  0.3980420000000  0.4800400000000 1.0
C      1  0.5199560000000  0.3980370000000  0.5776160000000 1.0
C      1  0.4223780000000  0.3980380000000  0.5199620000000 1.0
C      1  0.4800450000000  0.3980350000000  0.4223900000000 1.0
C      1  0.7371540000000  0.4036980000000  0.5371950000000 1.0
C      1  0.5371990000000  0.4036890000000  0.2628430000000 1.0
C      1  0.2628430000000  0.4037010000000  0.4628010000000 1.0
C      1  0.4628010000000  0.4036920000000  0.7371480000000 1.0
C      1  0.7371540000000  0.6031910000000  0.4628060000000 1.0
C      1  0.5371910000000  0.6031810000000  0.7371660000000 1.0
C      1  0.2628490000000  0.6031890000000  0.5371940000000 1.0
C      1  0.4628120000000  0.6031830000000  0.2628330000000 1.0
C      1  0.3317640000000  0.4314750000000  0.5482990000000 1.0
C      1  0.5482970000000  0.4314840000000  0.6682360000000 1.0
C      1  0.6682410000000  0.4314730000000  0.4517070000000 1.0
C      1  0.4517080000000  0.4314760000000  0.3317740000000 1.0
C      1  0.3317710000000  0.5754030000000  0.4517120000000 1.0
C      1  0.5482900000000  0.5754110000000  0.3317390000000 1.0
C      1  0.6682300000000  0.5754060000000  0.5482930000000 1.0
C      1  0.4517160000000  0.5754190000000  0.6682610000000 1.0
C      1  0.5577820000000  0.2924170000000  0.4443610000000 1.0
C      1  0.4443620000000  0.2924130000000  0.4422200000000 1.0
C      1  0.4422210000000  0.2924160000000  0.5556340000000 1.0
C      1  0.5556370000000  0.2924220000000  0.5577790000000 1.0
C      1  0.5577220000000  0.7144590000000  0.5556550000000 1.0
C      1  0.4443850000000  0.7144590000000  0.5578440000000 1.0
C      1  0.4422680000000  0.7144520000000  0.4443460000000 1.0
C      1  0.5556390000000  0.7144500000000  0.4421560000000 1.0
C      1  0.6924440000000  0.3819430000000  0.6174360000000 1.0
C      1  0.6174350000000  0.3819300000000  0.3075450000000 1.0
C      1  0.3075500000000  0.3819410000000  0.3825630000000 1.0
C      1  0.3825650000000  0.3819280000000  0.6924570000000 1.0
C      1  0.6924710000000  0.6249360000000  0.3825530000000 1.0
C      1  0.6174370000000  0.6249370000000  0.6924570000000 1.0
C      1  0.3075260000000  0.6249310000000  0.6174500000000 1.0
C      1  0.3825630000000  0.6249400000000  0.3075420000000 1.0
C      1  0.5000090000000  0.5034360000000  0.2656780000000 1.0
C      1  0.4999910000000  0.5034410000000  0.7343180000000 1.0
C      1  0.7342910000000  0.5034460000000  0.5000080000000 1.0
C      1  0.2657030000000  0.5034440000000  0.4999940000000 1.0
END
