TITL C-3036480-97-565 0.000189674969515621 3375 -328.345353730534 0 0 60 (C1) n - 1
REM
REM in /home/bkarasulu/work/CARBON/AIRSS/Generating-Clusters/REBO/Higher-Symm/Only-C60
REM
REM
REM
REM
REM
REM ./C.cell (a2850807a9bf4ad07a5b6933b78d9264)
REM AIRSS Version 0.9.1 bugfix July 2018 build 013d7b7c2542+ Fri, 06 Jul 2018 19:26:36 +0100
REM compiler GCC version 9.2.1 20190827 (Red Hat 9.2.1-1)
REM options -cpp -mtune=generic -march=x86-64 -g -O0 -fpre-include=/usr/include/finclude/math-vector-fortran.h
REM seed -759268417 -2054022831 806545948 -859363432 -25165026 -730093452 963445371 269567924 1213179589 -534288918 1217868823 -1374237371 600386024 77908855 -1405569401 -1345949994 -828197470 984956663 1171326741 1214103850 1296860830 -112446615 -1953409507 -1393780938 -604873781 1019963324 906484598 285486235 636139003 -858796049 384806387 762169905 283836213
REM
CELL 1.54180   15.00000   15.00000   15.00000   90.00000   90.00000   90.00000
LATT -1
SFAC C  
C      1  0.6707350000000  0.4383810000000  0.3351580000000 1.0
C      1  0.6556760000000  0.5934820000000  0.3345460000000 1.0
C      1  0.5249100000000  0.6783940000000  0.3354710000000 1.0
C      1  0.3762400000000  0.6316860000000  0.3345490000000 1.0
C      1  0.3192570000000  0.4863660000000  0.3345460000000 1.0
C      1  0.4020980000000  0.3535570000000  0.3414920000000 1.0
C      1  0.5561610000000  0.3327750000000  0.3416210000000 1.0
C      1  0.6665020000000  0.3179650000000  0.5538870000000 1.0
C      1  0.7592990000000  0.5077520000000  0.5518310000000 1.0
C      1  0.6552150000000  0.6999950000000  0.5540580000000 1.0
C      1  0.4402220000000  0.7433560000000  0.5541820000000 1.0
C      1  0.2695500000000  0.6068710000000  0.5513120000000 1.0
C      1  0.2705250000000  0.3884580000000  0.5493690000000 1.0
C      1  0.4528370000000  0.2650540000000  0.5553360000000 1.0
C      1  0.5667720000000  0.2552170000000  0.5538030000000 1.0
C      1  0.7541200000000  0.3914990000000  0.5461280000000 1.0
C      1  0.7402500000000  0.6203280000000  0.5492690000000 1.0
C      1  0.5561200000000  0.7567730000000  0.5516590000000 1.0
C      1  0.3325590000000  0.7051900000000  0.5501660000000 1.0
C      1  0.2322390000000  0.4988680000000  0.5479030000000 1.0
C      1  0.3397310000000  0.2975730000000  0.5514150000000 1.0
C      1  0.3057070000000  0.4861790000000  0.4660560000000 1.0
C      1  0.3956040000000  0.3529980000000  0.4736350000000 1.0
C      1  0.5611610000000  0.3309330000000  0.4737420000000 1.0
C      1  0.6895550000000  0.4342470000000  0.4658780000000 1.0
C      1  0.6689980000000  0.6014750000000  0.4657240000000 1.0
C      1  0.5260810000000  0.6911390000000  0.4669440000000 1.0
C      1  0.3658850000000  0.6407430000000  0.4659680000000 1.0
C      1  0.5346400000000  0.3967300000000  0.2730060000000 1.0
C      1  0.6042580000000  0.4619710000000  0.2700250000000 1.0
C      1  0.5953520000000  0.5569610000000  0.2693100000000 1.0
C      1  0.5154730000000  0.6091250000000  0.2695890000000 1.0
C      1  0.4245170000000  0.5802820000000  0.2692310000000 1.0
C      1  0.3901440000000  0.4911630000000  0.2696540000000 1.0
C      1  0.4399510000000  0.4095950000000  0.2729570000000 1.0
C      1  0.3354300000000  0.4722770000000  0.5758000000000 1.0
C      1  0.4196010000000  0.3674610000000  0.5850430000000 1.0
C      1  0.5677600000000  0.3615280000000  0.5841390000000 1.0
C      1  0.6670370000000  0.4494080000000  0.5770970000000 1.0
C      1  0.6371940000000  0.5925650000000  0.5752980000000 1.0
C      1  0.5098590000000  0.6598960000000  0.5759270000000 1.0
C      1  0.3774660000000  0.6080250000000  0.5751550000000 1.0
C      1  0.3790730000000  0.4818510000000  0.6617970000000 1.0
C      1  0.4347560000000  0.3924030000000  0.6844200000000 1.0
C      1  0.5473260000000  0.3834510000000  0.6822350000000 1.0
C      1  0.6160620000000  0.4640540000000  0.6569950000000 1.0
C      1  0.5900590000000  0.5554330000000  0.6508850000000 1.0
C      1  0.5073210000000  0.5981970000000  0.6504900000000 1.0
C      1  0.4186470000000  0.5689730000000  0.6539970000000 1.0
C      1  0.3138720000000  0.5724060000000  0.4050430000000 1.0
C      1  0.3286450000000  0.4027430000000  0.4065140000000 1.0
C      1  0.4750240000000  0.3163110000000  0.4152460000000 1.0
C      1  0.6392020000000  0.3612490000000  0.4094160000000 1.0
C      1  0.7004390000000  0.5199240000000  0.4056880000000 1.0
C      1  0.6095320000000  0.6650340000000  0.4065430000000 1.0
C      1  0.4398120000000  0.6880850000000  0.4065230000000 1.0
C      1  0.4965450000000  0.4752190000000  0.6007090000000 1.0
C      1  0.4990810000000  0.4813340000000  0.7127360000000 1.0
C      1  0.4943290000000  0.4706630000000  0.5120580000000 1.0
C      1  0.4921040000000  0.4662400000000  0.4248420000000 1.0
END
