TITL C-3036480-97-211 -1.7606381106842e-05 3375 -349.222012352011 0 0 60 (Th) n - 1
REM
REM in /home/bkarasulu/work/CARBON/AIRSS/Generating-Clusters/REBO/Higher-Symm/Only-C60
REM
REM
REM
REM
REM
REM ./C.cell (a2850807a9bf4ad07a5b6933b78d9264)
REM AIRSS Version 0.9.1 bugfix July 2018 build 013d7b7c2542+ Fri, 06 Jul 2018 19:26:36 +0100
REM compiler GCC version 9.2.1 20190827 (Red Hat 9.2.1-1)
REM options -cpp -mtune=generic -march=x86-64 -g -O0 -fpre-include=/usr/include/finclude/math-vector-fortran.h
REM seed -354806238 1292286410 1677754246 1646593726 -547060373 -712979985 -307609233 -1350869695 -657622269 1776805843 -1811559375 -923055136 -675564387 -1227691261 -2772452 -1520687720 -547740949 1467759365 -1248359945 -2107065755 429156482 1590291354 -1121977339 -1784084866 1899618089 -1884270303 -59840017 -368987612 1434747355 531297519 -1028519602 -784330995 1173842311
REM
CELL 1.54180   15.00000   15.00000   15.00000   90.00000   90.00000   90.00000
LATT -1
SFAC C  
C      1  0.2893240000000  0.4427060000000  0.4462000000000 1.0
C      1  0.4427060000000  0.4462000000000  0.2893240000000 1.0
C      1  0.4462000000000  0.2893240000000  0.4427060000000 1.0
C      1  0.2893240000000  0.5572940000000  0.5538000000000 1.0
C      1  0.7106760000000  0.4427060000000  0.5538000000000 1.0
C      1  0.7106760000000  0.5572940000000  0.4462000000000 1.0
C      1  0.4427060000000  0.5538000000000  0.7106760000000 1.0
C      1  0.5572940000000  0.4462000000000  0.7106760000000 1.0
C      1  0.5572940000000  0.5538000000000  0.2893240000000 1.0
C      1  0.4462000000000  0.7106760000000  0.5572940000000 1.0
C      1  0.5538000000000  0.2893240000000  0.5572940000000 1.0
C      1  0.5538000000000  0.7106760000000  0.4427060000000 1.0
C      1  0.7106760000000  0.4427060000000  0.4462000000000 1.0
C      1  0.5572940000000  0.4462000000000  0.2893240000000 1.0
C      1  0.5538000000000  0.2893240000000  0.4427060000000 1.0
C      1  0.7106760000000  0.5572940000000  0.5538000000000 1.0
C      1  0.2893240000000  0.4427060000000  0.5538000000000 1.0
C      1  0.2893240000000  0.5572940000000  0.4462000000000 1.0
C      1  0.5572940000000  0.5538000000000  0.7106760000000 1.0
C      1  0.4427060000000  0.4462000000000  0.7106760000000 1.0
C      1  0.4427060000000  0.5538000000000  0.2893240000000 1.0
C      1  0.5538000000000  0.7106760000000  0.5572940000000 1.0
C      1  0.4462000000000  0.2893240000000  0.5572940000000 1.0
C      1  0.4462000000000  0.7106760000000  0.4427060000000 1.0
C      1  0.6711400000000  0.6539170000000  0.4160280000000 1.0
C      1  0.6539170000000  0.4160280000000  0.6711390000000 1.0
C      1  0.4160280000000  0.6711390000000  0.6539170000000 1.0
C      1  0.6711400000000  0.3460830000000  0.5839720000000 1.0
C      1  0.3288600000000  0.6539170000000  0.5839720000000 1.0
C      1  0.3288600000000  0.3460830000000  0.4160280000000 1.0
C      1  0.6539170000000  0.5839720000000  0.3288610000000 1.0
C      1  0.3460830000000  0.4160280000000  0.3288600000000 1.0
C      1  0.3460830000000  0.5839720000000  0.6711400000000 1.0
C      1  0.4160280000000  0.3288610000000  0.3460830000000 1.0
C      1  0.5839720000000  0.6711390000000  0.3460830000000 1.0
C      1  0.5839720000000  0.3288610000000  0.6539170000000 1.0
C      1  0.3288600000000  0.6539170000000  0.4160280000000 1.0
C      1  0.3460830000000  0.4160280000000  0.6711400000000 1.0
C      1  0.5839720000000  0.6711400000000  0.6539180000000 1.0
C      1  0.3288600000000  0.3460830000000  0.5839720000000 1.0
C      1  0.6711400000000  0.6539180000000  0.5839720000000 1.0
C      1  0.6711400000000  0.3460820000000  0.4160280000000 1.0
C      1  0.3460830000000  0.5839720000000  0.3288600000000 1.0
C      1  0.6539180000000  0.4160280000000  0.3288600000000 1.0
C      1  0.6539180000000  0.5839720000000  0.6711400000000 1.0
C      1  0.5839720000000  0.3288600000000  0.3460820000000 1.0
C      1  0.4160280000000  0.6711400000000  0.3460830000000 1.0
C      1  0.4160280000000  0.3288610000000  0.6539170000000 1.0
C      1  0.6517170000000  0.2889290000000  0.5000000000000 1.0
C      1  0.3482830000000  0.7110710000000  0.5000000000000 1.0
C      1  0.7110710000000  0.5000000000000  0.3482830000000 1.0
C      1  0.5000000000000  0.3482830000000  0.7110710000000 1.0
C      1  0.2889290000000  0.5000000000000  0.6517170000000 1.0
C      1  0.5000000000000  0.6517170000000  0.2889290000000 1.0
C      1  0.3482830000000  0.2889290000000  0.5000000000000 1.0
C      1  0.6517170000000  0.7110710000000  0.5000000000000 1.0
C      1  0.7110710000000  0.5000000000000  0.6517170000000 1.0
C      1  0.2889290000000  0.5000000000000  0.3482830000000 1.0
C      1  0.5000000000000  0.3482830000000  0.2889290000000 1.0
C      1  0.5000000000000  0.6517170000000  0.7110710000000 1.0
END
