TITL C-3036483-1610-964 0.0534090508084912 3375 -342.372951170789 0 0 60 (C1) n - 1
REM
REM in /home/bkarasulu/work/CARBON/AIRSS/Generating-Clusters/REBO/Higher-Symm/Only-C60
REM
REM
REM
REM
REM
REM ./C.cell (a2850807a9bf4ad07a5b6933b78d9264)
REM AIRSS Version 0.9.1 bugfix July 2018 build 013d7b7c2542+ Fri, 06 Jul 2018 19:26:36 +0100
REM compiler GCC version 9.2.1 20190827 (Red Hat 9.2.1-1)
REM options -cpp -mtune=generic -march=x86-64 -g -O0 -fpre-include=/usr/include/finclude/math-vector-fortran.h
REM seed -1199067606 1716699799 1871599958 -1518529700 -1663476911 -415935224 -1507450644 209748599 -1620056779 -380912681 898370306 -804267837 1842618801 -1673137536 642998329 1504469093 -361026026 -548406885 1542578117 1084842402 -1886695582 -578893534 1796619250 -1113913025 768802313 200021504 -1815686899 499004084 -2062087202 -824228449 -1170744748 775661911 -1802241486
REM
CELL 1.54180   15.00000   15.00000   15.00000   90.00000   90.00000   90.00000
LATT -1
SFAC C  
C      1  0.5004130000000  0.7769890000000  0.3725210000000 1.0
C      1  0.4035380000000  0.7641320000000  0.4240520000000 1.0
C      1  0.3899300000000  0.7820210000000  0.5312350000000 1.0
C      1  0.4488010000000  0.7646310000000  0.6236590000000 1.0
C      1  0.5565940000000  0.7821410000000  0.6142320000000 1.0
C      1  0.6296310000000  0.7649980000000  0.5325540000000 1.0
C      1  0.5941450000000  0.7846020000000  0.4304760000000 1.0
C      1  0.4571340000000  0.5901050000000  0.3853050000000 1.0
C      1  0.3907430000000  0.5834050000000  0.4639260000000 1.0
C      1  0.3992370000000  0.5908730000000  0.5751940000000 1.0
C      1  0.4882580000000  0.5842940000000  0.6257360000000 1.0
C      1  0.5936780000000  0.5901820000000  0.5912200000000 1.0
C      1  0.6200520000000  0.5845070000000  0.4922020000000 1.0
C      1  0.5618800000000  0.5902440000000  0.3972380000000 1.0
C      1  0.4296190000000  0.5163070000000  0.3075030000000 1.0
C      1  0.3076290000000  0.5168390000000  0.4376700000000 1.0
C      1  0.3261790000000  0.5199160000000  0.6184980000000 1.0
C      1  0.4809150000000  0.5167490000000  0.7118950000000 1.0
C      1  0.6517130000000  0.5161520000000  0.6502740000000 1.0
C      1  0.7068770000000  0.5183140000000  0.4790140000000 1.0
C      1  0.6092130000000  0.5204850000000  0.3256110000000 1.0
C      1  0.5197510000000  0.2970470000000  0.3778650000000 1.0
C      1  0.4161830000000  0.2792410000000  0.4202370000000 1.0
C      1  0.3766810000000  0.2970110000000  0.5245140000000 1.0
C      1  0.4368630000000  0.2974640000000  0.6040320000000 1.0
C      1  0.5383580000000  0.2966190000000  0.6106390000000 1.0
C      1  0.6097190000000  0.2967920000000  0.5375340000000 1.0
C      1  0.6007220000000  0.2978640000000  0.4360650000000 1.0
C      1  0.2772640000000  0.5600340000000  0.5313170000000 1.0
C      1  0.3819050000000  0.5577900000000  0.7029940000000 1.0
C      1  0.5801110000000  0.5571680000000  0.7195770000000 1.0
C      1  0.7217230000000  0.5558780000000  0.5783730000000 1.0
C      1  0.6911660000000  0.5616860000000  0.3817940000000 1.0
C      1  0.5229260000000  0.5582690000000  0.2738760000000 1.0
C      1  0.3358740000000  0.5558690000000  0.3421280000000 1.0
C      1  0.3588930000000  0.6809670000000  0.4861740000000 1.0
C      1  0.3664270000000  0.6926760000000  0.5975590000000 1.0
C      1  0.5186030000000  0.6809580000000  0.6529350000000 1.0
C      1  0.6250520000000  0.6914140000000  0.6180130000000 1.0
C      1  0.6373800000000  0.6817310000000  0.4571790000000 1.0
C      1  0.5770810000000  0.6939140000000  0.3633250000000 1.0
C      1  0.4379160000000  0.6853200000000  0.3509990000000 1.0
C      1  0.6409500000000  0.4170360000000  0.6399120000000 1.0
C      1  0.6963420000000  0.4190350000000  0.4787470000000 1.0
C      1  0.6050740000000  0.4213600000000  0.3344270000000 1.0
C      1  0.4354120000000  0.4176150000000  0.3223710000000 1.0
C      1  0.3198220000000  0.4179210000000  0.4422230000000 1.0
C      1  0.3350780000000  0.4207820000000  0.6116810000000 1.0
C      1  0.4815350000000  0.4177760000000  0.6998990000000 1.0
C      1  0.6542720000000  0.3767740000000  0.4040610000000 1.0
C      1  0.5209080000000  0.3766490000000  0.3226260000000 1.0
C      1  0.3754380000000  0.3730240000000  0.3803180000000 1.0
C      1  0.3216830000000  0.3765950000000  0.5274100000000 1.0
C      1  0.4059040000000  0.3759090000000  0.6590200000000 1.0
C      1  0.5616420000000  0.3736960000000  0.6714330000000 1.0
C      1  0.6705550000000  0.3742540000000  0.5594840000000 1.0
C      1  0.5003680000000  0.4384990000000  0.5005690000000 1.0
C      1  0.5245950000000  0.1655050000000  0.5252860000000 1.0
C      1  0.4953500000000  0.3512910000000  0.4974450000000 1.0
C      1  0.4942990000000  0.2449440000000  0.4961940000000 1.0
END
