TITL C-3036485-3770-1065 -1.94762900731049e-05 3375 -340.921929142514 0 0 60 (C1) n - 1
REM
REM in /home/bkarasulu/work/CARBON/AIRSS/Generating-Clusters/REBO/Higher-Symm/Only-C60
REM
REM
REM
REM
REM
REM ./C.cell (a2850807a9bf4ad07a5b6933b78d9264)
REM AIRSS Version 0.9.1 bugfix July 2018 build 013d7b7c2542+ Fri, 06 Jul 2018 19:26:36 +0100
REM compiler GCC version 9.2.1 20190827 (Red Hat 9.2.1-1)
REM options -cpp -mtune=generic -march=x86-64 -g -O0 -fpre-include=/usr/include/finclude/math-vector-fortran.h
REM seed 934893640 188746545 1849570368 -502334139 -1909731235 122187938 1604863841 -158958845 -210485514 32982450 -1618252146 -1945240628 1576085056 1815308887 -1308331010 -272353290 325859473 -1279214001 -1222813478 -1188451214 949477381 952825249 1858159829 -48316798 -943951386 468176870 -1725939201 -940045461 -1626227830 216739511 -1327724417 969581427 1793233475
REM
CELL 1.54180   15.00000   15.00000   15.00000   90.00000   90.00000   90.00000
LATT -1
SFAC C  
C      1  0.6761700000000  0.3484040000000  0.4920480000000 1.0
C      1  0.7564440000000  0.5118010000000  0.4565790000000 1.0
C      1  0.6748270000000  0.6622380000000  0.5350480000000 1.0
C      1  0.7081600000000  0.5766650000000  0.6167350000000 1.0
C      1  0.3105170000000  0.3713220000000  0.5325640000000 1.0
C      1  0.5204670000000  0.3893020000000  0.5305290000000 1.0
C      1  0.3715760000000  0.5175010000000  0.3010410000000 1.0
C      1  0.5993530000000  0.5813900000000  0.6077630000000 1.0
C      1  0.4828970000000  0.7648640000000  0.5103160000000 1.0
C      1  0.4350870000000  0.4994970000000  0.7066040000000 1.0
C      1  0.2522890000000  0.5241200000000  0.5989590000000 1.0
C      1  0.6004100000000  0.4682520000000  0.5117810000000 1.0
C      1  0.3707740000000  0.2516100000000  0.3974950000000 1.0
C      1  0.4970230000000  0.5755760000000  0.6917630000000 1.0
C      1  0.4216870000000  0.3545350000000  0.5438180000000 1.0
C      1  0.5426670000000  0.3002570000000  0.3502080000000 1.0
C      1  0.3357410000000  0.2732070000000  0.4874080000000 1.0
C      1  0.5434320000000  0.7321830000000  0.6240260000000 1.0
C      1  0.5997350000000  0.4487380000000  0.6195940000000 1.0
C      1  0.5758190000000  0.4549000000000  0.2835940000000 1.0
C      1  0.2901830000000  0.4477720000000  0.4640530000000 1.0
C      1  0.3481790000000  0.5178460000000  0.6569240000000 1.0
C      1  0.2627970000000  0.5400620000000  0.4994270000000 1.0
C      1  0.4610220000000  0.6566770000000  0.4359530000000 1.0
C      1  0.6781520000000  0.4878340000000  0.6600340000000 1.0
C      1  0.4450080000000  0.5288600000000  0.5263110000000 1.0
C      1  0.6240260000000  0.5678730000000  0.4969620000000 1.0
C      1  0.5624600000000  0.4027700000000  0.4329560000000 1.0
C      1  0.3889680000000  0.7011050000000  0.5060300000000 1.0
C      1  0.4936330000000  0.6214930000000  0.3126940000000 1.0
C      1  0.3724330000000  0.6882610000000  0.6149700000000 1.0
C      1  0.7375000000000  0.4214110000000  0.4821980000000 1.0
C      1  0.7541210000000  0.5812960000000  0.5224400000000 1.0
C      1  0.2917270000000  0.4225310000000  0.6301330000000 1.0
C      1  0.5733410000000  0.6561030000000  0.3644640000000 1.0
C      1  0.4795910000000  0.4394830000000  0.3903130000000 1.0
C      1  0.3391080000000  0.6103150000000  0.4597120000000 1.0
C      1  0.4911320000000  0.5480720000000  0.4237280000000 1.0
C      1  0.4434550000000  0.4447260000000  0.2916890000000 1.0
C      1  0.5486100000000  0.7263850000000  0.4350160000000 1.0
C      1  0.6308640000000  0.3285460000000  0.5733430000000 1.0
C      1  0.5579790000000  0.6536730000000  0.6739420000000 1.0
C      1  0.5212150000000  0.3694400000000  0.2848910000000 1.0
C      1  0.5982780000000  0.7308780000000  0.5338420000000 1.0
C      1  0.5116960000000  0.5145730000000  0.5988980000000 1.0
C      1  0.5552840000000  0.3601500000000  0.6550660000000 1.0
C      1  0.4619120000000  0.4073350000000  0.6915960000000 1.0
C      1  0.3353970000000  0.4525020000000  0.3676730000000 1.0
C      1  0.5290140000000  0.2833230000000  0.5749590000000 1.0
C      1  0.3917750000000  0.6073380000000  0.3587240000000 1.0
C      1  0.4481970000000  0.2547650000000  0.5051200000000 1.0
C      1  0.3655070000000  0.5872720000000  0.5697460000000 1.0
C      1  0.7155960000000  0.5434640000000  0.3749700000000 1.0
C      1  0.3879250000000  0.3711690000000  0.6403710000000 1.0
C      1  0.6256670000000  0.3228910000000  0.4063360000000 1.0
C      1  0.4466770000000  0.7559640000000  0.6124370000000 1.0
C      1  0.6369550000000  0.5942070000000  0.3962540000000 1.0
C      1  0.4725220000000  0.2560160000000  0.3943300000000 1.0
C      1  0.4019820000000  0.4564310000000  0.4605250000000 1.0
C      1  0.5450390000000  0.5328270000000  0.3230980000000 1.0
END
