TITL C-3036486-2224-292 -4.42487598927043e-06 3375 -351.536521341511 0 0 60 (C1) n - 1
REM
REM in /home/bkarasulu/work/CARBON/AIRSS/Generating-Clusters/REBO/Higher-Symm/Only-C60
REM
REM
REM
REM
REM
REM ./C.cell (a2850807a9bf4ad07a5b6933b78d9264)
REM AIRSS Version 0.9.1 bugfix July 2018 build 013d7b7c2542+ Fri, 06 Jul 2018 19:26:36 +0100
REM compiler GCC version 9.2.1 20190827 (Red Hat 9.2.1-1)
REM options -cpp -mtune=generic -march=x86-64 -g -O0 -fpre-include=/usr/include/finclude/math-vector-fortran.h
REM seed -1277637938 1913578907 2013917721 -65593650 248500113 582153293 1131334742 1075783053 2023904035 -1256113043 -1855525009 313161338 962610737 -1376639100 -1494421868 1936084110 -738484810 1670933918 -362953513 -1862103796 1438081227 1751082828 1036122087 -1700222860 1793262171 1632505462 678446122 -10292802 1442562270 894635008 1194542346 -1278206308 -1664890830
REM
CELL 1.54180   15.00000   15.00000   15.00000   90.00000   90.00000   90.00000
LATT -1
SFAC C  
C      1  0.4774460000000  0.3167640000000  0.3945310000000 1.0
C      1  0.4646620000000  0.6854340000000  0.6181490000000 1.0
C      1  0.4614840000000  0.3034570000000  0.6200650000000 1.0
C      1  0.4760970000000  0.6921200000000  0.3831610000000 1.0
C      1  0.6370810000000  0.5397320000000  0.6748300000000 1.0
C      1  0.6300230000000  0.4626060000000  0.3123400000000 1.0
C      1  0.6289070000000  0.5443160000000  0.3085480000000 1.0
C      1  0.6388860000000  0.4578410000000  0.6810910000000 1.0
C      1  0.5248870000000  0.7307220000000  0.4537970000000 1.0
C      1  0.5094190000000  0.2554310000000  0.5551010000000 1.0
C      1  0.5070190000000  0.7366170000000  0.5521940000000 1.0
C      1  0.5282440000000  0.2713370000000  0.4586020000000 1.0
C      1  0.6163410000000  0.2763760000000  0.5579470000000 1.0
C      1  0.6296460000000  0.7169740000000  0.4396270000000 1.0
C      1  0.6324080000000  0.2889920000000  0.4448060000000 1.0
C      1  0.6133620000000  0.7229880000000  0.5526840000000 1.0
C      1  0.4740770000000  0.5517930000000  0.2996210000000 1.0
C      1  0.4635220000000  0.4441350000000  0.6979150000000 1.0
C      1  0.4671090000000  0.5422750000000  0.6950130000000 1.0
C      1  0.4727620000000  0.4529960000000  0.3067360000000 1.0
C      1  0.2996990000000  0.3427670000000  0.5534400000000 1.0
C      1  0.3226820000000  0.6457180000000  0.4581920000000 1.0
C      1  0.3132400000000  0.3511990000000  0.4627100000000 1.0
C      1  0.3121370000000  0.6423530000000  0.5484000000000 1.0
C      1  0.4044900000000  0.4540060000000  0.4593870000000 1.0
C      1  0.4098060000000  0.5518050000000  0.5495530000000 1.0
C      1  0.3862280000000  0.4425950000000  0.5666270000000 1.0
C      1  0.4391030000000  0.5608930000000  0.4402000000000 1.0
C      1  0.5173400000000  0.4538560000000  0.4495010000000 1.0
C      1  0.5203630000000  0.5555300000000  0.5448140000000 1.0
C      1  0.4904880000000  0.4464720000000  0.5604930000000 1.0
C      1  0.5528170000000  0.5607910000000  0.4360020000000 1.0
C      1  0.3101550000000  0.5438360000000  0.6051970000000 1.0
C      1  0.3085740000000  0.4467140000000  0.4010310000000 1.0
C      1  0.3311430000000  0.5487500000000  0.4020630000000 1.0
C      1  0.2914070000000  0.4360750000000  0.6185270000000 1.0
C      1  0.5294810000000  0.3795280000000  0.3395280000000 1.0
C      1  0.5235120000000  0.6182840000000  0.6621110000000 1.0
C      1  0.5181580000000  0.3697520000000  0.6659540000000 1.0
C      1  0.5293070000000  0.6310340000000  0.3260680000000 1.0
C      1  0.6720100000000  0.3699920000000  0.5424400000000 1.0
C      1  0.7161880000000  0.6486120000000  0.4255070000000 1.0
C      1  0.7062620000000  0.3735060000000  0.4388630000000 1.0
C      1  0.6851600000000  0.6418260000000  0.5343740000000 1.0
C      1  0.6327190000000  0.3599350000000  0.3543990000000 1.0
C      1  0.6262490000000  0.6424730000000  0.6329080000000 1.0
C      1  0.6215020000000  0.3530550000000  0.6433220000000 1.0
C      1  0.6324660000000  0.6478430000000  0.3482360000000 1.0
C      1  0.6309750000000  0.4539180000000  0.4477120000000 1.0
C      1  0.6320680000000  0.5473080000000  0.5418540000000 1.0
C      1  0.5975860000000  0.4482240000000  0.5549170000000 1.0
C      1  0.6662950000000  0.5545760000000  0.4359260000000 1.0
C      1  0.3672410000000  0.3272970000000  0.6301650000000 1.0
C      1  0.3828310000000  0.6683770000000  0.3780050000000 1.0
C      1  0.3841920000000  0.3384940000000  0.3895220000000 1.0
C      1  0.3729330000000  0.6589220000000  0.6274750000000 1.0
C      1  0.3706240000000  0.4087720000000  0.6945020000000 1.0
C      1  0.3827560000000  0.5873660000000  0.3128120000000 1.0
C      1  0.3813920000000  0.4165460000000  0.3212830000000 1.0
C      1  0.3750410000000  0.5780900000000  0.6892220000000 1.0
END
