TITL C-3036481-494-490 -5.43045485548925e-06 3375 -333.352393910969 0 0 60 (C3i) n - 1
REM
REM in /home/bkarasulu/work/CARBON/AIRSS/Generating-Clusters/REBO/Higher-Symm/Only-C60
REM
REM
REM
REM
REM
REM ./C.cell (a2850807a9bf4ad07a5b6933b78d9264)
REM AIRSS Version 0.9.1 bugfix July 2018 build 013d7b7c2542+ Fri, 06 Jul 2018 19:26:36 +0100
REM compiler GCC version 9.2.1 20190827 (Red Hat 9.2.1-1)
REM options -cpp -mtune=generic -march=x86-64 -g -O0 -fpre-include=/usr/include/finclude/math-vector-fortran.h
REM seed -566136245 -806678521 -1327213937 -1859897851 -470260426 -1242385715 -1227258470 -1345984441 2003348253 -1110570605 -1343089625 2108397102 1633948215 -482365850 1112362694 1318492932 57280750 1410458479 193926483 2033056527 1179562808 -650984164 222510571 1582520201 -915852761 -1496937394 -1378415403 531965517 1514319284 513168521 -931090146 -1174070558 -94368756
REM
CELL 1.54180   15.00000   15.00000   15.00000   90.00000   90.00000   90.00000
LATT -1
SFAC C  
C      1  0.5884500000000  0.6628800000000  0.6073500000000 1.0
C      1  0.6371930000000  0.3371200000000  0.4770750000000 1.0
C      1  0.5487430000000  0.6628800000000  0.3697250000000 1.0
C      1  0.4115500000000  0.3371200000000  0.3926500000000 1.0
C      1  0.3628070000000  0.6628800000000  0.5229250000000 1.0
C      1  0.4512570000000  0.3371200000000  0.6302750000000 1.0
C      1  0.3351100000000  0.3495650000000  0.5661210000000 1.0
C      1  0.4748180000000  0.6504350000000  0.6758590000000 1.0
C      1  0.6397070000000  0.3495650000000  0.6097380000000 1.0
C      1  0.6648900000000  0.6504350000000  0.4338790000000 1.0
C      1  0.5251820000000  0.3495650000000  0.3241410000000 1.0
C      1  0.3602930000000  0.6504350000000  0.3902620000000 1.0
C      1  0.3621700000000  0.3982750000000  0.6653690000000 1.0
C      1  0.5742990000000  0.6017250000000  0.7020490000000 1.0
C      1  0.7121290000000  0.3982750000000  0.5366800000000 1.0
C      1  0.6378300000000  0.6017250000000  0.3346310000000 1.0
C      1  0.4257010000000  0.3982750000000  0.2979510000000 1.0
C      1  0.2878710000000  0.6017250000000  0.4633200000000 1.0
C      1  0.3007550000000  0.5629540000000  0.3572900000000 1.0
C      1  0.2767870000000  0.4370460000000  0.6011960000000 1.0
C      1  0.4760320000000  0.5629540000000  0.7439060000000 1.0
C      1  0.6992450000000  0.4370460000000  0.6427100000000 1.0
C      1  0.7232130000000  0.5629540000000  0.3988040000000 1.0
C      1  0.5239680000000  0.4370460000000  0.2560940000000 1.0
C      1  0.3925400000000  0.5725700000000  0.6639410000000 1.0
C      1  0.5882470000000  0.4274300000000  0.6750340000000 1.0
C      1  0.6957070000000  0.5725700000000  0.5110930000000 1.0
C      1  0.6074600000000  0.4274300000000  0.3360590000000 1.0
C      1  0.4117530000000  0.5725700000000  0.3249660000000 1.0
C      1  0.3042930000000  0.4274300000000  0.4889070000000 1.0
C      1  0.5424050000000  0.3615520000000  0.5658710000000 1.0
C      1  0.5782480000000  0.6384480000000  0.4962110000000 1.0
C      1  0.5358430000000  0.3615520000000  0.4303410000000 1.0
C      1  0.4575950000000  0.6384480000000  0.4341290000000 1.0
C      1  0.4217520000000  0.3615520000000  0.5037890000000 1.0
C      1  0.4641570000000  0.6384480000000  0.5696590000000 1.0
C      1  0.4085990000000  0.4785480000000  0.7184690000000 1.0
C      1  0.6434990000000  0.5214530000000  0.6883900000000 1.0
C      1  0.7349000000000  0.4785480000000  0.4699210000000 1.0
C      1  0.5914010000000  0.5214520000000  0.2815310000000 1.0
C      1  0.3565010000000  0.4785470000000  0.3116100000000 1.0
C      1  0.2651000000000  0.5214520000000  0.5300790000000 1.0
C      1  0.4900350000000  0.4348420000000  0.6628200000000 1.0
C      1  0.6360230000000  0.5651590000000  0.5900400000000 1.0
C      1  0.6459890000000  0.4348420000000  0.4272200000000 1.0
C      1  0.5099650000000  0.5651580000000  0.3371800000000 1.0
C      1  0.3639770000000  0.4348410000000  0.4099600000000 1.0
C      1  0.3540110000000  0.5651580000000  0.5727800000000 1.0
C      1  0.5207960000000  0.7375410000000  0.5623270000000 1.0
C      1  0.5643750000000  0.2624590000000  0.5131540000000 1.0
C      1  0.5435790000000  0.7375410000000  0.4508260000000 1.0
C      1  0.4792040000000  0.2624590000000  0.4376730000000 1.0
C      1  0.4356250000000  0.7375410000000  0.4868460000000 1.0
C      1  0.4564210000000  0.2624590000000  0.5491740000000 1.0
C      1  0.4249130000000  0.5429060000000  0.4861720000000 1.0
C      1  0.4504810000000  0.4570940000000  0.5581130000000 1.0
C      1  0.5255680000000  0.5429060000000  0.5719420000000 1.0
C      1  0.5750870000000  0.4570940000000  0.5138280000000 1.0
C      1  0.5495190000000  0.5429060000000  0.4418870000000 1.0
C      1  0.4744320000000  0.4570940000000  0.4280580000000 1.0
END
