TITL C-3036485-3770-224 9.86736027697611e-06 3375 -354.090382249178 0 0 60 (C5) n - 1
REM
REM in /home/bkarasulu/work/CARBON/AIRSS/Generating-Clusters/REBO/Higher-Symm/Only-C60
REM
REM
REM
REM
REM
REM ./C.cell (a2850807a9bf4ad07a5b6933b78d9264)
REM AIRSS Version 0.9.1 bugfix July 2018 build 013d7b7c2542+ Fri, 06 Jul 2018 19:26:36 +0100
REM compiler GCC version 9.2.1 20190827 (Red Hat 9.2.1-1)
REM options -cpp -mtune=generic -march=x86-64 -g -O0 -fpre-include=/usr/include/finclude/math-vector-fortran.h
REM seed -2116304259 1793424345 -1093819204 -1062411386 -1463685263 -143602108 -600219512 1209152805 717664848 111509772 -1053274980 -546116273 -69125142 223794764 998558403 -1806976250 -1804513578 -429701024 773308644 -658631459 233370929 1668944781 -368919213 864744275 -1375736130 112828149 2029101485 -772921635 -2083617281 660630457 875538994 -1984904701 -410097679
REM
CELL 1.54180   15.00000   15.00000   15.00000   90.00000   90.00000   90.00000
LATT -1
SFAC C  
C      1  0.3611860000000  0.4108070000000  0.3492410000000 1.0
C      1  0.5419310000000  0.3404190000000  0.3492410000000 1.0
C      1  0.6647270000000  0.4905650000000  0.3492400000000 1.0
C      1  0.5598750000000  0.6537500000000  0.3492400000000 1.0
C      1  0.3722770000000  0.6044570000000  0.3492410000000 1.0
C      1  0.7374330000000  0.5501980000000  0.4483580000000 1.0
C      1  0.5256290000000  0.7413240000000  0.4483590000000 1.0
C      1  0.2784060000000  0.5989480000000  0.4483610000000 1.0
C      1  0.3374180000000  0.3198280000000  0.4483610000000 1.0
C      1  0.6211120000000  0.2896990000000  0.4483600000000 1.0
C      1  0.5840490000000  0.4582990000000  0.7179450000000 1.0
C      1  0.5656340000000  0.5670490000000  0.7179450000000 1.0
C      1  0.4565160000000  0.5831400000000  0.7179460000000 1.0
C      1  0.4074930000000  0.4843350000000  0.7179460000000 1.0
C      1  0.4863130000000  0.4071800000000  0.7179460000000 1.0
C      1  0.4350790000000  0.5548670000000  0.2842720000000 1.0
C      1  0.4277560000000  0.4552110000000  0.2842720000000 1.0
C      1  0.5202710000000  0.4174520000000  0.2842720000000 1.0
C      1  0.5847710000000  0.4937700000000  0.2842710000000 1.0
C      1  0.5321190000000  0.5786970000000  0.2842710000000 1.0
C      1  0.4135870000000  0.5165510000000  0.4098130000000 1.0
C      1  0.4575560000000  0.4229310000000  0.4098130000000 1.0
C      1  0.5601800000000  0.4358180000000  0.4098130000000 1.0
C      1  0.5796370000000  0.5374010000000  0.4098120000000 1.0
C      1  0.4890380000000  0.5872970000000  0.4098130000000 1.0
C      1  0.6215350000000  0.5978830000000  0.6011000000000 1.0
C      1  0.4444650000000  0.6458340000000  0.6011010000000 1.0
C      1  0.3441420000000  0.4922480000000  0.6011020000000 1.0
C      1  0.4592110000000  0.3493750000000  0.6011010000000 1.0
C      1  0.6306490000000  0.4146610000000  0.6011000000000 1.0
C      1  0.5309220000000  0.2800740000000  0.6056480000000 1.0
C      1  0.7187180000000  0.4614470000000  0.6056470000000 1.0
C      1  0.6042540000000  0.6961000000000  0.6056470000000 1.0
C      1  0.3457150000000  0.6597500000000  0.6056480000000 1.0
C      1  0.3003930000000  0.4026310000000  0.6056490000000 1.0
C      1  0.7595980000000  0.4785730000000  0.5245970000000 1.0
C      1  0.6005990000000  0.7402720000000  0.5245980000000 1.0
C      1  0.3025750000000  0.6699230000000  0.5245990000000 1.0
C      1  0.2773860000000  0.3647470000000  0.5246000000000 1.0
C      1  0.5598420000000  0.2464860000000  0.5245990000000 1.0
C      1  0.4702020000000  0.5768590000000  0.5411290000000 1.0
C      1  0.4176950000000  0.4954120000000  0.5411290000000 1.0
C      1  0.4789300000000  0.4203060000000  0.5411290000000 1.0
C      1  0.5692830000000  0.4553350000000  0.5411280000000 1.0
C      1  0.5638890000000  0.5520900000000  0.5411280000000 1.0
C      1  0.3856850000000  0.3854870000000  0.6691200000000 1.0
C      1  0.5735850000000  0.3558930000000  0.6691190000000 1.0
C      1  0.6597940000000  0.5254510000000  0.6691190000000 1.0
C      1  0.5251740000000  0.6598370000000  0.6691190000000 1.0
C      1  0.3557660000000  0.5733340000000  0.6691200000000 1.0
C      1  0.4282250000000  0.3236940000000  0.4263950000000 1.0
C      1  0.6454970000000  0.3772560000000  0.4263940000000 1.0
C      1  0.6616960000000  0.6004460000000  0.4263930000000 1.0
C      1  0.4544370000000  0.6848220000000  0.4263940000000 1.0
C      1  0.3101440000000  0.5137800000000  0.4263950000000 1.0
C      1  0.6291670000000  0.7010710000000  0.4223790000000 1.0
C      1  0.3486840000000  0.6849790000000  0.4223800000000 1.0
C      1  0.2773150000000  0.4132520000000  0.4223810000000 1.0
C      1  0.5136880000000  0.2614070000000  0.4223800000000 1.0
C      1  0.7311450000000  0.4392890000000  0.4223790000000 1.0
END
