TITL C-3036486-2224-470 0.0269034348065334 3375 -331.382213687222 0 0 60 (D2h) n - 1
REM
REM in /home/bkarasulu/work/CARBON/AIRSS/Generating-Clusters/REBO/Higher-Symm/Only-C60
REM
REM
REM
REM
REM
REM ./C.cell (a2850807a9bf4ad07a5b6933b78d9264)
REM AIRSS Version 0.9.1 bugfix July 2018 build 013d7b7c2542+ Fri, 06 Jul 2018 19:26:36 +0100
REM compiler GCC version 9.2.1 20190827 (Red Hat 9.2.1-1)
REM options -cpp -mtune=generic -march=x86-64 -g -O0 -fpre-include=/usr/include/finclude/math-vector-fortran.h
REM seed 248730483 1343407044 -934624787 1552260769 1978259376 -574137414 989341980 -1425808029 1286858803 -2112953475 -2091974330 -1566652829 715499638 -1327114237 -1616990777 -1149938322 978604719 275085416 788818598 -52840546 -203841500 2087489855 1570242848 1598780449 -652230665 -1390944656 -189600071 -1581674900 1348717646 -1392560748 -1849590251 -1998668125 -444119949
REM
CELL 1.54180   15.00000   15.00000   15.00000   90.00000   90.00000   90.00000
LATT -1
SFAC C  
C      1  0.5516300000000  0.6358340000000  0.3057510000000 1.0
C      1  0.4483700000000  0.3641650000000  0.3057500000000 1.0
C      1  0.5516300000000  0.6358350000000  0.6942500000000 1.0
C      1  0.4483700000000  0.3641660000000  0.6942490000000 1.0
C      1  0.5516300000000  0.3641650000000  0.3057500000000 1.0
C      1  0.4483700000000  0.6358340000000  0.3057510000000 1.0
C      1  0.5516300000000  0.3641660000000  0.6942490000000 1.0
C      1  0.4483700000000  0.6358350000000  0.6942500000000 1.0
C      1  0.4101010000000  0.3262280000000  0.3967930000000 1.0
C      1  0.5898990000000  0.6737720000000  0.3967930000000 1.0
C      1  0.4101010000000  0.3262280000000  0.6032070000000 1.0
C      1  0.5898990000000  0.6737720000000  0.6032070000000 1.0
C      1  0.4101010000000  0.6737720000000  0.3967930000000 1.0
C      1  0.5898990000000  0.3262280000000  0.3967930000000 1.0
C      1  0.4101010000000  0.6737720000000  0.6032070000000 1.0
C      1  0.5898990000000  0.3262280000000  0.6032070000000 1.0
C      1  0.5856820000000  0.4535540000000  0.2784280000000 1.0
C      1  0.4143180000000  0.5464450000000  0.2784280000000 1.0
C      1  0.5856820000000  0.4535550000000  0.7215720000000 1.0
C      1  0.4143180000000  0.5464460000000  0.7215720000000 1.0
C      1  0.5856820000000  0.5464450000000  0.2784280000000 1.0
C      1  0.4143180000000  0.4535540000000  0.2784280000000 1.0
C      1  0.5856820000000  0.5464460000000  0.7215720000000 1.0
C      1  0.4143180000000  0.4535550000000  0.7215720000000 1.0
C      1  0.2336350000000  0.5567740000000  0.4459910000000 1.0
C      1  0.7663650000000  0.4432260000000  0.4459910000000 1.0
C      1  0.2336350000000  0.5567740000000  0.5540090000000 1.0
C      1  0.7663650000000  0.4432260000000  0.5540090000000 1.0
C      1  0.2336350000000  0.4432260000000  0.4459910000000 1.0
C      1  0.7663650000000  0.5567740000000  0.4459910000000 1.0
C      1  0.2336350000000  0.4432260000000  0.5540090000000 1.0
C      1  0.7663650000000  0.5567740000000  0.5540090000000 1.0
C      1  0.3645360000000  0.5543680000000  0.5522720000000 1.0
C      1  0.6354640000000  0.4456300000000  0.5522710000000 1.0
C      1  0.3645360000000  0.5543700000000  0.4477290000000 1.0
C      1  0.6354640000000  0.4456330000000  0.4477280000000 1.0
C      1  0.3645360000000  0.4456300000000  0.5522710000000 1.0
C      1  0.6354640000000  0.5543670000000  0.5522720000000 1.0
C      1  0.3645360000000  0.4456320000000  0.4477280000000 1.0
C      1  0.6354640000000  0.5543700000000  0.4477290000000 1.0
C      1  0.5469310000000  0.5496800000000  0.4058590000000 1.0
C      1  0.4530700000000  0.4503190000000  0.4058580000000 1.0
C      1  0.5469300000000  0.5496810000000  0.5941420000000 1.0
C      1  0.4530690000000  0.4503200000000  0.5941410000000 1.0
C      1  0.5469300000000  0.4503190000000  0.4058580000000 1.0
C      1  0.4530690000000  0.5496800000000  0.4058590000000 1.0
C      1  0.5469310000000  0.4503200000000  0.5941410000000 1.0
C      1  0.4530700000000  0.5496810000000  0.5941420000000 1.0
C      1  0.6904530000000  0.6440220000000  0.5576300000000 1.0
C      1  0.3095460000000  0.3559770000000  0.5576310000000 1.0
C      1  0.6904540000000  0.6440230000000  0.4423690000000 1.0
C      1  0.3095470000000  0.3559780000000  0.4423700000000 1.0
C      1  0.6904540000000  0.3559770000000  0.5576310000000 1.0
C      1  0.3095470000000  0.6440220000000  0.5576300000000 1.0
C      1  0.6904530000000  0.3559780000000  0.4423700000000 1.0
C      1  0.3095460000000  0.6440230000000  0.4423690000000 1.0
C      1  0.5000000000000  0.3128150000000  0.4513290000000 1.0
C      1  0.5000000000000  0.6871850000000  0.4513290000000 1.0
C      1  0.5000000000000  0.3128150000000  0.5486710000000 1.0
C      1  0.5000000000000  0.6871850000000  0.5486710000000 1.0
END
