TITL C-3036479-9801-1087 -9.64990466436096e-06 3375 -344.786704886945 0 0 60 (C1) n - 1
REM
REM in /home/bkarasulu/work/CARBON/AIRSS/Generating-Clusters/REBO/Higher-Symm/Only-C60
REM
REM
REM
REM
REM
REM ./C.cell (a2850807a9bf4ad07a5b6933b78d9264)
REM AIRSS Version 0.9.1 bugfix July 2018 build 013d7b7c2542+ Fri, 06 Jul 2018 19:26:36 +0100
REM compiler GCC version 9.2.1 20190827 (Red Hat 9.2.1-1)
REM options -cpp -mtune=generic -march=x86-64 -g -O0 -fpre-include=/usr/include/finclude/math-vector-fortran.h
REM seed 111040429 -1514512512 -1551179349 -743254233 -1813433271 1199234795 173047129 1479103259 -290362117 1731555523 -1001272978 619064792 1309775936 1820676055 -911681239 765427482 -1105955202 -159925485 -1645911371 1699785406 -1415021150 -1639707717 -656639749 -1830697416 -674582671 -1397040990 -116987078 1922992247 1843398984 -1355950071 1760381968 1236393093 246923145
REM
CELL 1.54180   15.00000   15.00000   15.00000   90.00000   90.00000   90.00000
LATT -1
SFAC C  
C      1  0.3158720000000  0.5396690000000  0.6781470000000 1.0
C      1  0.6839750000000  0.6742390000000  0.4599320000000 1.0
C      1  0.3174410000000  0.4596500000000  0.3264130000000 1.0
C      1  0.6828270000000  0.3220290000000  0.5394930000000 1.0
C      1  0.3109480000000  0.4521920000000  0.4586230000000 1.0
C      1  0.6972050000000  0.4533350000000  0.5500620000000 1.0
C      1  0.3024580000000  0.5504160000000  0.5466910000000 1.0
C      1  0.6896340000000  0.5419800000000  0.4522550000000 1.0
C      1  0.5987130000000  0.3138000000000  0.4878660000000 1.0
C      1  0.4001750000000  0.4880880000000  0.6872220000000 1.0
C      1  0.6000870000000  0.6869550000000  0.5106510000000 1.0
C      1  0.4006760000000  0.5110350000000  0.3135200000000 1.0
C      1  0.4695090000000  0.3351380000000  0.5991300000000 1.0
C      1  0.5285600000000  0.5999820000000  0.6666160000000 1.0
C      1  0.4702710000000  0.6697000000000  0.3998150000000 1.0
C      1  0.5313950000000  0.4011990000000  0.3324310000000 1.0
C      1  0.3024670000000  0.3535650000000  0.4691390000000 1.0
C      1  0.7022300000000  0.4633880000000  0.6489290000000 1.0
C      1  0.2962220000000  0.6493480000000  0.5371860000000 1.0
C      1  0.6995580000000  0.5316380000000  0.3537290000000 1.0
C      1  0.6652750000000  0.6397600000000  0.3666590000000 1.0
C      1  0.3367180000000  0.3666930000000  0.3611070000000 1.0
C      1  0.6642000000000  0.3564820000000  0.6334770000000 1.0
C      1  0.3343440000000  0.6337140000000  0.6440120000000 1.0
C      1  0.5916310000000  0.6083040000000  0.5834720000000 1.0
C      1  0.4082220000000  0.5850760000000  0.3911500000000 1.0
C      1  0.5941100000000  0.3953880000000  0.4181040000000 1.0
C      1  0.4060380000000  0.4198100000000  0.6042150000000 1.0
C      1  0.2944250000000  0.4413150000000  0.6213850000000 1.0
C      1  0.7032230000000  0.6185040000000  0.5596460000000 1.0
C      1  0.2970340000000  0.5593210000000  0.3817900000000 1.0
C      1  0.7053350000000  0.3784160000000  0.4411610000000 1.0
C      1  0.5062060000000  0.6605300000000  0.4954930000000 1.0
C      1  0.4950650000000  0.4965260000000  0.3365320000000 1.0
C      1  0.5047910000000  0.3374420000000  0.5035200000000 1.0
C      1  0.4933500000000  0.5043030000000  0.6589820000000 1.0
C      1  0.4587270000000  0.3922490000000  0.4426690000000 1.0
C      1  0.5425280000000  0.4456240000000  0.6042320000000 1.0
C      1  0.4576040000000  0.6052990000000  0.5546850000000 1.0
C      1  0.5402410000000  0.5576120000000  0.3920440000000 1.0
C      1  0.3048790000000  0.3418210000000  0.5672600000000 1.0
C      1  0.6921190000000  0.5626940000000  0.6580740000000 1.0
C      1  0.3068280000000  0.6578960000000  0.4376260000000 1.0
C      1  0.6962430000000  0.4334600000000  0.3419540000000 1.0
C      1  0.4359340000000  0.3475440000000  0.3524960000000 1.0
C      1  0.5658390000000  0.3561940000000  0.6481490000000 1.0
C      1  0.4323600000000  0.6485000000000  0.6440480000000 1.0
C      1  0.5665760000000  0.6470260000000  0.3479900000000 1.0
C      1  0.7784150000000  0.4492230000000  0.4875650000000 1.0
C      1  0.2215160000000  0.4875660000000  0.5507520000000 1.0
C      1  0.7753510000000  0.5523140000000  0.5076870000000 1.0
C      1  0.2249200000000  0.5069510000000  0.4476760000000 1.0
C      1  0.4000240000000  0.5162820000000  0.5445210000000 1.0
C      1  0.5896960000000  0.5532940000000  0.4841010000000 1.0
C      1  0.4104640000000  0.4854150000000  0.4457780000000 1.0
C      1  0.5998280000000  0.4545920000000  0.5149710000000 1.0
C      1  0.6257630000000  0.5974510000000  0.7116700000000 1.0
C      1  0.3722150000000  0.7126790000000  0.4030010000000 1.0
C      1  0.6290610000000  0.3985780000000  0.2895640000000 1.0
C      1  0.3726800000000  0.2908020000000  0.6029350000000 1.0
END
