TITL C-3036483-1610-154 2.93810532728748e-06 3375 -333.850161544868 0 0 60 (C1) n - 1
REM
REM in /home/bkarasulu/work/CARBON/AIRSS/Generating-Clusters/REBO/Higher-Symm/Only-C60
REM
REM
REM
REM
REM
REM ./C.cell (a2850807a9bf4ad07a5b6933b78d9264)
REM AIRSS Version 0.9.1 bugfix July 2018 build 013d7b7c2542+ Fri, 06 Jul 2018 19:26:36 +0100
REM compiler GCC version 9.2.1 20190827 (Red Hat 9.2.1-1)
REM options -cpp -mtune=generic -march=x86-64 -g -O0 -fpre-include=/usr/include/finclude/math-vector-fortran.h
REM seed 313410988 -179724883 331952410 1081877242 1544834290 1745598607 981595667 758444676 -558240824 -1018105421 1900461919 931948000 -609108075 1512548413 1481312454 -257776021 322744362 1964039733 1066140657 1096038837 -1402692427 -436020433 -286855199 2083500128 -268763677 -2019966542 -1468652055 -1470776450 -1486988033 1685308351 -610825357 1363727887 770898177
REM
CELL 1.54180   15.00000   15.00000   15.00000   90.00000   90.00000   90.00000
LATT -1
SFAC C  
C      1  0.4924860000000  0.3407200000000  0.3963360000000 1.0
C      1  0.4128700000000  0.5323770000000  0.6734640000000 1.0
C      1  0.4186350000000  0.7076090000000  0.4354590000000 1.0
C      1  0.7470420000000  0.4916950000000  0.4393980000000 1.0
C      1  0.6042510000000  0.5862840000000  0.4953620000000 1.0
C      1  0.3532460000000  0.3913040000000  0.6263610000000 1.0
C      1  0.4331730000000  0.4503300000000  0.2708930000000 1.0
C      1  0.5685380000000  0.4994860000000  0.5534450000000 1.0
C      1  0.5541470000000  0.3227520000000  0.4867990000000 1.0
C      1  0.5418990000000  0.3661560000000  0.5893700000000 1.0
C      1  0.6524150000000  0.5434820000000  0.4160870000000 1.0
C      1  0.3600180000000  0.5576440000000  0.3983640000000 1.0
C      1  0.4907210000000  0.6791760000000  0.3783120000000 1.0
C      1  0.4453460000000  0.3916940000000  0.5998030000000 1.0
C      1  0.6470590000000  0.6169970000000  0.6168450000000 1.0
C      1  0.4427080000000  0.7187130000000  0.5305630000000 1.0
C      1  0.6788610000000  0.5156190000000  0.5793290000000 1.0
C      1  0.4991690000000  0.5061910000000  0.6349830000000 1.0
C      1  0.6441810000000  0.3082840000000  0.4627850000000 1.0
C      1  0.4162320000000  0.4605370000000  0.5284740000000 1.0
C      1  0.5325840000000  0.4856390000000  0.4464060000000 1.0
C      1  0.4602670000000  0.2611650000000  0.5801450000000 1.0
C      1  0.5667790000000  0.2538590000000  0.5998520000000 1.0
C      1  0.3973660000000  0.6970430000000  0.6862170000000 1.0
C      1  0.2796920000000  0.4759430000000  0.3343580000000 1.0
C      1  0.3398150000000  0.6534610000000  0.4208190000000 1.0
C      1  0.3648030000000  0.5361970000000  0.2896920000000 1.0
C      1  0.3265610000000  0.5248530000000  0.6287520000000 1.0
C      1  0.4099590000000  0.3748940000000  0.3434460000000 1.0
C      1  0.5656720000000  0.4022530000000  0.3480540000000 1.0
C      1  0.5323080000000  0.3638550000000  0.7221850000000 1.0
C      1  0.6991500000000  0.3961510000000  0.6410270000000 1.0
C      1  0.3196330000000  0.6142740000000  0.5688840000000 1.0
C      1  0.7182920000000  0.3864100000000  0.4706100000000 1.0
C      1  0.6613240000000  0.6765030000000  0.5209440000000 1.0
C      1  0.3522890000000  0.3751870000000  0.4942540000000 1.0
C      1  0.5348180000000  0.6566270000000  0.5541490000000 1.0
C      1  0.5701140000000  0.5653830000000  0.2754720000000 1.0
C      1  0.6025310000000  0.4266000000000  0.6622790000000 1.0
C      1  0.6303030000000  0.4341980000000  0.4218340000000 1.0
C      1  0.4515080000000  0.6215970000000  0.7023230000000 1.0
C      1  0.6607650000000  0.6762740000000  0.4157950000000 1.0
C      1  0.7410360000000  0.3774180000000  0.5722570000000 1.0
C      1  0.4388610000000  0.3133430000000  0.4924590000000 1.0
C      1  0.4031540000000  0.5511620000000  0.5240980000000 1.0
C      1  0.7562710000000  0.5043450000000  0.5347720000000 1.0
C      1  0.3178470000000  0.3865980000000  0.3924410000000 1.0
C      1  0.4403460000000  0.4788720000000  0.3831530000000 1.0
C      1  0.4999300000000  0.2822310000000  0.6833560000000 1.0
C      1  0.5163660000000  0.5857600000000  0.3956630000000 1.0
C      1  0.4727860000000  0.5973200000000  0.4871460000000 1.0
C      1  0.4718790000000  0.5546150000000  0.2557610000000 1.0
C      1  0.5653710000000  0.4625960000000  0.2792590000000 1.0
C      1  0.2741450000000  0.6572010000000  0.4860800000000 1.0
C      1  0.6326020000000  0.6070820000000  0.3357050000000 1.0
C      1  0.5425540000000  0.6297760000000  0.6595810000000 1.0
C      1  0.2871880000000  0.4479830000000  0.5559090000000 1.0
C      1  0.3725470000000  0.7014550000000  0.5952010000000 1.0
C      1  0.2902980000000  0.4828000000000  0.4480780000000 1.0
C      1  0.5972880000000  0.5340290000000  0.6791480000000 1.0
END
