TITL C-3036481-494-199 3.39995526657791e-06 3375 -334.781706877312 0 0 60 (C1) n - 1
REM
REM in /home/bkarasulu/work/CARBON/AIRSS/Generating-Clusters/REBO/Higher-Symm/Only-C60
REM
REM
REM
REM
REM
REM ./C.cell (a2850807a9bf4ad07a5b6933b78d9264)
REM AIRSS Version 0.9.1 bugfix July 2018 build 013d7b7c2542+ Fri, 06 Jul 2018 19:26:36 +0100
REM compiler GCC version 9.2.1 20190827 (Red Hat 9.2.1-1)
REM options -cpp -mtune=generic -march=x86-64 -g -O0 -fpre-include=/usr/include/finclude/math-vector-fortran.h
REM seed 1756075824 -1678361463 1348763566 1945156351 -2074575497 -1218906468 1857339641 1396087064 -103895822 1350769346 527191835 -2034266506 -1541880031 1423838359 -553346958 -134506890 -1055036816 -460976883 -1944739497 -357197664 1434179910 1379796086 -989030171 1422790480 -572917281 -1557146639 242338882 -213963605 1506325058 535900098 347542956 -632324158 1494181908
REM
CELL 1.54180   15.00000   15.00000   15.00000   90.00000   90.00000   90.00000
LATT -1
SFAC C  
C      1  0.5956440000000  0.3587080000000  0.3337530000000 1.0
C      1  0.5241310000000  0.4867400000000  0.6376220000000 1.0
C      1  0.6279120000000  0.2854030000000  0.5285680000000 1.0
C      1  0.3999860000000  0.7348380000000  0.4012850000000 1.0
C      1  0.3783870000000  0.3814570000000  0.3371450000000 1.0
C      1  0.4658930000000  0.4314660000000  0.4677580000000 1.0
C      1  0.5131500000000  0.4600790000000  0.2677280000000 1.0
C      1  0.6786580000000  0.4086400000000  0.3946790000000 1.0
C      1  0.5727830000000  0.5196080000000  0.3709960000000 1.0
C      1  0.3446040000000  0.6484500000000  0.3785010000000 1.0
C      1  0.4469380000000  0.2659900000000  0.6867000000000 1.0
C      1  0.6192640000000  0.6195100000000  0.2962760000000 1.0
C      1  0.4904390000000  0.3579810000000  0.3303780000000 1.0
C      1  0.6025430000000  0.6675960000000  0.4716140000000 1.0
C      1  0.7104320000000  0.4734080000000  0.4836990000000 1.0
C      1  0.4192430000000  0.6232810000000  0.7102600000000 1.0
C      1  0.4277380000000  0.4705060000000  0.7585380000000 1.0
C      1  0.5852300000000  0.5521160000000  0.6134830000000 1.0
C      1  0.4682370000000  0.6834040000000  0.3455400000000 1.0
C      1  0.3257730000000  0.5666800000000  0.5307130000000 1.0
C      1  0.7059240000000  0.3607790000000  0.4942210000000 1.0
C      1  0.3871760000000  0.3498010000000  0.4658570000000 1.0
C      1  0.4212800000000  0.4696270000000  0.2905020000000 1.0
C      1  0.4555900000000  0.2980530000000  0.4053610000000 1.0
C      1  0.4678540000000  0.2993280000000  0.6033250000000 1.0
C      1  0.5139550000000  0.4440610000000  0.7260890000000 1.0
C      1  0.6273190000000  0.6793310000000  0.5782830000000 1.0
C      1  0.6800150000000  0.4542410000000  0.6393810000000 1.0
C      1  0.6073130000000  0.5143820000000  0.2696130000000 1.0
C      1  0.5724840000000  0.5746000000000  0.5166660000000 1.0
C      1  0.3792090000000  0.5401420000000  0.7118890000000 1.0
C      1  0.7162790000000  0.5141730000000  0.5781460000000 1.0
C      1  0.2365420000000  0.4248580000000  0.4603180000000 1.0
C      1  0.3157740000000  0.4075260000000  0.6135690000000 1.0
C      1  0.4002650000000  0.3728810000000  0.5676060000000 1.0
C      1  0.4503850000000  0.4740550000000  0.5712770000000 1.0
C      1  0.5174940000000  0.6623880000000  0.7078130000000 1.0
C      1  0.5449010000000  0.2410570000000  0.5501400000000 1.0
C      1  0.3278750000000  0.5594180000000  0.4230260000000 1.0
C      1  0.3499980000000  0.4868640000000  0.3714810000000 1.0
C      1  0.5978290000000  0.6302690000000  0.6722630000000 1.0
C      1  0.4311780000000  0.7351180000000  0.5005960000000 1.0
C      1  0.4279880000000  0.5901130000000  0.3405010000000 1.0
C      1  0.6374160000000  0.4129430000000  0.2603210000000 1.0
C      1  0.3221220000000  0.5165110000000  0.6330640000000 1.0
C      1  0.2981700000000  0.3730050000000  0.4162890000000 1.0
C      1  0.2604130000000  0.4754370000000  0.5457190000000 1.0
C      1  0.5283430000000  0.7459360000000  0.4467920000000 1.0
C      1  0.5294650000000  0.3727700000000  0.5414470000000 1.0
C      1  0.4667800000000  0.5586080000000  0.5054410000000 1.0
C      1  0.4748580000000  0.5227740000000  0.4003800000000 1.0
C      1  0.5720560000000  0.6810640000000  0.3641230000000 1.0
C      1  0.4466590000000  0.6890450000000  0.6243070000000 1.0
C      1  0.5291250000000  0.7332900000000  0.5603170000000 1.0
C      1  0.6219350000000  0.5153970000000  0.4498910000000 1.0
C      1  0.6223390000000  0.3721730000000  0.5973150000000 1.0
C      1  0.4049890000000  0.6373110000000  0.5384810000000 1.0
C      1  0.6412990000000  0.3037260000000  0.4193140000000 1.0
C      1  0.6068360000000  0.4071650000000  0.7044420000000 1.0
C      1  0.7055820000000  0.6039200000000  0.5891960000000 1.0
END
