TITL C-3036484-3770-1190 -1.20079304928794e-06 3375 -349.861744150757 0 0 60 (Td) n - 1
REM
REM in /home/bkarasulu/work/CARBON/AIRSS/Generating-Clusters/REBO/Higher-Symm/Only-C60
REM
REM
REM
REM
REM
REM ./C.cell (a2850807a9bf4ad07a5b6933b78d9264)
REM AIRSS Version 0.9.1 bugfix July 2018 build 013d7b7c2542+ Fri, 06 Jul 2018 19:26:36 +0100
REM compiler GCC version 9.2.1 20190827 (Red Hat 9.2.1-1)
REM options -cpp -mtune=generic -march=x86-64 -g -O0 -fpre-include=/usr/include/finclude/math-vector-fortran.h
REM seed -2091863999 700352021 -891993675 1085555104 1325991760 -252400915 842202631 -57895486 982542734 1957730794 -1326175964 -1358473696 -304003614 2005406569 -1039009320 -1067515027 2053097023 130532982 1340635757 -993423238 -1024222320 762787093 1133969216 -1701577596 -1496453023 -221735121 -870564723 1216195743 1342651212 1462840638 -1119922612 128107964 1681101574
REM
CELL 1.54180   15.00000   15.00000   15.00000   90.00000   90.00000   90.00000
LATT -1
SFAC C  
C      1  0.5508610000000  0.7334960000000  0.6212630000000 1.0
C      1  0.6212630000000  0.5508610000000  0.7334960000000 1.0
C      1  0.7334960000000  0.6212630000000  0.5508610000000 1.0
C      1  0.4491390000000  0.7334960000000  0.3787370000000 1.0
C      1  0.5508610000000  0.2665040000000  0.3787370000000 1.0
C      1  0.4491390000000  0.2665040000000  0.6212630000000 1.0
C      1  0.3787370000000  0.5508610000000  0.2665040000000 1.0
C      1  0.6212630000000  0.4491390000000  0.2665040000000 1.0
C      1  0.3787370000000  0.4491390000000  0.7334960000000 1.0
C      1  0.2665040000000  0.6212630000000  0.4491390000000 1.0
C      1  0.7334960000000  0.3787370000000  0.4491390000000 1.0
C      1  0.2665040000000  0.3787370000000  0.5508610000000 1.0
C      1  0.6212630000000  0.7334960000000  0.5508610000000 1.0
C      1  0.7334960000000  0.5508610000000  0.6212630000000 1.0
C      1  0.5508610000000  0.6212630000000  0.7334960000000 1.0
C      1  0.3787370000000  0.7334960000000  0.4491390000000 1.0
C      1  0.3787370000000  0.2665040000000  0.5508610000000 1.0
C      1  0.6212630000000  0.2665040000000  0.4491390000000 1.0
C      1  0.2665040000000  0.5508610000000  0.3787370000000 1.0
C      1  0.2665040000000  0.4491390000000  0.6212630000000 1.0
C      1  0.7334960000000  0.4491390000000  0.3787370000000 1.0
C      1  0.4491390000000  0.6212630000000  0.2665040000000 1.0
C      1  0.4491390000000  0.3787370000000  0.7334960000000 1.0
C      1  0.5508610000000  0.3787370000000  0.2665040000000 1.0
C      1  0.4224870000000  0.6493870000000  0.5031470000000 1.0
C      1  0.5031470000000  0.4224870000000  0.6493870000000 1.0
C      1  0.6493870000000  0.5031470000000  0.4224870000000 1.0
C      1  0.5775130000000  0.6493870000000  0.4968530000000 1.0
C      1  0.4224870000000  0.3506130000000  0.4968530000000 1.0
C      1  0.5775130000000  0.3506130000000  0.5031470000000 1.0
C      1  0.4968530000000  0.4224870000000  0.3506130000000 1.0
C      1  0.5031470000000  0.5775130000000  0.3506130000000 1.0
C      1  0.4968530000000  0.5775130000000  0.6493870000000 1.0
C      1  0.3506130000000  0.5031470000000  0.5775130000000 1.0
C      1  0.6493870000000  0.4968530000000  0.5775130000000 1.0
C      1  0.3506130000000  0.4968530000000  0.4224870000000 1.0
C      1  0.5031470000000  0.6493870000000  0.4224870000000 1.0
C      1  0.6493870000000  0.4224870000000  0.5031470000000 1.0
C      1  0.4224870000000  0.5031470000000  0.6493870000000 1.0
C      1  0.4968530000000  0.6493870000000  0.5775130000000 1.0
C      1  0.4968530000000  0.3506130000000  0.4224870000000 1.0
C      1  0.5031470000000  0.3506130000000  0.5775130000000 1.0
C      1  0.3506130000000  0.4224870000000  0.4968530000000 1.0
C      1  0.3506130000000  0.5775130000000  0.5031470000000 1.0
C      1  0.6493870000000  0.5775130000000  0.4968530000000 1.0
C      1  0.5775130000000  0.5031470000000  0.3506130000000 1.0
C      1  0.5775130000000  0.4968530000000  0.6493870000000 1.0
C      1  0.4224870000000  0.4968530000000  0.3506130000000 1.0
C      1  0.7145320000000  0.2854680000000  0.4373160000000 1.0
C      1  0.7145320000000  0.4373160000000  0.2854680000000 1.0
C      1  0.2854680000000  0.4373160000000  0.7145320000000 1.0
C      1  0.4373160000000  0.7145320000000  0.2854680000000 1.0
C      1  0.5626840000000  0.2854680000000  0.2854680000000 1.0
C      1  0.4373160000000  0.2854680000000  0.7145320000000 1.0
C      1  0.2854680000000  0.5626840000000  0.2854680000000 1.0
C      1  0.7145320000000  0.7145320000000  0.5626840000000 1.0
C      1  0.5626840000000  0.7145320000000  0.7145320000000 1.0
C      1  0.2854680000000  0.7145320000000  0.4373160000000 1.0
C      1  0.2854680000000  0.2854680000000  0.5626840000000 1.0
C      1  0.7145320000000  0.5626840000000  0.7145320000000 1.0
END
