TITL C-3036481-494-1057 1.58828366378427e-05 3375 -353.840081181284 0 0 60 (D5d) n - 1
REM
REM in /home/bkarasulu/work/CARBON/AIRSS/Generating-Clusters/REBO/Higher-Symm/Only-C60
REM
REM
REM
REM
REM
REM ./C.cell (a2850807a9bf4ad07a5b6933b78d9264)
REM AIRSS Version 0.9.1 bugfix July 2018 build 013d7b7c2542+ Fri, 06 Jul 2018 19:26:36 +0100
REM compiler GCC version 9.2.1 20190827 (Red Hat 9.2.1-1)
REM options -cpp -mtune=generic -march=x86-64 -g -O0 -fpre-include=/usr/include/finclude/math-vector-fortran.h
REM seed 18676313 1291400731 523331115 403480900 557127442 1174848640 -1226050117 859904662 10905201 1708774158 512830482 -176377558 -292388057 1537310513 806389338 -92461836 1963664563 -260180818 523653297 -202397365 1340352804 -282357827 1904855362 -1810127675 681521087 82971361 290078707 -1037848642 1733265694 354783934 164294801 1487395203 -685844398
REM
CELL 1.54180   15.00000   15.00000   15.00000   90.00000   90.00000   90.00000
LATT -1
SFAC C  
C      1  0.4369420000000  0.5648790000000  0.7568620000000 1.0
C      1  0.5630580000000  0.4015090000000  0.7459410000000 1.0
C      1  0.4369420000000  0.2757590000000  0.6410780000000 1.0
C      1  0.5630580000000  0.2356610000000  0.4823290000000 1.0
C      1  0.4369420000000  0.2965320000000  0.3303300000000 1.0
C      1  0.5630580000000  0.4351210000000  0.2431380000000 1.0
C      1  0.4369420000000  0.5984910000000  0.2540590000000 1.0
C      1  0.5630580000000  0.7242410000000  0.3589220000000 1.0
C      1  0.4369420000000  0.7643390000000  0.5176710000000 1.0
C      1  0.5630580000000  0.7034680000000  0.6696700000000 1.0
C      1  0.4466970000000  0.6675970000000  0.3273940000000 1.0
C      1  0.5533030000000  0.7370440000000  0.4588700000000 1.0
C      1  0.4466970000000  0.7159480000000  0.6060560000000 1.0
C      1  0.5533030000000  0.6123670000000  0.7127320000000 1.0
C      1  0.4466970000000  0.4658660000000  0.7381520000000 1.0
C      1  0.5533030000000  0.3324030000000  0.6726060000000 1.0
C      1  0.4466970000000  0.2629560000000  0.5411300000000 1.0
C      1  0.5533030000000  0.2840520000000  0.3939440000000 1.0
C      1  0.4466970000000  0.3876330000000  0.2872680000000 1.0
C      1  0.5533030000000  0.5341340000000  0.2618480000000 1.0
C      1  0.5533030000000  0.5021310000000  0.7405760000000 1.0
C      1  0.4466970000000  0.3603170000000  0.6958830000000 1.0
C      1  0.5533030000000  0.2718570000000  0.5763690000000 1.0
C      1  0.4466970000000  0.2705400000000  0.4276850000000 1.0
C      1  0.5533030000000  0.3568690000000  0.3066220000000 1.0
C      1  0.4466970000000  0.4978690000000  0.2594240000000 1.0
C      1  0.5533030000000  0.6396830000000  0.3041170000000 1.0
C      1  0.4466970000000  0.7281430000000  0.4236310000000 1.0
C      1  0.5533030000000  0.7294600000000  0.5723150000000 1.0
C      1  0.4466970000000  0.6431310000000  0.6933780000000 1.0
C      1  0.3053070000000  0.5711730000000  0.4552220000000 1.0
C      1  0.6946930000000  0.5839000000000  0.5056090000000 1.0
C      1  0.3053070000000  0.5645800000000  0.5538530000000 1.0
C      1  0.6946930000000  0.5205920000000  0.5815270000000 1.0
C      1  0.3053070000000  0.4687390000000  0.5780610000000 1.0
C      1  0.6946930000000  0.4288270000000  0.5447780000000 1.0
C      1  0.3053070000000  0.4161000000000  0.4943910000000 1.0
C      1  0.6946930000000  0.4354200000000  0.4461470000000 1.0
C      1  0.3053070000000  0.4794080000000  0.4184730000000 1.0
C      1  0.6946930000000  0.5312610000000  0.4219390000000 1.0
C      1  0.3813830000000  0.6272810000000  0.6061390000000 1.0
C      1  0.6186170000000  0.5405860000000  0.6606820000000 1.0
C      1  0.3813830000000  0.4383880000000  0.6538500000000 1.0
C      1  0.6186170000000  0.3597240000000  0.5882530000000 1.0
C      1  0.3813830000000  0.3346410000000  0.4889460000000 1.0
C      1  0.6186170000000  0.3727190000000  0.3938610000000 1.0
C      1  0.3813830000000  0.4594140000000  0.3393180000000 1.0
C      1  0.6186170000000  0.5616120000000  0.3461500000000 1.0
C      1  0.3813830000000  0.6402760000000  0.4117470000000 1.0
C      1  0.6186170000000  0.6653590000000  0.5110540000000 1.0
C      1  0.5619160000000  0.4393670000000  0.4494390000000 1.0
C      1  0.4380840000000  0.4806660000000  0.4234560000000 1.0
C      1  0.5619160000000  0.5293500000000  0.4267110000000 1.0
C      1  0.4380840000000  0.5668230000000  0.4579590000000 1.0
C      1  0.5619160000000  0.5787720000000  0.5052660000000 1.0
C      1  0.4380840000000  0.5606330000000  0.5505610000000 1.0
C      1  0.5619160000000  0.5193340000000  0.5765440000000 1.0
C      1  0.4380840000000  0.4706500000000  0.5732890000000 1.0
C      1  0.5619160000000  0.4331770000000  0.5420410000000 1.0
C      1  0.4380840000000  0.4212280000000  0.4947340000000 1.0
END
