TITL C-3036482-790-1036 0.000190959271726463 3375 -348.61620790853 0 0 60 (C2) n - 1
REM
REM in /home/bkarasulu/work/CARBON/AIRSS/Generating-Clusters/REBO/Higher-Symm/Only-C60
REM
REM
REM
REM
REM
REM ./C.cell (a2850807a9bf4ad07a5b6933b78d9264)
REM AIRSS Version 0.9.1 bugfix July 2018 build 013d7b7c2542+ Fri, 06 Jul 2018 19:26:36 +0100
REM compiler GCC version 9.2.1 20190827 (Red Hat 9.2.1-1)
REM options -cpp -mtune=generic -march=x86-64 -g -O0 -fpre-include=/usr/include/finclude/math-vector-fortran.h
REM seed 2130004309 338945651 136738342 910426268 -829437839 -967609343 1869815895 33938538 439291059 -1303043569 -1956166042 -2041117471 -105589442 -1728843007 -1877668390 1136963240 -473942056 1822236883 1951095733 -1034652121 636375892 -1123183375 960373852 1417729644 278288407 -1991473296 159378589 738917912 721825146 -439597467 1107402029 -527117583 -2015452734
REM
CELL 1.54180   15.00000   15.00000   15.00000   90.00000   90.00000   90.00000
LATT -1
SFAC C  
C      1  0.4489170000000  0.6911440000000  0.3899960000000 1.0
C      1  0.4523510000000  0.4956010000000  0.7109700000000 1.0
C      1  0.4579050000000  0.3053340000000  0.3910600000000 1.0
C      1  0.5510690000000  0.3088700000000  0.3899660000000 1.0
C      1  0.5476770000000  0.5043710000000  0.7109650000000 1.0
C      1  0.5420810000000  0.6946800000000  0.3910790000000 1.0
C      1  0.6080070000000  0.4581920000000  0.4428900000000 1.0
C      1  0.6045280000000  0.5637300000000  0.4691280000000 1.0
C      1  0.5960610000000  0.4936590000000  0.5872560000000 1.0
C      1  0.3919850000000  0.5418150000000  0.4429090000000 1.0
C      1  0.3954680000000  0.4362730000000  0.4691330000000 1.0
C      1  0.4039510000000  0.5063300000000  0.5872690000000 1.0
C      1  0.2454600000000  0.4551370000000  0.6155930000000 1.0
C      1  0.2390780000000  0.4269480000000  0.4079060000000 1.0
C      1  0.2454340000000  0.6233250000000  0.4876990000000 1.0
C      1  0.7545550000000  0.5448490000000  0.6155650000000 1.0
C      1  0.7609100000000  0.5730640000000  0.4078800000000 1.0
C      1  0.7545650000000  0.3766780000000  0.4876490000000 1.0
C      1  0.7222010000000  0.6208590000000  0.5755880000000 1.0
C      1  0.7162790000000  0.3760950000000  0.5722930000000 1.0
C      1  0.7259040000000  0.5026450000000  0.3578260000000 1.0
C      1  0.2778080000000  0.3791320000000  0.5756020000000 1.0
C      1  0.2837320000000  0.6238970000000  0.5723380000000 1.0
C      1  0.2740770000000  0.4973730000000  0.3578560000000 1.0
C      1  0.3786510000000  0.6759680000000  0.5785180000000 1.0
C      1  0.3545140000000  0.3372730000000  0.6176170000000 1.0
C      1  0.3604750000000  0.4730070000000  0.3019400000000 1.0
C      1  0.6213610000000  0.3240220000000  0.5784800000000 1.0
C      1  0.6455000000000  0.6627120000000  0.6176190000000 1.0
C      1  0.6394990000000  0.5270190000000  0.3019260000000 1.0
C      1  0.3970740000000  0.2770830000000  0.5554750000000 1.0
C      1  0.3949460000000  0.5740650000000  0.2750430000000 1.0
C      1  0.4087850000000  0.6541900000000  0.6807150000000 1.0
C      1  0.6029320000000  0.7229090000000  0.5554900000000 1.0
C      1  0.6050240000000  0.4259630000000  0.2750200000000 1.0
C      1  0.5912400000000  0.3457860000000  0.6806830000000 1.0
C      1  0.5838410000000  0.5872240000000  0.6551310000000 1.0
C      1  0.5954200000000  0.3527270000000  0.4725650000000 1.0
C      1  0.5907460000000  0.6072040000000  0.3656390000000 1.0
C      1  0.4161790000000  0.4127550000000  0.6551300000000 1.0
C      1  0.4045770000000  0.6472760000000  0.4725950000000 1.0
C      1  0.4092360000000  0.3928130000000  0.3656370000000 1.0
C      1  0.5519320000000  0.4108930000000  0.5541060000000 1.0
C      1  0.5468170000000  0.5050820000000  0.3648560000000 1.0
C      1  0.5441330000000  0.5841440000000  0.5521820000000 1.0
C      1  0.4480750000000  0.5891000000000  0.5541230000000 1.0
C      1  0.4531650000000  0.4949360000000  0.3648610000000 1.0
C      1  0.4558740000000  0.4158490000000  0.5521770000000 1.0
C      1  0.6221010000000  0.3643440000000  0.3428140000000 1.0
C      1  0.6140340000000  0.6964300000000  0.4619330000000 1.0
C      1  0.6130770000000  0.4339380000000  0.7043330000000 1.0
C      1  0.3778780000000  0.6356760000000  0.3428470000000 1.0
C      1  0.3859600000000  0.3035750000000  0.4619240000000 1.0
C      1  0.3869510000000  0.5660360000000  0.7043560000000 1.0
C      1  0.7011960000000  0.4086720000000  0.4061160000000 1.0
C      1  0.6975820000000  0.6204690000000  0.4735940000000 1.0
C      1  0.6929690000000  0.4629690000000  0.6291760000000 1.0
C      1  0.2987910000000  0.5913400000000  0.4061540000000 1.0
C      1  0.3024150000000  0.3795340000000  0.4736060000000 1.0
C      1  0.3070480000000  0.5370150000000  0.6292060000000 1.0
END
