TITL C-3036484-3770-764 4.189425348192e-06 3375 -358.998030599542 0 0 60 (C3) n - 1
REM
REM in /home/bkarasulu/work/CARBON/AIRSS/Generating-Clusters/REBO/Higher-Symm/Only-C60
REM
REM
REM
REM
REM
REM ./C.cell (a2850807a9bf4ad07a5b6933b78d9264)
REM AIRSS Version 0.9.1 bugfix July 2018 build 013d7b7c2542+ Fri, 06 Jul 2018 19:26:36 +0100
REM compiler GCC version 9.2.1 20190827 (Red Hat 9.2.1-1)
REM options -cpp -mtune=generic -march=x86-64 -g -O0 -fpre-include=/usr/include/finclude/math-vector-fortran.h
REM seed 584126722 -2016059875 -1840653250 -84687369 -1544545176 -1836674385 -266515229 1615401157 -1173213221 -1079410307 1821376124 -479250885 -738403723 -1271684355 1976337217 -1252886615 1694114868 826977289 -514701973 -833817 -368723058 -375849471 -1134185160 158952629 1524866989 -1969551883 622531031 683242713 -1262286590 -1798890666 508922185 1885219671 2029982093
REM
CELL 1.54180   15.00000   15.00000   15.00000   90.00000   90.00000   90.00000
LATT -1
SFAC C  
C      1  0.5220010000000  0.5694000000000  0.5451970000000 1.0
C      1  0.4286830000000  0.4844600000000  0.5453090000000 1.0
C      1  0.5488740000000  0.4461350000000  0.5454060000000 1.0
C      1  0.4195490000000  0.5435620000000  0.2930910000000 1.0
C      1  0.5026590000000  0.4086860000000  0.2929750000000 1.0
C      1  0.5779060000000  0.5479960000000  0.2932840000000 1.0
C      1  0.3940490000000  0.3136160000000  0.5926970000000 1.0
C      1  0.7143140000000  0.5020510000000  0.5929910000000 1.0
C      1  0.3908270000000  0.6848470000000  0.5927670000000 1.0
C      1  0.4585520000000  0.6011330000000  0.4554680000000 1.0
C      1  0.4330080000000  0.4137770000000  0.4554180000000 1.0
C      1  0.6082090000000  0.4846580000000  0.4555480000000 1.0
C      1  0.5521900000000  0.6348550000000  0.4225600000000 1.0
C      1  0.3569020000000  0.4775090000000  0.4221790000000 1.0
C      1  0.5907360000000  0.3868840000000  0.4221800000000 1.0
C      1  0.2896980000000  0.5704240000000  0.5209370000000 1.0
C      1  0.5429040000000  0.2820300000000  0.5203980000000 1.0
C      1  0.6670460000000  0.6462900000000  0.5203950000000 1.0
C      1  0.6514720000000  0.5339690000000  0.6711250000000 1.0
C      1  0.3951690000000  0.6149520000000  0.6712230000000 1.0
C      1  0.4532980000000  0.3515380000000  0.6710650000000 1.0
C      1  0.7036720000000  0.3167860000000  0.5151770000000 1.0
C      1  0.5565530000000  0.7681930000000  0.5149130000000 1.0
C      1  0.2411200000000  0.4131520000000  0.5163120000000 1.0
C      1  0.2802460000000  0.4933670000000  0.4738130000000 1.0
C      1  0.6147490000000  0.3118930000000  0.4732220000000 1.0
C      1  0.6051200000000  0.6934140000000  0.4732550000000 1.0
C      1  0.4665500000000  0.7459540000000  0.3702770000000 1.0
C      1  0.3040790000000  0.3479990000000  0.3691090000000 1.0
C      1  0.7294550000000  0.4059700000000  0.3705010000000 1.0
C      1  0.4748800000000  0.3595630000000  0.5399700000000 1.0
C      1  0.6339810000000  0.5485480000000  0.5399750000000 1.0
C      1  0.3907300000000  0.5918670000000  0.5401940000000 1.0
C      1  0.3011270000000  0.3285920000000  0.5638650000000 1.0
C      1  0.7487880000000  0.4148240000000  0.5647910000000 1.0
C      1  0.4490840000000  0.7583660000000  0.5645370000000 1.0
C      1  0.4913330000000  0.6079270000000  0.6337080000000 1.0
C      1  0.4113310000000  0.4387880000000  0.6341650000000 1.0
C      1  0.5973730000000  0.4537850000000  0.6340450000000 1.0
C      1  0.5394180000000  0.3227580000000  0.6969520000000 1.0
C      1  0.6336340000000  0.6230790000000  0.6968040000000 1.0
C      1  0.3277450000000  0.5547480000000  0.6982110000000 1.0
C      1  0.4655360000000  0.7776450000000  0.4539600000000 1.0
C      1  0.2778480000000  0.3305320000000  0.4527350000000 1.0
C      1  0.7573030000000  0.3909660000000  0.4542130000000 1.0
C      1  0.3976060000000  0.5544900000000  0.3846480000000 1.0
C      1  0.5037400000000  0.3842030000000  0.3845290000000 1.0
C      1  0.5982560000000  0.5610380000000  0.3849110000000 1.0
C      1  0.6689850000000  0.4165320000000  0.3033140000000 1.0
C      1  0.4878840000000  0.6881620000000  0.3032980000000 1.0
C      1  0.3432440000000  0.3955390000000  0.3021660000000 1.0
C      1  0.4964800000000  0.5982170000000  0.2709020000000 1.0
C      1  0.4170000000000  0.4480350000000  0.2703920000000 1.0
C      1  0.5868650000000  0.4541380000000  0.2707640000000 1.0
C      1  0.5442790000000  0.7556030000000  0.6243770000000 1.0
C      1  0.2566660000000  0.4117600000000  0.6266300000000 1.0
C      1  0.6986880000000  0.3339230000000  0.6246410000000 1.0
C      1  0.6191030000000  0.3651460000000  0.6672830000000 1.0
C      1  0.5572890000000  0.6710220000000  0.6668530000000 1.0
C      1  0.3242140000000  0.4647040000000  0.6683790000000 1.0
END
