TITL C-3036481-494-709 0.00363126143939304 3375 -352.661041871275 0 0 60 (C1) n - 1
REM
REM in /home/bkarasulu/work/CARBON/AIRSS/Generating-Clusters/REBO/Higher-Symm/Only-C60
REM
REM
REM
REM
REM
REM ./C.cell (a2850807a9bf4ad07a5b6933b78d9264)
REM AIRSS Version 0.9.1 bugfix July 2018 build 013d7b7c2542+ Fri, 06 Jul 2018 19:26:36 +0100
REM compiler GCC version 9.2.1 20190827 (Red Hat 9.2.1-1)
REM options -cpp -mtune=generic -march=x86-64 -g -O0 -fpre-include=/usr/include/finclude/math-vector-fortran.h
REM seed 851112320 -1859911528 -585545845 -1892428841 459428179 -499291815 -1227574458 -78132893 -1516103955 399262239 1362256384 1210034114 -1413574719 1133303184 105612715 563253599 -296832426 1772851738 1083847328 1858614827 337162977 -1560289743 1555237265 -1486978404 947085514 72322157 -915610957 -1235037295 -960011573 -2068050919 -1582216258 -47670270 -669182404
REM
CELL 1.54180   15.00000   15.00000   15.00000   90.00000   90.00000   90.00000
LATT -1
SFAC C  
C      1  0.4072070000000  0.4465230000000  0.6395290000000 1.0
C      1  0.5996680000000  0.4429710000000  0.6525830000000 1.0
C      1  0.5089840000000  0.6068620000000  0.6486390000000 1.0
C      1  0.5926570000000  0.4466050000000  0.3594430000000 1.0
C      1  0.4011030000000  0.4421240000000  0.3463460000000 1.0
C      1  0.4908990000000  0.6059980000000  0.3518190000000 1.0
C      1  0.5919360000000  0.5535150000000  0.3594220000000 1.0
C      1  0.3990890000000  0.5563500000000  0.3485900000000 1.0
C      1  0.4922390000000  0.3931180000000  0.3512920000000 1.0
C      1  0.4084190000000  0.5534560000000  0.6415200000000 1.0
C      1  0.6002580000000  0.5572460000000  0.6525040000000 1.0
C      1  0.5080600000000  0.3939480000000  0.6482630000000 1.0
C      1  0.6872270000000  0.6064680000000  0.3965030000000 1.0
C      1  0.3061800000000  0.6085090000000  0.3923150000000 1.0
C      1  0.4903230000000  0.2890220000000  0.3984220000000 1.0
C      1  0.3138360000000  0.6078550000000  0.6049890000000 1.0
C      1  0.6926840000000  0.6101540000000  0.6091950000000 1.0
C      1  0.5094700000000  0.2895920000000  0.6018670000000 1.0
C      1  0.3110910000000  0.3956180000000  0.6015990000000 1.0
C      1  0.6919290000000  0.3893790000000  0.6098820000000 1.0
C      1  0.5101270000000  0.7111800000000  0.6019510000000 1.0
C      1  0.6879170000000  0.3940170000000  0.3971140000000 1.0
C      1  0.3093670000000  0.3875630000000  0.3884190000000 1.0
C      1  0.4900300000000  0.7106320000000  0.3977300000000 1.0
C      1  0.6829870000000  0.7005820000000  0.5611750000000 1.0
C      1  0.2375080000000  0.5551560000000  0.5606510000000 1.0
C      1  0.5908800000000  0.2563010000000  0.5489390000000 1.0
C      1  0.3167180000000  0.6994880000000  0.4396410000000 1.0
C      1  0.7611150000000  0.5519790000000  0.4448290000000 1.0
C      1  0.4090800000000  0.2557510000000  0.4517140000000 1.0
C      1  0.3177280000000  0.2980730000000  0.4375230000000 1.0
C      1  0.7606360000000  0.4499290000000  0.4475030000000 1.0
C      1  0.4085180000000  0.7436420000000  0.4505430000000 1.0
C      1  0.6825310000000  0.2992250000000  0.5616380000000 1.0
C      1  0.2409580000000  0.4535520000000  0.5474790000000 1.0
C      1  0.5914520000000  0.7441600000000  0.5488600000000 1.0
C      1  0.5793490000000  0.7449320000000  0.4445440000000 1.0
C      1  0.2366150000000  0.4451750000000  0.4417950000000 1.0
C      1  0.6718910000000  0.3005030000000  0.4539570000000 1.0
C      1  0.4210240000000  0.7454410000000  0.5549630000000 1.0
C      1  0.7634240000000  0.4478800000000  0.5531630000000 1.0
C      1  0.3271860000000  0.3006950000000  0.5456300000000 1.0
C      1  0.4199690000000  0.2556630000000  0.5557390000000 1.0
C      1  0.7634440000000  0.5502670000000  0.5506960000000 1.0
C      1  0.3291800000000  0.6997060000000  0.5469220000000 1.0
C      1  0.5795870000000  0.2551660000000  0.4447690000000 1.0
C      1  0.2364540000000  0.5473330000000  0.4539900000000 1.0
C      1  0.6716740000000  0.6995600000000  0.4534920000000 1.0
C      1  0.3695930000000  0.5485390000000  0.4536450000000 1.0
C      1  0.5219370000000  0.3747010000000  0.4572190000000 1.0
C      1  0.6088000000000  0.5829750000000  0.4649630000000 1.0
C      1  0.6305550000000  0.5483470000000  0.5476570000000 1.0
C      1  0.4777070000000  0.3750600000000  0.5425840000000 1.0
C      1  0.3915030000000  0.5827380000000  0.5361580000000 1.0
C      1  0.6306120000000  0.4517040000000  0.5478780000000 1.0
C      1  0.4783660000000  0.6257030000000  0.5429970000000 1.0
C      1  0.3904740000000  0.4169550000000  0.5336750000000 1.0
C      1  0.3691350000000  0.4519130000000  0.4507030000000 1.0
C      1  0.5217400000000  0.6254180000000  0.4572910000000 1.0
C      1  0.6089720000000  0.4170850000000  0.4651390000000 1.0
END
