TITL C-3036479-9801-1164 -0.0137923949203244 3375 -326.493350066117 0 0 60 (C1) n - 1
REM
REM in /home/bkarasulu/work/CARBON/AIRSS/Generating-Clusters/REBO/Higher-Symm/Only-C60
REM
REM
REM
REM
REM
REM ./C.cell (a2850807a9bf4ad07a5b6933b78d9264)
REM AIRSS Version 0.9.1 bugfix July 2018 build 013d7b7c2542+ Fri, 06 Jul 2018 19:26:36 +0100
REM compiler GCC version 9.2.1 20190827 (Red Hat 9.2.1-1)
REM options -cpp -mtune=generic -march=x86-64 -g -O0 -fpre-include=/usr/include/finclude/math-vector-fortran.h
REM seed -1430112292 -307018423 -791733293 393383474 1837126811 356679522 -1390188373 -1811415180 -2039997709 1364677252 1649382170 -1780481125 -782939317 -1169155227 2101309692 1108933080 982705078 -1796342668 -2004254439 1096917640 -920994702 -702377875 2000870473 1134349992 230373407 -1394562422 -514693043 -1431114254 1361642094 476760878 -109613077 -63444989 -786884008
REM
CELL 1.54180   15.00000   15.00000   15.00000   90.00000   90.00000   90.00000
LATT -1
SFAC C  
C      1  0.6625470000000  0.2779110000000  0.5715490000000 1.0
C      1  0.4736970000000  0.3076630000000  0.6789960000000 1.0
C      1  0.3257240000000  0.2839160000000  0.5323560000000 1.0
C      1  0.4135340000000  0.2807130000000  0.3414760000000 1.0
C      1  0.6264230000000  0.3175520000000  0.3690810000000 1.0
C      1  0.6778730000000  0.6257490000000  0.5550040000000 1.0
C      1  0.5037100000000  0.6270920000000  0.6864180000000 1.0
C      1  0.3237300000000  0.6267530000000  0.5614460000000 1.0
C      1  0.3880380000000  0.6264290000000  0.3523770000000 1.0
C      1  0.6051890000000  0.6207140000000  0.3490710000000 1.0
C      1  0.4030520000000  0.6404420000000  0.6601030000000 1.0
C      1  0.3180260000000  0.6453860000000  0.4571690000000 1.0
C      1  0.4844710000000  0.6403490000000  0.3139250000000 1.0
C      1  0.6715710000000  0.6372190000000  0.4283530000000 1.0
C      1  0.6219280000000  0.6459180000000  0.6427450000000 1.0
C      1  0.4087160000000  0.4670740000000  0.5550840000000 1.0
C      1  0.4194410000000  0.4591250000000  0.4376490000000 1.0
C      1  0.5229260000000  0.4604530000000  0.3805730000000 1.0
C      1  0.6120470000000  0.4670560000000  0.5153230000000 1.0
C      1  0.5571530000000  0.4631780000000  0.6158830000000 1.0
C      1  0.4292610000000  0.5416480000000  0.7079210000000 1.0
C      1  0.2752690000000  0.5486960000000  0.4912780000000 1.0
C      1  0.4357160000000  0.5435040000000  0.2877790000000 1.0
C      1  0.6796560000000  0.5375780000000  0.3773500000000 1.0
C      1  0.6768810000000  0.5487110000000  0.6403890000000 1.0
C      1  0.5485450000000  0.6853680000000  0.4257400000000 1.0
C      1  0.5858170000000  0.6869280000000  0.5226810000000 1.0
C      1  0.5039400000000  0.6884080000000  0.5890910000000 1.0
C      1  0.4168610000000  0.6885210000000  0.5329510000000 1.0
C      1  0.4454790000000  0.6878260000000  0.4309990000000 1.0
C      1  0.4282220000000  0.3009560000000  0.5547960000000 1.0
C      1  0.4240440000000  0.3016220000000  0.4448970000000 1.0
C      1  0.5262110000000  0.3100570000000  0.4056960000000 1.0
C      1  0.5917330000000  0.3011930000000  0.4961260000000 1.0
C      1  0.5331530000000  0.3023270000000  0.5898750000000 1.0
C      1  0.4801180000000  0.4535420000000  0.6960540000000 1.0
C      1  0.2998510000000  0.4594460000000  0.5268610000000 1.0
C      1  0.3957320000000  0.4572090000000  0.3182450000000 1.0
C      1  0.6319680000000  0.4500610000000  0.3569640000000 1.0
C      1  0.6889450000000  0.4573480000000  0.5997900000000 1.0
C      1  0.4463560000000  0.5688610000000  0.5792750000000 1.0
C      1  0.4052550000000  0.5705400000000  0.4730830000000 1.0
C      1  0.4954070000000  0.5668540000000  0.4041850000000 1.0
C      1  0.5885790000000  0.5664890000000  0.4696750000000 1.0
C      1  0.5599130000000  0.5698180000000  0.5800380000000 1.0
C      1  0.2931290000000  0.4722200000000  0.6257420000000 1.0
C      1  0.3027640000000  0.4803720000000  0.3351950000000 1.0
C      1  0.5921250000000  0.4726680000000  0.2674440000000 1.0
C      1  0.7511580000000  0.4750510000000  0.5237490000000 1.0
C      1  0.5623180000000  0.4803840000000  0.7479350000000 1.0
C      1  0.3323670000000  0.5547480000000  0.6495160000000 1.0
C      1  0.2977420000000  0.5637200000000  0.3811570000000 1.0
C      1  0.5479080000000  0.5562240000000  0.2748060000000 1.0
C      1  0.7261020000000  0.5547360000000  0.4799430000000 1.0
C      1  0.5935190000000  0.5639770000000  0.7157250000000 1.0
C      1  0.6190780000000  0.3952690000000  0.4482520000000 1.0
C      1  0.6216780000000  0.3705520000000  0.6064470000000 1.0
C      1  0.4396730000000  0.3932800000000  0.6162370000000 1.0
C      1  0.3471870000000  0.3758590000000  0.4802000000000 1.0
C      1  0.4605450000000  0.3767350000000  0.3413310000000 1.0
END
