TITL C-3036486-2224-713 0.0236140822034986 3375 -344.390398951637 0 0 60 (C1) n - 1
REM
REM in /home/bkarasulu/work/CARBON/AIRSS/Generating-Clusters/REBO/Higher-Symm/Only-C60
REM
REM
REM
REM
REM
REM ./C.cell (a2850807a9bf4ad07a5b6933b78d9264)
REM AIRSS Version 0.9.1 bugfix July 2018 build 013d7b7c2542+ Fri, 06 Jul 2018 19:26:36 +0100
REM compiler GCC version 9.2.1 20190827 (Red Hat 9.2.1-1)
REM options -cpp -mtune=generic -march=x86-64 -g -O0 -fpre-include=/usr/include/finclude/math-vector-fortran.h
REM seed -1271618017 256011008 1108743384 -167479810 -1512720722 -1368752854 842328103 1434025880 593475389 2104743754 -1697205545 -1980124974 -1112385530 1606039836 -1803096938 296171275 1071839033 1544368729 2089957198 -1535232318 -318922626 173203593 1722804060 -2095196409 154830485 -327841234 1626280853 814541456 -1283353867 -1316342593 419048365 -295466255 1419188469
REM
CELL 1.54180   15.00000   15.00000   15.00000   90.00000   90.00000   90.00000
LATT -1
SFAC C  
C      1  0.6037140000000  0.3701880000000  0.6888820000000 1.0
C      1  0.4197540000000  0.4877540000000  0.4349680000000 1.0
C      1  0.4449460000000  0.6160380000000  0.5937380000000 1.0
C      1  0.3505290000000  0.6423660000000  0.5042640000000 1.0
C      1  0.5706600000000  0.6024570000000  0.1537900000000 1.0
C      1  0.3059450000000  0.4026160000000  0.6238410000000 1.0
C      1  0.4767210000000  0.7222100000000  0.5838960000000 1.0
C      1  0.5610590000000  0.6118730000000  0.5009160000000 1.0
C      1  0.6138050000000  0.5290520000000  0.2967500000000 1.0
C      1  0.6185980000000  0.5244820000000  0.5210690000000 1.0
C      1  0.4955550000000  0.4206160000000  0.4539990000000 1.0
C      1  0.3444790000000  0.5159440000000  0.3609890000000 1.0
C      1  0.5327380000000  0.6587700000000  0.3054400000000 1.0
C      1  0.3721320000000  0.5566610000000  0.6457730000000 1.0
C      1  0.4306790000000  0.3376690000000  0.7020290000000 1.0
C      1  0.5688790000000  0.4475550000000  0.3004340000000 1.0
C      1  0.3544740000000  0.3345770000000  0.5465470000000 1.0
C      1  0.3274340000000  0.3480920000000  0.3733310000000 1.0
C      1  0.5317750000000  0.7292670000000  0.3825810000000 1.0
C      1  0.5735890000000  0.5986290000000  0.2437110000000 1.0
C      1  0.6043890000000  0.6600990000000  0.4179870000000 1.0
C      1  0.5212650000000  0.3537250000000  0.7263510000000 1.0
C      1  0.7049070000000  0.5872800000000  0.5604570000000 1.0
C      1  0.6840410000000  0.4351380000000  0.6417650000000 1.0
C      1  0.2893560000000  0.5698270000000  0.5069120000000 1.0
C      1  0.3965380000000  0.4997450000000  0.7191000000000 1.0
C      1  0.4703140000000  0.4086780000000  0.3173640000000 1.0
C      1  0.6447960000000  0.3366390000000  0.5979900000000 1.0
C      1  0.6983780000000  0.6114510000000  0.4594090000000 1.0
C      1  0.6683430000000  0.4446770000000  0.4758570000000 1.0
C      1  0.3807610000000  0.3108080000000  0.4434710000000 1.0
C      1  0.3745480000000  0.7075740000000  0.3465180000000 1.0
C      1  0.6293800000000  0.3654150000000  0.4402930000000 1.0
C      1  0.4877250000000  0.5174930000000  0.7566670000000 1.0
C      1  0.6769460000000  0.5397960000000  0.6591640000000 1.0
C      1  0.5020040000000  0.4172520000000  0.5583590000000 1.0
C      1  0.5630350000000  0.3556880000000  0.3615710000000 1.0
C      1  0.3644350000000  0.4083590000000  0.7043060000000 1.0
C      1  0.4149160000000  0.7246020000000  0.5028530000000 1.0
C      1  0.5090800000000  0.3209660000000  0.5943760000000 1.0
C      1  0.8201530000000  0.4000510000000  0.5374680000000 1.0
C      1  0.5602570000000  0.4857150000000  0.5945370000000 1.0
C      1  0.2394360000000  0.3325340000000  0.3604640000000 1.0
C      1  0.7320520000000  0.4233970000000  0.5467450000000 1.0
C      1  0.6437480000000  0.6454990000000  0.6322340000000 1.0
C      1  0.5863860000000  0.5013450000000  0.7039530000000 1.0
C      1  0.3781660000000  0.4185420000000  0.3293720000000 1.0
C      1  0.4559940000000  0.6004300000000  0.4802560000000 1.0
C      1  0.6296380000000  0.3026400000000  0.5125100000000 1.0
C      1  0.3924750000000  0.4410970000000  0.5332440000000 1.0
C      1  0.4400020000000  0.7434080000000  0.4106970000000 1.0
C      1  0.3163310000000  0.5042400000000  0.5778640000000 1.0
C      1  0.5049890000000  0.5599870000000  0.6525790000000 1.0
C      1  0.5650350000000  0.6729250000000  0.5845050000000 1.0
C      1  0.6538490000000  0.5681380000000  0.3720350000000 1.0
C      1  0.4206200000000  0.2866000000000  0.6151180000000 1.0
C      1  0.2648070000000  0.5331840000000  0.4262240000000 1.0
C      1  0.4717450000000  0.3271330000000  0.4224500000000 1.0
C      1  0.4660810000000  0.6143140000000  0.3716350000000 1.0
C      1  0.3756130000000  0.6067940000000  0.3283970000000 1.0
END
