TITL C-3036485-3770-379 0.0363443399066192 3375 -348.796680021274 0 0 60 (C1) n - 1
REM
REM in /home/bkarasulu/work/CARBON/AIRSS/Generating-Clusters/REBO/Higher-Symm/Only-C60
REM
REM
REM
REM
REM
REM ./C.cell (a2850807a9bf4ad07a5b6933b78d9264)
REM AIRSS Version 0.9.1 bugfix July 2018 build 013d7b7c2542+ Fri, 06 Jul 2018 19:26:36 +0100
REM compiler GCC version 9.2.1 20190827 (Red Hat 9.2.1-1)
REM options -cpp -mtune=generic -march=x86-64 -g -O0 -fpre-include=/usr/include/finclude/math-vector-fortran.h
REM seed 1140950797 2066391161 1529204973 -2006970640 -1347210 573472912 -1115425939 -1035979992 1483958943 902592047 -1663518194 625212597 741370227 1701252232 407739129 1725580074 -792381112 -158222779 2014425816 -1200763440 -1628763340 1445805443 1085498872 1322448112 -791156872 -1417517696 2123823643 1185487168 129135623 -1466540161 243527065 442761433 250595567
REM
CELL 1.54180   15.00000   15.00000   15.00000   90.00000   90.00000   90.00000
LATT -1
SFAC C  
C      1  0.7361000000000  0.5067410000000  0.3635200000000 1.0
C      1  0.5955010000000  0.2707960000000  0.4495410000000 1.0
C      1  0.6541520000000  0.4156540000000  0.6287630000000 1.0
C      1  0.5171430000000  0.4469180000000  0.2617980000000 1.0
C      1  0.4045010000000  0.5550070000000  0.4526150000000 1.0
C      1  0.4259570000000  0.7169690000000  0.4806400000000 1.0
C      1  0.4438010000000  0.4660130000000  0.8084880000000 1.0
C      1  0.5191010000000  0.6185150000000  0.2959940000000 1.0
C      1  0.6075560000000  0.7368080000000  0.4602340000000 1.0
C      1  0.5229060000000  0.3497650000000  0.3067870000000 1.0
C      1  0.8018570000000  0.2998680000000  0.4911800000000 1.0
C      1  0.5835510000000  0.6270620000000  0.6679860000000 1.0
C      1  0.4601200000000  0.4951910000000  0.3811190000000 1.0
C      1  0.6701630000000  0.5622390000000  0.3398470000000 1.0
C      1  0.7682950000000  0.4365330000000  0.4093430000000 1.0
C      1  0.4562810000000  0.5931940000000  0.5184440000000 1.0
C      1  0.3503500000000  0.3981330000000  0.6909380000000 1.0
C      1  0.4509630000000  0.4800450000000  0.5882220000000 1.0
C      1  0.3646900000000  0.4509410000000  0.5252030000000 1.0
C      1  0.5192720000000  0.2913340000000  0.3862270000000 1.0
C      1  0.5054720000000  0.7377000000000  0.4324940000000 1.0
C      1  0.5440480000000  0.5554860000000  0.5298140000000 1.0
C      1  0.4404830000000  0.6777120000000  0.5821370000000 1.0
C      1  0.7430180000000  0.3594270000000  0.4565600000000 1.0
C      1  0.4377740000000  0.3130600000000  0.5890330000000 1.0
C      1  0.5093300000000  0.2664590000000  0.5162980000000 1.0
C      1  0.4477510000000  0.5470620000000  0.6529880000000 1.0
C      1  0.2997850000000  0.5386850000000  0.5380100000000 1.0
C      1  0.6807420000000  0.5010000000000  0.6190890000000 1.0
C      1  0.3248940000000  0.5292180000000  0.3919640000000 1.0
C      1  0.5245750000000  0.5624730000000  0.7090510000000 1.0
C      1  0.5798750000000  0.5322300000000  0.2870860000000 1.0
C      1  0.6488290000000  0.3476640000000  0.4646250000000 1.0
C      1  0.4357530000000  0.5875860000000  0.3272080000000 1.0
C      1  0.6234960000000  0.3189900000000  0.7512330000000 1.0
C      1  0.6637510000000  0.5887590000000  0.6356300000000 1.0
C      1  0.6070030000000  0.3428090000000  0.6649560000000 1.0
C      1  0.5217510000000  0.5115980000000  0.7887050000000 1.0
C      1  0.3615670000000  0.6474790000000  0.3441570000000 1.0
C      1  0.2747550000000  0.5961890000000  0.3134340000000 1.0
C      1  0.3353050000000  0.5514820000000  0.7243910000000 1.0
C      1  0.5931030000000  0.4254550000000  0.4729510000000 1.0
C      1  0.5420660000000  0.4554570000000  0.5516980000000 1.0
C      1  0.3998370000000  0.4142880000000  0.4332940000000 1.0
C      1  0.3779590000000  0.6320970000000  0.6554510000000 1.0
C      1  0.3361490000000  0.5099960000000  0.2843530000000 1.0
C      1  0.6435510000000  0.6467510000000  0.4036250000000 1.0
C      1  0.4233720000000  0.3803170000000  0.3272180000000 1.0
C      1  0.5348630000000  0.6982280000000  0.6256310000000 1.0
C      1  0.6026600000000  0.5618610000000  0.4541540000000 1.0
C      1  0.4095240000000  0.4575310000000  0.2614770000000 1.0
C      1  0.5664650000000  0.4855770000000  0.3877030000000 1.0
C      1  0.3517360000000  0.6762960000000  0.4362110000000 1.0
C      1  0.3661340000000  0.4674000000000  0.7531920000000 1.0
C      1  0.2922850000000  0.6184750000000  0.4849200000000 1.0
C      1  0.4379750000000  0.3148890000000  0.4426480000000 1.0
C      1  0.3716200000000  0.3743660000000  0.6027660000000 1.0
C      1  0.5542340000000  0.6857020000000  0.3514500000000 1.0
C      1  0.5390770000000  0.3007930000000  0.6176500000000 1.0
C      1  0.2951680000000  0.5637310000000  0.6278600000000 1.0
END
