TITL C-3036482-790-819 -2.25351535426491e-06 3375 -347.289140336243 0 0 60 (C2) n - 1
REM
REM in /home/bkarasulu/work/CARBON/AIRSS/Generating-Clusters/REBO/Higher-Symm/Only-C60
REM
REM
REM
REM
REM
REM ./C.cell (a2850807a9bf4ad07a5b6933b78d9264)
REM AIRSS Version 0.9.1 bugfix July 2018 build 013d7b7c2542+ Fri, 06 Jul 2018 19:26:36 +0100
REM compiler GCC version 9.2.1 20190827 (Red Hat 9.2.1-1)
REM options -cpp -mtune=generic -march=x86-64 -g -O0 -fpre-include=/usr/include/finclude/math-vector-fortran.h
REM seed -809052453 -1352288892 -122641095 -919846378 -1628820713 -1049025688 -1858604876 -321371973 1985838747 -342706990 -1816767370 -28528760 -39652007 514285852 -1012686324 1613047896 120906407 1386013657 7541002 418069643 1872041144 -1665110231 2610438 -602293632 149466136 823007732 -1526150572 -944509251 583345607 -1836619604 1103999849 992840932 985582306
REM
CELL 1.54180   15.00000   15.00000   15.00000   90.00000   90.00000   90.00000
LATT -1
SFAC C  
C      1  0.4494190000000  0.5458880000000  0.2440810000000 1.0
C      1  0.5505810000000  0.5458880000000  0.7559190000000 1.0
C      1  0.6638980000000  0.4337590000000  0.3481540000000 1.0
C      1  0.3361020000000  0.4337590000000  0.6518460000000 1.0
C      1  0.6094650000000  0.4042800000000  0.2658740000000 1.0
C      1  0.3905350000000  0.4042800000000  0.7341260000000 1.0
C      1  0.6564180000000  0.4102020000000  0.7250880000000 1.0
C      1  0.3435820000000  0.4102020000000  0.2749120000000 1.0
C      1  0.5370300000000  0.7235100000000  0.4053630000000 1.0
C      1  0.4629700000000  0.7235100000000  0.5946370000000 1.0
C      1  0.3441090000000  0.6621340000000  0.4879660000000 1.0
C      1  0.6558910000000  0.6621340000000  0.5120340000000 1.0
C      1  0.5191430000000  0.5083330000000  0.4184380000000 1.0
C      1  0.4808570000000  0.5083330000000  0.5815620000000 1.0
C      1  0.3871630000000  0.3193930000000  0.5901990000000 1.0
C      1  0.6128370000000  0.3193930000000  0.4098010000000 1.0
C      1  0.5535380000000  0.5631700000000  0.5129880000000 1.0
C      1  0.4464620000000  0.5631700000000  0.4870120000000 1.0
C      1  0.4332810000000  0.4389740000000  0.4446340000000 1.0
C      1  0.5667190000000  0.4389740000000  0.5553660000000 1.0
C      1  0.6101260000000  0.3396590000000  0.5878260000000 1.0
C      1  0.3898740000000  0.3396590000000  0.4121740000000 1.0
C      1  0.7100370000000  0.3813360000000  0.5828140000000 1.0
C      1  0.2899630000000  0.3813360000000  0.4171860000000 1.0
C      1  0.4153250000000  0.5104930000000  0.6593000000000 1.0
C      1  0.5846750000000  0.5104930000000  0.3407000000000 1.0
C      1  0.2910280000000  0.4508340000000  0.3460620000000 1.0
C      1  0.7089720000000  0.4508340000000  0.6539380000000 1.0
C      1  0.4732490000000  0.4820420000000  0.7468690000000 1.0
C      1  0.5267510000000  0.4820420000000  0.2531310000000 1.0
C      1  0.6417100000000  0.4956240000000  0.4918160000000 1.0
C      1  0.3582900000000  0.4956240000000  0.5081840000000 1.0
C      1  0.5555410000000  0.3190020000000  0.4990120000000 1.0
C      1  0.4444590000000  0.3190020000000  0.5009880000000 1.0
C      1  0.4932150000000  0.3798830000000  0.7019940000000 1.0
C      1  0.5067850000000  0.3798830000000  0.2980060000000 1.0
C      1  0.2538650000000  0.3798780000000  0.5042950000000 1.0
C      1  0.7461350000000  0.3798780000000  0.4957050000000 1.0
C      1  0.6337960000000  0.6368590000000  0.6179310000000 1.0
C      1  0.3662040000000  0.6368590000000  0.3820690000000 1.0
C      1  0.4438910000000  0.7120740000000  0.4173230000000 1.0
C      1  0.5561090000000  0.7120740000000  0.5826770000000 1.0
C      1  0.5860720000000  0.6783920000000  0.3377640000000 1.0
C      1  0.4139280000000  0.6783920000000  0.6622360000000 1.0
C      1  0.4121230000000  0.7338910000000  0.5131400000000 1.0
C      1  0.5878770000000  0.7338910000000  0.4868600000000 1.0
C      1  0.4818650000000  0.3749230000000  0.5946910000000 1.0
C      1  0.5181350000000  0.3749230000000  0.4053090000000 1.0
C      1  0.6951790000000  0.5436280000000  0.6368430000000 1.0
C      1  0.3048210000000  0.5436280000000  0.3631570000000 1.0
C      1  0.4093680000000  0.3541060000000  0.3091320000000 1.0
C      1  0.5906320000000  0.3541060000000  0.6908680000000 1.0
C      1  0.4016670000000  0.5951360000000  0.2887100000000 1.0
C      1  0.5983330000000  0.5951360000000  0.7112900000000 1.0
C      1  0.3042020000000  0.4307920000000  0.5651710000000 1.0
C      1  0.6957980000000  0.4307920000000  0.4348290000000 1.0
C      1  0.3688250000000  0.5990400000000  0.6380350000000 1.0
C      1  0.6311750000000  0.5990400000000  0.3619650000000 1.0
C      1  0.3333340000000  0.5927640000000  0.5494930000000 1.0
C      1  0.6666660000000  0.5927640000000  0.4505070000000 1.0
END
