TITL C-3036485-3770-1148 -1.51639394092584e-06 3375 -359.778406140202 0 0 60 (Ci) n - 1
REM
REM in /home/bkarasulu/work/CARBON/AIRSS/Generating-Clusters/REBO/Higher-Symm/Only-C60
REM
REM
REM
REM
REM
REM ./C.cell (a2850807a9bf4ad07a5b6933b78d9264)
REM AIRSS Version 0.9.1 bugfix July 2018 build 013d7b7c2542+ Fri, 06 Jul 2018 19:26:36 +0100
REM compiler GCC version 9.2.1 20190827 (Red Hat 9.2.1-1)
REM options -cpp -mtune=generic -march=x86-64 -g -O0 -fpre-include=/usr/include/finclude/math-vector-fortran.h
REM seed 165413243 1913584207 -243916618 1132425036 828554004 1912138352 -1240090071 890076124 -1894061957 -295174819 -1364652943 1956489557 -1013307675 -905338560 -371303703 -1855399620 -611738365 354895929 45216413 -1702810964 609546593 -239220232 -1315406523 513731237 -1808422582 -1512402836 1713335215 554821102 1118823355 64256902 -215922977 1679431166 1133592921
REM
CELL 1.54180   15.00000   15.00000   15.00000   90.00000   90.00000   90.00000
LATT -1
SFAC C  
C      1  0.7026300000000  0.5269360000000  0.5615870000000 1.0
C      1  0.4536390000000  0.5103320000000  0.3055130000000 1.0
C      1  0.3459920000000  0.5385590000000  0.6578460000000 1.0
C      1  0.7032370000000  0.4793610000000  0.4384710000000 1.0
C      1  0.4406840000000  0.4689920000000  0.7121110000000 1.0
C      1  0.3394370000000  0.4541580000000  0.3371720000000 1.0
C      1  0.2973700000000  0.4730640000000  0.4384130000000 1.0
C      1  0.5463610000000  0.4896680000000  0.6944870000000 1.0
C      1  0.6540080000000  0.4614410000000  0.3421540000000 1.0
C      1  0.2967630000000  0.5206390000000  0.5615290000000 1.0
C      1  0.5593160000000  0.5310080000000  0.2878890000000 1.0
C      1  0.6605630000000  0.5458420000000  0.6628280000000 1.0
C      1  0.4207570000000  0.6879350000000  0.6657140000000 1.0
C      1  0.6815680000000  0.6839840000000  0.5047370000000 1.0
C      1  0.4117160000000  0.6645020000000  0.3580720000000 1.0
C      1  0.4102960000000  0.3000380000000  0.3331550000000 1.0
C      1  0.6750730000000  0.3225100000000  0.4955190000000 1.0
C      1  0.4003760000000  0.3208160000000  0.6463790000000 1.0
C      1  0.5792430000000  0.3120650000000  0.3342860000000 1.0
C      1  0.3184320000000  0.3160160000000  0.4952630000000 1.0
C      1  0.5882840000000  0.3354980000000  0.6419290000000 1.0
C      1  0.5897040000000  0.6999620000000  0.6668450000000 1.0
C      1  0.3249270000000  0.6774900000000  0.5044810000000 1.0
C      1  0.5996240000000  0.6791840000000  0.3536210000000 1.0
C      1  0.7181000000000  0.6341650000000  0.5823010000000 1.0
C      1  0.4588990000000  0.6172980000000  0.2867220000000 1.0
C      1  0.3323010000000  0.6458040000000  0.6705120000000 1.0
C      1  0.7133970000000  0.3702380000000  0.4175440000000 1.0
C      1  0.4436870000000  0.3607850000000  0.7249300000000 1.0
C      1  0.3213890000000  0.3442940000000  0.3287700000000 1.0
C      1  0.2819000000000  0.3658350000000  0.4176990000000 1.0
C      1  0.5411010000000  0.3827020000000  0.7132780000000 1.0
C      1  0.6676990000000  0.3541960000000  0.3294880000000 1.0
C      1  0.2866030000000  0.6297620000000  0.5824560000000 1.0
C      1  0.5563130000000  0.6392150000000  0.2750700000000 1.0
C      1  0.6786110000000  0.6557060000000  0.6712300000000 1.0
C      1  0.5610310000000  0.5964840000000  0.6892010000000 1.0
C      1  0.6358400000000  0.5718540000000  0.3633260000000 1.0
C      1  0.3159740000000  0.5771390000000  0.4640700000000 1.0
C      1  0.5513460000000  0.4197640000000  0.3105660000000 1.0
C      1  0.6292250000000  0.4408390000000  0.6320230000000 1.0
C      1  0.3115490000000  0.4161860000000  0.5369730000000 1.0
C      1  0.4389690000000  0.4035160000000  0.3107990000000 1.0
C      1  0.3641600000000  0.4281460000000  0.6366740000000 1.0
C      1  0.6840260000000  0.4228610000000  0.5359300000000 1.0
C      1  0.4486540000000  0.5802360000000  0.6894340000000 1.0
C      1  0.3707750000000  0.5591610000000  0.3679770000000 1.0
C      1  0.6884510000000  0.5838140000000  0.4630270000000 1.0
C      1  0.4012760000000  0.2700590000000  0.4947020000000 1.0
C      1  0.5446900000000  0.2831490000000  0.5763270000000 1.0
C      1  0.5441940000000  0.2690710000000  0.4115200000000 1.0
C      1  0.4075770000000  0.7233660000000  0.5056570000000 1.0
C      1  0.5513730000000  0.7225960000000  0.4229870000000 1.0
C      1  0.5508160000000  0.7372690000000  0.5885130000000 1.0
C      1  0.5987240000000  0.7299410000000  0.5052980000000 1.0
C      1  0.4553100000000  0.7168510000000  0.4236730000000 1.0
C      1  0.4558060000000  0.7309290000000  0.5884800000000 1.0
C      1  0.5924230000000  0.2766340000000  0.4943430000000 1.0
C      1  0.4486270000000  0.2774040000000  0.5770130000000 1.0
C      1  0.4491840000000  0.2627310000000  0.4114870000000 1.0
END
