TITL C-3036483-1610-174 0.00191936865921163 3375 -350.217950071782 0 0 60 (C1) n - 1
REM
REM in /home/bkarasulu/work/CARBON/AIRSS/Generating-Clusters/REBO/Higher-Symm/Only-C60
REM
REM
REM
REM
REM
REM ./C.cell (a2850807a9bf4ad07a5b6933b78d9264)
REM AIRSS Version 0.9.1 bugfix July 2018 build 013d7b7c2542+ Fri, 06 Jul 2018 19:26:36 +0100
REM compiler GCC version 9.2.1 20190827 (Red Hat 9.2.1-1)
REM options -cpp -mtune=generic -march=x86-64 -g -O0 -fpre-include=/usr/include/finclude/math-vector-fortran.h
REM seed -1840170117 1207930486 -27271687 1533636256 1554908678 -175270623 -563599204 1445367731 -1308136574 -261340312 1582638232 -154280699 -568692317 1978744062 680198370 476095585 1961925187 -769510641 -2078183963 -1246113636 -1451448376 -699729580 1419642780 320180870 1148813554 -1735569682 -28957351 177337815 -333650241 -148165870 873224313 -954657354 614297156
REM
CELL 1.54180   15.00000   15.00000   15.00000   90.00000   90.00000   90.00000
LATT -1
SFAC C  
C      1  0.6001840000000  0.6633640000000  0.6283730000000 1.0
C      1  0.4037400000000  0.3427150000000  0.3714450000000 1.0
C      1  0.4915380000000  0.3963720000000  0.7060050000000 1.0
C      1  0.5078160000000  0.6115850000000  0.2889880000000 1.0
C      1  0.5049010000000  0.3733590000000  0.3270170000000 1.0
C      1  0.4999700000000  0.6311540000000  0.6717550000000 1.0
C      1  0.6632650000000  0.5940610000000  0.6742630000000 1.0
C      1  0.3422440000000  0.4114770000000  0.3247130000000 1.0
C      1  0.3601660000000  0.5213780000000  0.3511590000000 1.0
C      1  0.6417780000000  0.4870730000000  0.6418870000000 1.0
C      1  0.6208870000000  0.2972280000000  0.4464350000000 1.0
C      1  0.3826150000000  0.7000330000000  0.5476370000000 1.0
C      1  0.5069480000000  0.5940940000000  0.5704080000000 1.0
C      1  0.4826830000000  0.3903020000000  0.4348410000000 1.0
C      1  0.7525310000000  0.3622180000000  0.5132460000000 1.0
C      1  0.2478140000000  0.6335370000000  0.4900740000000 1.0
C      1  0.5556160000000  0.3624000000000  0.4920320000000 1.0
C      1  0.4504450000000  0.6358510000000  0.5081780000000 1.0
C      1  0.6070920000000  0.3631730000000  0.3691610000000 1.0
C      1  0.3965370000000  0.6393610000000  0.6298320000000 1.0
C      1  0.3511920000000  0.5558740000000  0.6154950000000 1.0
C      1  0.6528210000000  0.4461640000000  0.3861110000000 1.0
C      1  0.3168490000000  0.6954190000000  0.4738330000000 1.0
C      1  0.6813010000000  0.3018480000000  0.5260670000000 1.0
C      1  0.4859170000000  0.4421280000000  0.2533470000000 1.0
C      1  0.5191940000000  0.5629200000000  0.7461940000000 1.0
C      1  0.2685670000000  0.4719100000000  0.3816510000000 1.0
C      1  0.7472850000000  0.5286150000000  0.6352000000000 1.0
C      1  0.6122590000000  0.5655930000000  0.5382970000000 1.0
C      1  0.3790010000000  0.4207480000000  0.4760590000000 1.0
C      1  0.4471370000000  0.5038240000000  0.4929210000000 1.0
C      1  0.5436570000000  0.4949280000000  0.4904690000000 1.0
C      1  0.6370560000000  0.4611590000000  0.7720680000000 1.0
C      1  0.3667780000000  0.5410420000000  0.2201200000000 1.0
C      1  0.3921880000000  0.4540540000000  0.2409330000000 1.0
C      1  0.6127760000000  0.5492230000000  0.7560930000000 1.0
C      1  0.3728600000000  0.6783160000000  0.3871690000000 1.0
C      1  0.6188290000000  0.3270450000000  0.6039590000000 1.0
C      1  0.5785310000000  0.6037740000000  0.3702020000000 1.0
C      1  0.4237330000000  0.3998480000000  0.6225030000000 1.0
C      1  0.5164300000000  0.3096760000000  0.6359550000000 1.0
C      1  0.4807550000000  0.6900060000000  0.3672320000000 1.0
C      1  0.5336620000000  0.5197240000000  0.2419820000000 1.0
C      1  0.4700660000000  0.4859150000000  0.7571680000000 1.0
C      1  0.2821010000000  0.4576220000000  0.4907690000000 1.0
C      1  0.7037410000000  0.5303930000000  0.5321750000000 1.0
C      1  0.3888020000000  0.3095910000000  0.4797830000000 1.0
C      1  0.6001750000000  0.6743610000000  0.5212640000000 1.0
C      1  0.4124470000000  0.5777310000000  0.4250960000000 1.0
C      1  0.5944670000000  0.4321110000000  0.5661660000000 1.0
C      1  0.7844240000000  0.4535850000000  0.5618330000000 1.0
C      1  0.2136770000000  0.5395720000000  0.4485040000000 1.0
C      1  0.5630880000000  0.6852160000000  0.4346090000000 1.0
C      1  0.4334830000000  0.3098700000000  0.5679210000000 1.0
C      1  0.5923940000000  0.5174600000000  0.4023790000000 1.0
C      1  0.4084480000000  0.4850020000000  0.5888210000000 1.0
C      1  0.3985010000000  0.6130900000000  0.2975590000000 1.0
C      1  0.6005450000000  0.3944540000000  0.6934610000000 1.0
C      1  0.7229120000000  0.4495920000000  0.4549950000000 1.0
C      1  0.2731790000000  0.5498630000000  0.5561860000000 1.0
END
