TITL C-3036481-494-840 -3.62511038664637e-06 3375 -354.163554989452 0 0 60 (C1) n - 1
REM
REM in /home/bkarasulu/work/CARBON/AIRSS/Generating-Clusters/REBO/Higher-Symm/Only-C60
REM
REM
REM
REM
REM
REM ./C.cell (a2850807a9bf4ad07a5b6933b78d9264)
REM AIRSS Version 0.9.1 bugfix July 2018 build 013d7b7c2542+ Fri, 06 Jul 2018 19:26:36 +0100
REM compiler GCC version 9.2.1 20190827 (Red Hat 9.2.1-1)
REM options -cpp -mtune=generic -march=x86-64 -g -O0 -fpre-include=/usr/include/finclude/math-vector-fortran.h
REM seed 548240558 1813531774 -835812163 1272213611 1436028816 -1302985964 17455338 2050023810 -1951407830 366377324 -420976638 904153041 -1638410315 664619468 657924052 -876502911 1262193533 -843099158 -406715127 -553106535 -1321563146 755799470 1364625050 2031757882 1994520130 1447689933 -1191502172 775583810 243678921 -1655235743 324892699 -300722731 967517530
REM
CELL 1.54180   15.00000   15.00000   15.00000   90.00000   90.00000   90.00000
LATT -1
SFAC C  
C      1  0.4048580000000  0.4305860000000  0.7301570000000 1.0
C      1  0.4601630000000  0.7328330000000  0.3622350000000 1.0
C      1  0.7376060000000  0.3599050000000  0.4583810000000 1.0
C      1  0.6146790000000  0.5519200000000  0.7211490000000 1.0
C      1  0.3845700000000  0.5572510000000  0.2714080000000 1.0
C      1  0.6347420000000  0.4521580000000  0.2704950000000 1.0
C      1  0.5443670000000  0.2767050000000  0.3891150000000 1.0
C      1  0.4514370000000  0.2526720000000  0.6117140000000 1.0
C      1  0.5389470000000  0.7441590000000  0.6341130000000 1.0
C      1  0.2763940000000  0.6210110000000  0.4474100000000 1.0
C      1  0.7247330000000  0.6402360000000  0.5405630000000 1.0
C      1  0.2557210000000  0.3815050000000  0.5569440000000 1.0
C      1  0.4689860000000  0.3529460000000  0.7322110000000 1.0
C      1  0.7292860000000  0.4396600000000  0.3978010000000 1.0
C      1  0.3968700000000  0.7248150000000  0.4405050000000 1.0
C      1  0.5523310000000  0.6288610000000  0.7421880000000 1.0
C      1  0.5535270000000  0.3933110000000  0.2808650000000 1.0
C      1  0.4599550000000  0.6197420000000  0.2522970000000 1.0
C      1  0.2574220000000  0.5613380000000  0.3682060000000 1.0
C      1  0.2824100000000  0.4460490000000  0.6284090000000 1.0
C      1  0.7187210000000  0.5597960000000  0.6007710000000 1.0
C      1  0.6203000000000  0.2534140000000  0.4520590000000 1.0
C      1  0.5974530000000  0.7347900000000  0.5527480000000 1.0
C      1  0.3774310000000  0.2799610000000  0.5503160000000 1.0
C      1  0.6420040000000  0.5846500000000  0.4952380000000 1.0
C      1  0.5697380000000  0.4914770000000  0.6401460000000 1.0
C      1  0.4967660000000  0.6547570000000  0.5859460000000 1.0
C      1  0.3366870000000  0.4414990000000  0.5068490000000 1.0
C      1  0.6501220000000  0.4113110000000  0.5006570000000 1.0
C      1  0.3546420000000  0.5734820000000  0.5093720000000 1.0
C      1  0.4378840000000  0.5016530000000  0.6539230000000 1.0
C      1  0.5810040000000  0.5020050000000  0.3519960000000 1.0
C      1  0.4082480000000  0.4956560000000  0.3550480000000 1.0
C      1  0.4929870000000  0.3447080000000  0.5642230000000 1.0
C      1  0.4880450000000  0.3615470000000  0.4322680000000 1.0
C      1  0.4974750000000  0.6429560000000  0.4124910000000 1.0
C      1  0.5632130000000  0.6488370000000  0.4941630000000 1.0
C      1  0.5033130000000  0.5824090000000  0.6560220000000 1.0
C      1  0.6396220000000  0.4943060000000  0.5641320000000 1.0
C      1  0.4066750000000  0.3675690000000  0.4968160000000 1.0
C      1  0.4308810000000  0.6430090000000  0.5044270000000 1.0
C      1  0.5767110000000  0.3418430000000  0.4999160000000 1.0
C      1  0.5034200000000  0.4092240000000  0.6438910000000 1.0
C      1  0.4959650000000  0.5660570000000  0.3440560000000 1.0
C      1  0.4911590000000  0.4340890000000  0.3604730000000 1.0
C      1  0.3583610000000  0.5114170000000  0.5925080000000 1.0
C      1  0.3337220000000  0.5040950000000  0.4219420000000 1.0
C      1  0.6455910000000  0.5015670000000  0.4315340000000 1.0
C      1  0.7231120000000  0.4329500000000  0.3019500000000 1.0
C      1  0.3101820000000  0.4182390000000  0.7163640000000 1.0
C      1  0.3021780000000  0.7121190000000  0.4310610000000 1.0
C      1  0.4559800000000  0.2619310000000  0.7066300000000 1.0
C      1  0.7147730000000  0.2678450000000  0.4452380000000 1.0
C      1  0.4566010000000  0.7138850000000  0.2689500000000 1.0
C      1  0.7056910000000  0.5693070000000  0.6954320000000 1.0
C      1  0.2904270000000  0.5770220000000  0.2791440000000 1.0
C      1  0.5562050000000  0.7231310000000  0.7259910000000 1.0
C      1  0.6935250000000  0.7290790000000  0.5576680000000 1.0
C      1  0.2829950000000  0.2898100000000  0.5644050000000 1.0
C      1  0.5611900000000  0.2989340000000  0.2970720000000 1.0
END
