TITL C-3036486-2224-585 -6.82197436591257e-06 3375 -355.048376039627 0 0 60 (C2) n - 1
REM
REM in /home/bkarasulu/work/CARBON/AIRSS/Generating-Clusters/REBO/Higher-Symm/Only-C60
REM
REM
REM
REM
REM
REM ./C.cell (a2850807a9bf4ad07a5b6933b78d9264)
REM AIRSS Version 0.9.1 bugfix July 2018 build 013d7b7c2542+ Fri, 06 Jul 2018 19:26:36 +0100
REM compiler GCC version 9.2.1 20190827 (Red Hat 9.2.1-1)
REM options -cpp -mtune=generic -march=x86-64 -g -O0 -fpre-include=/usr/include/finclude/math-vector-fortran.h
REM seed -1787436342 179822200 602495840 -1992710602 -1728742547 -177552064 -1964561521 -1980005629 -1639286289 -1047619420 -677442176 1326407321 1565775242 -932473826 2015660904 -463812788 -1315079555 1668062672 -1466299923 104995984 -416240388 381371885 -224740148 -647263343 -1188440695 1117106678 -514364588 772601718 -1360330642 333763145 -1289556339 -703112735 -177624174
REM
CELL 1.54180   15.00000   15.00000   15.00000   90.00000   90.00000   90.00000
LATT -1
SFAC C  
C      1  0.5125660000000  0.4587520000000  0.3992880000000 1.0
C      1  0.5069500000000  0.5464840000000  0.6235070000000 1.0
C      1  0.4875180000000  0.5412370000000  0.3992730000000 1.0
C      1  0.4929460000000  0.4535290000000  0.6235060000000 1.0
C      1  0.5262090000000  0.3828750000000  0.4562850000000 1.0
C      1  0.4922010000000  0.6082980000000  0.5445680000000 1.0
C      1  0.5077610000000  0.3917070000000  0.5445860000000 1.0
C      1  0.4738280000000  0.6171200000000  0.4562500000000 1.0
C      1  0.3377070000000  0.3392260000000  0.5570340000000 1.0
C      1  0.3483580000000  0.6425080000000  0.4152900000000 1.0
C      1  0.6622440000000  0.6607800000000  0.5571560000000 1.0
C      1  0.6517140000000  0.3574830000000  0.4154340000000 1.0
C      1  0.3497710000000  0.5542480000000  0.3428790000000 1.0
C      1  0.3371260000000  0.4122180000000  0.6448460000000 1.0
C      1  0.6627500000000  0.5877970000000  0.6449760000000 1.0
C      1  0.6503640000000  0.4457350000000  0.3430130000000 1.0
C      1  0.5433840000000  0.4812400000000  0.2719070000000 1.0
C      1  0.5429140000000  0.5150870000000  0.7479560000000 1.0
C      1  0.4568100000000  0.5187370000000  0.2718680000000 1.0
C      1  0.4568740000000  0.4849390000000  0.7479200000000 1.0
C      1  0.5319570000000  0.2546040000000  0.4913180000000 1.0
C      1  0.5537440000000  0.7303810000000  0.5233060000000 1.0
C      1  0.4462370000000  0.2696210000000  0.5232840000000 1.0
C      1  0.4680500000000  0.7453950000000  0.4912660000000 1.0
C      1  0.6241670000000  0.5364890000000  0.2913630000000 1.0
C      1  0.6258630000000  0.4919020000000  0.6930590000000 1.0
C      1  0.3760120000000  0.4634900000000  0.2912610000000 1.0
C      1  0.3739720000000  0.5081180000000  0.6929500000000 1.0
C      1  0.6192520000000  0.3045730000000  0.5103340000000 1.0
C      1  0.6348940000000  0.7153770000000  0.4675420000000 1.0
C      1  0.3651340000000  0.2846190000000  0.4674490000000 1.0
C      1  0.3807390000000  0.6954280000000  0.5102120000000 1.0
C      1  0.5650770000000  0.6091460000000  0.6991050000000 1.0
C      1  0.5563530000000  0.3838200000000  0.3265850000000 1.0
C      1  0.4347530000000  0.3908750000000  0.6990600000000 1.0
C      1  0.4437950000000  0.6161630000000  0.3265250000000 1.0
C      1  0.5619030000000  0.6666240000000  0.6092210000000 1.0
C      1  0.5595630000000  0.2949670000000  0.3924290000000 1.0
C      1  0.4405290000000  0.7050210000000  0.3923570000000 1.0
C      1  0.4380040000000  0.3333870000000  0.6091850000000 1.0
C      1  0.3514580000000  0.3130700000000  0.3807220000000 1.0
C      1  0.3592700000000  0.6550210000000  0.5911980000000 1.0
C      1  0.6486440000000  0.6869170000000  0.3808300000000 1.0
C      1  0.6406520000000  0.3449890000000  0.5913340000000 1.0
C      1  0.3559800000000  0.3777570000000  0.3180980000000 1.0
C      1  0.3570800000000  0.5899330000000  0.6526920000000 1.0
C      1  0.6427890000000  0.4100830000000  0.6528240000000 1.0
C      1  0.6441760000000  0.6222250000000  0.3182080000000 1.0
C      1  0.7246390000000  0.4682230000000  0.4148240000000 1.0
C      1  0.7356730000000  0.5142590000000  0.6021770000000 1.0
C      1  0.2754340000000  0.5317680000000  0.4146290000000 1.0
C      1  0.2642390000000  0.4857510000000  0.6019770000000 1.0
C      1  0.7293090000000  0.3974770000000  0.4854440000000 1.0
C      1  0.7315090000000  0.5851650000000  0.5315950000000 1.0
C      1  0.2684650000000  0.4148380000000  0.5314060000000 1.0
C      1  0.2707040000000  0.6025210000000  0.4852370000000 1.0
C      1  0.7477710000000  0.4265270000000  0.5723020000000 1.0
C      1  0.7462420000000  0.5551300000000  0.4436370000000 1.0
C      1  0.2538060000000  0.4448640000000  0.4434320000000 1.0
C      1  0.2521670000000  0.5734800000000  0.5720820000000 1.0
END
