TITL C-3036486-2224-591 0.271010292014563 3375 -329.903589969157 0 0 60 (Cs) n - 1
REM
REM in /home/bkarasulu/work/CARBON/AIRSS/Generating-Clusters/REBO/Higher-Symm/Only-C60
REM
REM
REM
REM
REM
REM ./C.cell (a2850807a9bf4ad07a5b6933b78d9264)
REM AIRSS Version 0.9.1 bugfix July 2018 build 013d7b7c2542+ Fri, 06 Jul 2018 19:26:36 +0100
REM compiler GCC version 9.2.1 20190827 (Red Hat 9.2.1-1)
REM options -cpp -mtune=generic -march=x86-64 -g -O0 -fpre-include=/usr/include/finclude/math-vector-fortran.h
REM seed -536339125 -815835559 2098740845 1337421708 -489283234 1835905119 373417903 -1473302480 -1552431231 -120866038 -877720836 2006192059 -306970980 736112052 1819423125 -708167120 458531741 588074488 -115699541 -1723984906 -1808049095 75733554 1631648102 -1509321141 1456423168 309943040 -43727966 65271026 2120606885 -1616027592 1191450426 33687554 -48901538
REM
CELL 1.54180   15.00000   15.00000   15.00000   90.00000   90.00000   90.00000
LATT -1
SFAC C  
C      1  0.4710520000000  0.2727700000000  0.4434660000000 1.0
C      1  0.7118940000000  0.5976880000000  0.4421780000000 1.0
C      1  0.3193390000000  0.6330100000000  0.4462470000000 1.0
C      1  0.4710520000000  0.2727700000000  0.5545410000000 1.0
C      1  0.7118940000000  0.5976880000000  0.5558290000000 1.0
C      1  0.3193390000000  0.6330100000000  0.5517600000000 1.0
C      1  0.4710870000000  0.7260050000000  0.4439890000000 1.0
C      1  0.7116930000000  0.4021260000000  0.4421820000000 1.0
C      1  0.3196340000000  0.3685820000000  0.4460470000000 1.0
C      1  0.4710870000000  0.7260050000000  0.5540180000000 1.0
C      1  0.7116930000000  0.4021260000000  0.5558250000000 1.0
C      1  0.3196340000000  0.3685820000000  0.5519600000000 1.0
C      1  0.5066440000000  0.6009940000000  0.5789970000000 1.0
C      1  0.4197330000000  0.4501920000000  0.5813970000000 1.0
C      1  0.5888470000000  0.4492410000000  0.5691310000000 1.0
C      1  0.5066440000000  0.6009940000000  0.4190090000000 1.0
C      1  0.4197330000000  0.4501920000000  0.4166100000000 1.0
C      1  0.5888470000000  0.4492410000000  0.4288750000000 1.0
C      1  0.5091780000000  0.3973290000000  0.5782880000000 1.0
C      1  0.4165280000000  0.5477800000000  0.5813640000000 1.0
C      1  0.5882300000000  0.5521310000000  0.5686330000000 1.0
C      1  0.5091780000000  0.3973290000000  0.4197190000000 1.0
C      1  0.4165280000000  0.5477800000000  0.4166430000000 1.0
C      1  0.5882300000000  0.5521310000000  0.4293740000000 1.0
C      1  0.5313860000000  0.6824230000000  0.3578010000000 1.0
C      1  0.3282450000000  0.4435940000000  0.3610970000000 1.0
C      1  0.6319990000000  0.3751390000000  0.3651020000000 1.0
C      1  0.5313860000000  0.6824230000000  0.6402050000000 1.0
C      1  0.3282450000000  0.4435940000000  0.6369090000000 1.0
C      1  0.6319990000000  0.3751390000000  0.6329050000000 1.0
C      1  0.5319640000000  0.3162740000000  0.3577100000000 1.0
C      1  0.3267420000000  0.5593770000000  0.3601690000000 1.0
C      1  0.6324750000000  0.6251330000000  0.3651070000000 1.0
C      1  0.5319640000000  0.3162740000000  0.6402970000000 1.0
C      1  0.3267420000000  0.5593770000000  0.6378380000000 1.0
C      1  0.6324750000000  0.6251330000000  0.6328990000000 1.0
C      1  0.4947410000000  0.3993560000000  0.7102230000000 1.0
C      1  0.5817900000000  0.5483280000000  0.7012410000000 1.0
C      1  0.4118750000000  0.5511760000000  0.7139490000000 1.0
C      1  0.4947410000000  0.3993560000000  0.2877840000000 1.0
C      1  0.5817900000000  0.5483280000000  0.2967660000000 1.0
C      1  0.4118750000000  0.5511760000000  0.2840570000000 1.0
C      1  0.4936160000000  0.6002670000000  0.7110300000000 1.0
C      1  0.5822910000000  0.4523970000000  0.7016840000000 1.0
C      1  0.4129980000000  0.4481260000000  0.7139200000000 1.0
C      1  0.4936160000000  0.6002670000000  0.2869760000000 1.0
C      1  0.5822910000000  0.4523970000000  0.2963220000000 1.0
C      1  0.4129980000000  0.4481260000000  0.2840870000000 1.0
C      1  0.3683390000000  0.7225390000000  0.4324520000000 1.0
C      1  0.3681090000000  0.2783640000000  0.5655520000000 1.0
C      1  0.3681090000000  0.2783640000000  0.4324540000000 1.0
C      1  0.7604770000000  0.4998060000000  0.4323930000000 1.0
C      1  0.3683390000000  0.7225390000000  0.5655540000000 1.0
C      1  0.7604770000000  0.4998060000000  0.5656130000000 1.0
C      1  0.8410880000000  0.4998100000000  0.4990030000000 1.0
C      1  0.3264400000000  0.7919380000000  0.4990030000000 1.0
C      1  0.3255840000000  0.2092780000000  0.4990030000000 1.0
C      1  0.6464890000000  0.5001780000000  0.4990030000000 1.0
C      1  0.4388570000000  0.6093820000000  0.4990030000000 1.0
C      1  0.4397320000000  0.3891170000000  0.4990030000000 1.0
END
