TITL C-3036481-494-692 0.0154090930205821 3375 -350.627508695665 0 0 60 (C1) n - 1
REM
REM in /home/bkarasulu/work/CARBON/AIRSS/Generating-Clusters/REBO/Higher-Symm/Only-C60
REM
REM
REM
REM
REM
REM ./C.cell (a2850807a9bf4ad07a5b6933b78d9264)
REM AIRSS Version 0.9.1 bugfix July 2018 build 013d7b7c2542+ Fri, 06 Jul 2018 19:26:36 +0100
REM compiler GCC version 9.2.1 20190827 (Red Hat 9.2.1-1)
REM options -cpp -mtune=generic -march=x86-64 -g -O0 -fpre-include=/usr/include/finclude/math-vector-fortran.h
REM seed -851847791 -2131226649 1826706274 -1273416449 -1398085912 -326709931 -2014790025 -503848195 -1266792177 788704608 -1089745589 -1957919320 165418846 -2014423802 -1712956353 -864121054 -781372751 -1825912591 1638513524 -2137439554 306719937 598245000 -1422937196 -2145721592 -1005722706 3554639 -55424195 2097144931 -1987958177 -64469844 1062332540 379521176 -1178615799
REM
CELL 1.54180   15.00000   15.00000   15.00000   90.00000   90.00000   90.00000
LATT -1
SFAC C  
C      1  0.6328380000000  0.6787950000000  0.3603220000000 1.0
C      1  0.5530280000000  0.6746440000000  0.6795760000000 1.0
C      1  0.3170510000000  0.6761710000000  0.4476560000000 1.0
C      1  0.3067400000000  0.6179450000000  0.3717270000000 1.0
C      1  0.7099770000000  0.6289790000000  0.3877230000000 1.0
C      1  0.4912720000000  0.6203890000000  0.7290180000000 1.0
C      1  0.3598180000000  0.4243050000000  0.6731670000000 1.0
C      1  0.4300680000000  0.4256640000000  0.2968710000000 1.0
C      1  0.7269400000000  0.4100470000000  0.5373680000000 1.0
C      1  0.5316640000000  0.6760500000000  0.5899190000000 1.0
C      1  0.4050070000000  0.6782640000000  0.4758820000000 1.0
C      1  0.5657470000000  0.6736470000000  0.4229490000000 1.0
C      1  0.5886890000000  0.4661460000000  0.7108090000000 1.0
C      1  0.2665680000000  0.4637150000000  0.4687340000000 1.0
C      1  0.6517840000000  0.4717450000000  0.3094110000000 1.0
C      1  0.2837610000000  0.4360240000000  0.3516960000000 1.0
C      1  0.7175910000000  0.4592420000000  0.4024600000000 1.0
C      1  0.4848150000000  0.4378240000000  0.7669230000000 1.0
C      1  0.3764540000000  0.5595740000000  0.5269770000000 1.0
C      1  0.5356220000000  0.5483000000000  0.3924970000000 1.0
C      1  0.5814110000000  0.5532900000000  0.5864730000000 1.0
C      1  0.4257960000000  0.5777650000000  0.2476490000000 1.0
C      1  0.7577810000000  0.5727370000000  0.5426020000000 1.0
C      1  0.3250440000000  0.5797690000000  0.6952660000000 1.0
C      1  0.7289130000000  0.4981370000000  0.5932710000000 1.0
C      1  0.2982220000000  0.5008750000000  0.6481480000000 1.0
C      1  0.4824060000000  0.5008920000000  0.2545340000000 1.0
C      1  0.4115420000000  0.4938050000000  0.4673490000000 1.0
C      1  0.5574600000000  0.4851600000000  0.4588490000000 1.0
C      1  0.5116320000000  0.4880490000000  0.5923980000000 1.0
C      1  0.3835240000000  0.3384060000000  0.6089680000000 1.0
C      1  0.4778770000000  0.3546990000000  0.3663500000000 1.0
C      1  0.6418620000000  0.3388270000000  0.5383130000000 1.0
C      1  0.5606760000000  0.5171330000000  0.3056250000000 1.0
C      1  0.6504990000000  0.5141500000000  0.6434600000000 1.0
C      1  0.2943130000000  0.5147500000000  0.5542290000000 1.0
C      1  0.4473080000000  0.3545270000000  0.6989970000000 1.0
C      1  0.3642380000000  0.3553040000000  0.3582430000000 1.0
C      1  0.6951200000000  0.3559660000000  0.4412810000000 1.0
C      1  0.3211910000000  0.3679530000000  0.4587230000000 1.0
C      1  0.6448850000000  0.3654400000000  0.3443880000000 1.0
C      1  0.5459220000000  0.3776840000000  0.6658060000000 1.0
C      1  0.2600710000000  0.5375740000000  0.3843210000000 1.0
C      1  0.7292220000000  0.5480810000000  0.3423290000000 1.0
C      1  0.5241000000000  0.5402030000000  0.7647680000000 1.0
C      1  0.3823210000000  0.4853500000000  0.3773790000000 1.0
C      1  0.6468250000000  0.4718920000000  0.4850060000000 1.0
C      1  0.4540360000000  0.4829130000000  0.6673180000000 1.0
C      1  0.3938560000000  0.6179490000000  0.3271430000000 1.0
C      1  0.7033270000000  0.6229050000000  0.4847670000000 1.0
C      1  0.4077510000000  0.6225390000000  0.6785050000000 1.0
C      1  0.4991540000000  0.3944670000000  0.4558090000000 1.0
C      1  0.5435860000000  0.3923280000000  0.5525120000000 1.0
C      1  0.4135200000000  0.3959230000000  0.5179480000000 1.0
C      1  0.4689620000000  0.6379590000000  0.4010720000000 1.0
C      1  0.6012160000000  0.6390400000000  0.5175880000000 1.0
C      1  0.4302530000000  0.6452090000000  0.5740260000000 1.0
C      1  0.6127670000000  0.3097890000000  0.6301550000000 1.0
C      1  0.3199780000000  0.3042030000000  0.5384210000000 1.0
C      1  0.5660010000000  0.3188900000000  0.3283290000000 1.0
END
