TITL C-3036486-2224-967 -1.05624688780853e-06 3375 -372.633445647456 0 0 60 (C5) n - 1
REM
REM in /home/bkarasulu/work/CARBON/AIRSS/Generating-Clusters/REBO/Higher-Symm/Only-C60
REM
REM
REM
REM
REM
REM ./C.cell (a2850807a9bf4ad07a5b6933b78d9264)
REM AIRSS Version 0.9.1 bugfix July 2018 build 013d7b7c2542+ Fri, 06 Jul 2018 19:26:36 +0100
REM compiler GCC version 9.2.1 20190827 (Red Hat 9.2.1-1)
REM options -cpp -mtune=generic -march=x86-64 -g -O0 -fpre-include=/usr/include/finclude/math-vector-fortran.h
REM seed 246629716 -1194997604 -388658818 869157783 -1212925097 1319941071 -808454195 340223452 958767149 1075316982 -1635037337 261756685 706107161 -1677513923 525214542 -399034178 1544690506 558010878 -1628618152 934522116 1586145846 512632479 1803319033 -1946692195 36092225 1008692927 -954835692 283661668 -16164564 -489792270 2016717282 -605083142 -1562518481
REM
CELL 1.54180   15.00000   15.00000   15.00000   90.00000   90.00000   90.00000
LATT -1
SFAC C  
C      1  0.6189200000000  0.4630430000000  0.3558980000000 1.0
C      1  0.6189860000000  0.6255780000000  0.4203390000000 1.0
C      1  0.6190210000000  0.6145160000000  0.5948320000000 1.0
C      1  0.6189770000000  0.4451460000000  0.6382330000000 1.0
C      1  0.6189150000000  0.3515300000000  0.4905640000000 1.0
C      1  0.3180270000000  0.4964130000000  0.3454160000000 1.0
C      1  0.3180970000000  0.6459870000000  0.4487930000000 1.0
C      1  0.3181190000000  0.5938910000000  0.6229920000000 1.0
C      1  0.3180630000000  0.4121200000000  0.6272760000000 1.0
C      1  0.3180060000000  0.3518750000000  0.4557250000000 1.0
C      1  0.5232440000000  0.4889410000000  0.2529350000000 1.0
C      1  0.5233560000000  0.7315450000000  0.4131390000000 1.0
C      1  0.5233940000000  0.6541520000000  0.6933740000000 1.0
C      1  0.5233050000000  0.3637160000000  0.7063660000000 1.0
C      1  0.5232130000000  0.2616100000000  0.4341600000000 1.0
C      1  0.6053680000000  0.5356070000000  0.2810070000000 1.0
C      1  0.6054670000000  0.7192330000000  0.4662070000000 1.0
C      1  0.6054810000000  0.5998410000000  0.6980750000000 1.0
C      1  0.6053910000000  0.3424260000000  0.6561780000000 1.0
C      1  0.6053210000000  0.3027280000000  0.3984160000000 1.0
C      1  0.4436600000000  0.2867580000000  0.3892510000000 1.0
C      1  0.4437110000000  0.5394570000000  0.2629630000000 1.0
C      1  0.4438180000000  0.7376520000000  0.4642700000000 1.0
C      1  0.4438330000000  0.6074450000000  0.7149720000000 1.0
C      1  0.4437350000000  0.3287760000000  0.6686070000000 1.0
C      1  0.4454770000000  0.6706170000000  0.5451270000000 1.0
C      1  0.4454550000000  0.5098290000000  0.6762040000000 1.0
C      1  0.4453750000000  0.3354810000000  0.5637900000000 1.0
C      1  0.4453480000000  0.3885170000000  0.3632370000000 1.0
C      1  0.4454100000000  0.5956420000000  0.3517030000000 1.0
C      1  0.5236680000000  0.4910860000000  0.5960610000000 1.0
C      1  0.5236240000000  0.4058770000000  0.5212100000000 1.0
C      1  0.5236150000000  0.4507320000000  0.4170410000000 1.0
C      1  0.5236530000000  0.5636640000000  0.4275110000000 1.0
C      1  0.5236860000000  0.5886040000000  0.5381510000000 1.0
C      1  0.3556460000000  0.3545230000000  0.6967380000000 1.0
C      1  0.3555580000000  0.2679980000000  0.4224180000000 1.0
C      1  0.3555950000000  0.5021540000000  0.2553570000000 1.0
C      1  0.3557050000000  0.7333960000000  0.4264290000000 1.0
C      1  0.3557380000000  0.6421560000000  0.6992180000000 1.0
C      1  0.6935980000000  0.4801970000000  0.4209680000000 1.0
C      1  0.6936340000000  0.5689620000000  0.4567730000000 1.0
C      1  0.6936530000000  0.5623390000000  0.5522560000000 1.0
C      1  0.6936290000000  0.4694820000000  0.5754640000000 1.0
C      1  0.6935950000000  0.4187160000000  0.4943240000000 1.0
C      1  0.3475380000000  0.5799470000000  0.3872390000000 1.0
C      1  0.3475880000000  0.6320120000000  0.5411670000000 1.0
C      1  0.3475690000000  0.5017070000000  0.6382510000000 1.0
C      1  0.3475060000000  0.3691090000000  0.5443230000000 1.0
C      1  0.3474870000000  0.4174640000000  0.3891890000000 1.0
C      1  0.5198850000000  0.6683720000000  0.3421710000000 1.0
C      1  0.5199560000000  0.7021250000000  0.6113630000000 1.0
C      1  0.5199040000000  0.4565400000000  0.7266490000000 1.0
C      1  0.5198020000000  0.2710060000000  0.5287080000000 1.0
C      1  0.5197910000000  0.4019260000000  0.2910880000000 1.0
C      1  0.6046930000000  0.3607340000000  0.3250490000000 1.0
C      1  0.6047730000000  0.6233080000000  0.3135030000000 1.0
C      1  0.6048570000000  0.7154290000000  0.5596570000000 1.0
C      1  0.6048280000000  0.5097890000000  0.7233350000000 1.0
C      1  0.6047270000000  0.2905760000000  0.5783400000000 1.0
END
