TITL C-3036485-3770-1096 0.0388419939343313 3375 -362.768426177466 0 0 60 (C1) n - 1
REM
REM in /home/bkarasulu/work/CARBON/AIRSS/Generating-Clusters/REBO/Higher-Symm/Only-C60
REM
REM
REM
REM
REM
REM ./C.cell (a2850807a9bf4ad07a5b6933b78d9264)
REM AIRSS Version 0.9.1 bugfix July 2018 build 013d7b7c2542+ Fri, 06 Jul 2018 19:26:36 +0100
REM compiler GCC version 9.2.1 20190827 (Red Hat 9.2.1-1)
REM options -cpp -mtune=generic -march=x86-64 -g -O0 -fpre-include=/usr/include/finclude/math-vector-fortran.h
REM seed 2115501935 1158932688 1305973309 420153455 1882251923 161538260 756850128 2085143105 -563526620 -711727085 1252515319 384960662 -2086836390 -1049886316 191197004 -278295856 -765003233 889219764 1473252116 -526784232 933307411 -78787632 -1305349516 -1542075967 1666792792 541393703 1779080389 -678995948 -1590838997 -237375475 -803574605 674945174 776164762
REM
CELL 1.54180   15.00000   15.00000   15.00000   90.00000   90.00000   90.00000
LATT -1
SFAC C  
C      1  0.6815870000000  0.5904760000000  0.4607160000000 1.0
C      1  0.6822350000000  0.4886310000000  0.5959330000000 1.0
C      1  0.6822270000000  0.4217730000000  0.4400490000000 1.0
C      1  0.4596870000000  0.4995020000000  0.3896400000000 1.0
C      1  0.4505500000000  0.5915750000000  0.5493950000000 1.0
C      1  0.4491080000000  0.4134760000000  0.5539120000000 1.0
C      1  0.6866490000000  0.5076860000000  0.4069410000000 1.0
C      1  0.6857100000000  0.5762510000000  0.5516740000000 1.0
C      1  0.6847860000000  0.4166850000000  0.5377770000000 1.0
C      1  0.3841860000000  0.5350190000000  0.2861200000000 1.0
C      1  0.3851090000000  0.6676500000000  0.6366770000000 1.0
C      1  0.3848930000000  0.2990140000000  0.5767390000000 1.0
C      1  0.3874260000000  0.5029200000000  0.6870570000000 1.0
C      1  0.3876140000000  0.3357100000000  0.4090320000000 1.0
C      1  0.3874490000000  0.6607590000000  0.4035130000000 1.0
C      1  0.5409310000000  0.6883240000000  0.4355410000000 1.0
C      1  0.5418460000000  0.4613890000000  0.6921720000000 1.0
C      1  0.5409240000000  0.3462720000000  0.3664910000000 1.0
C      1  0.5048240000000  0.4246750000000  0.3260330000000 1.0
C      1  0.5056450000000  0.6789950000000  0.5237720000000 1.0
C      1  0.5073740000000  0.3898890000000  0.6380530000000 1.0
C      1  0.6434660000000  0.5894920000000  0.7184780000000 1.0
C      1  0.6408150000000  0.2702170000000  0.4724370000000 1.0
C      1  0.6423130000000  0.6447880000000  0.3126340000000 1.0
C      1  0.4922140000000  0.6614420000000  0.2763750000000 1.0
C      1  0.4931100000000  0.6121900000000  0.7504470000000 1.0
C      1  0.4925880000000  0.2252610000000  0.4738030000000 1.0
C      1  0.5391280000000  0.5076030000000  0.2829440000000 1.0
C      1  0.5409200000000  0.6868230000000  0.6152940000000 1.0
C      1  0.5396710000000  0.2998660000000  0.6101060000000 1.0
C      1  0.4694330000000  0.5683780000000  0.2575730000000 1.0
C      1  0.4702880000000  0.6762100000000  0.6803370000000 1.0
C      1  0.4680720000000  0.2530260000000  0.5641290000000 1.0
C      1  0.2838640000000  0.4153350000000  0.5073170000000 1.0
C      1  0.2895950000000  0.5312990000000  0.4258850000000 1.0
C      1  0.2837500000000  0.5497890000000  0.5693840000000 1.0
C      1  0.3543830000000  0.7078120000000  0.4770400000000 1.0
C      1  0.3538770000000  0.4160640000000  0.6918800000000 1.0
C      1  0.3553240000000  0.3763610000000  0.3313430000000 1.0
C      1  0.3566620000000  0.7239300000000  0.5664250000000 1.0
C      1  0.3558690000000  0.3309790000000  0.6604460000000 1.0
C      1  0.3559360000000  0.4458950000000  0.2728180000000 1.0
C      1  0.3645360000000  0.5666090000000  0.6126790000000 1.0
C      1  0.3648750000000  0.3695990000000  0.5009050000000 1.0
C      1  0.3674360000000  0.5636040000000  0.3862810000000 1.0
C      1  0.5816210000000  0.6846310000000  0.2529280000000 1.0
C      1  0.5823350000000  0.6204900000000  0.7827830000000 1.0
C      1  0.5830270000000  0.1964420000000  0.4666500000000 1.0
C      1  0.4722040000000  0.5204350000000  0.7259510000000 1.0
C      1  0.4710650000000  0.2904990000000  0.4051810000000 1.0
C      1  0.4713780000000  0.6872180000000  0.3677150000000 1.0
C      1  0.6130560000000  0.5461000000000  0.3432490000000 1.0
C      1  0.6157910000000  0.6150530000000  0.6188880000000 1.0
C      1  0.6111940000000  0.3430980000000  0.5462560000000 1.0
C      1  0.5542230000000  0.4396520000000  0.5237720000000 1.0
C      1  0.5575500000000  0.5152330000000  0.4383260000000 1.0
C      1  0.5548530000000  0.5514000000000  0.5463020000000 1.0
C      1  0.6316310000000  0.4970080000000  0.6789660000000 1.0
C      1  0.6304750000000  0.3453630000000  0.4065330000000 1.0
C      1  0.6307120000000  0.6581330000000  0.4123070000000 1.0
END
