TITL C-3036484-3770-1096 8.798118472848e-05 3375 -352.775119924735 0 0 60 (C1) n - 1
REM
REM in /home/bkarasulu/work/CARBON/AIRSS/Generating-Clusters/REBO/Higher-Symm/Only-C60
REM
REM
REM
REM
REM
REM ./C.cell (a2850807a9bf4ad07a5b6933b78d9264)
REM AIRSS Version 0.9.1 bugfix July 2018 build 013d7b7c2542+ Fri, 06 Jul 2018 19:26:36 +0100
REM compiler GCC version 9.2.1 20190827 (Red Hat 9.2.1-1)
REM options -cpp -mtune=generic -march=x86-64 -g -O0 -fpre-include=/usr/include/finclude/math-vector-fortran.h
REM seed -1192300952 -323557314 1283280382 399940236 -1073854366 2131710664 -1465283008 2056250392 1065325286 -1892481244 -1680267936 -1538070752 -2137747365 -220869366 2019026139 333695433 -1149580522 -1093758861 -1042543623 -2030062372 -740975667 -1103343677 -674904689 389422942 215886250 -506313666 501954610 -58128936 1224569623 1405839751 71527919 845352514 -253891428
REM
CELL 1.54180   15.00000   15.00000   15.00000   90.00000   90.00000   90.00000
LATT -1
SFAC C  
C      1  0.4495910000000  0.3968980000000  0.4174790000000 1.0
C      1  0.5450570000000  0.3963310000000  0.4125200000000 1.0
C      1  0.4071160000000  0.3084260000000  0.4644100000000 1.0
C      1  0.5891320000000  0.3034730000000  0.4466110000000 1.0
C      1  0.5461210000000  0.5131840000000  0.6763090000000 1.0
C      1  0.4507830000000  0.5142880000000  0.6770970000000 1.0
C      1  0.5472950000000  0.3918890000000  0.2795080000000 1.0
C      1  0.4424510000000  0.3790150000000  0.2859260000000 1.0
C      1  0.4577760000000  0.4710320000000  0.2209810000000 1.0
C      1  0.5611700000000  0.4836410000000  0.2136070000000 1.0
C      1  0.6894470000000  0.6177560000000  0.6174270000000 1.0
C      1  0.3088950000000  0.6198760000000  0.6168900000000 1.0
C      1  0.3042020000000  0.4338730000000  0.3678710000000 1.0
C      1  0.6983070000000  0.4342450000000  0.3665300000000 1.0
C      1  0.7180010000000  0.6907960000000  0.5369890000000 1.0
C      1  0.2817720000000  0.6916130000000  0.5348980000000 1.0
C      1  0.4172700000000  0.4844210000000  0.4456830000000 1.0
C      1  0.5808960000000  0.4818040000000  0.4448890000000 1.0
C      1  0.2706660000000  0.5273810000000  0.5919320000000 1.0
C      1  0.7274450000000  0.5255770000000  0.5916910000000 1.0
C      1  0.7673440000000  0.6190630000000  0.4636180000000 1.0
C      1  0.2319490000000  0.6194280000000  0.4622490000000 1.0
C      1  0.7175620000000  0.3875940000000  0.5325850000000 1.0
C      1  0.2860220000000  0.3880090000000  0.5314600000000 1.0
C      1  0.3939690000000  0.4785720000000  0.3148960000000 1.0
C      1  0.6101030000000  0.4812320000000  0.3152260000000 1.0
C      1  0.5478540000000  0.5079470000000  0.5436840000000 1.0
C      1  0.4524280000000  0.5081990000000  0.5444340000000 1.0
C      1  0.5881180000000  0.5893250000000  0.6094000000000 1.0
C      1  0.4099680000000  0.5898130000000  0.6090300000000 1.0
C      1  0.5545150000000  0.5579730000000  0.3769950000000 1.0
C      1  0.4478830000000  0.5576340000000  0.3756340000000 1.0
C      1  0.7689240000000  0.5290330000000  0.4916120000000 1.0
C      1  0.2297340000000  0.5295450000000  0.4910650000000 1.0
C      1  0.3547400000000  0.3365650000000  0.6013630000000 1.0
C      1  0.6497750000000  0.3325070000000  0.6019470000000 1.0
C      1  0.3982740000000  0.4338840000000  0.6809050000000 1.0
C      1  0.5963180000000  0.4309980000000  0.6733060000000 1.0
C      1  0.4528480000000  0.2963410000000  0.5593800000000 1.0
C      1  0.5644720000000  0.2908390000000  0.5434730000000 1.0
C      1  0.6507580000000  0.4779310000000  0.5257350000000 1.0
C      1  0.3486090000000  0.4816550000000  0.5270710000000 1.0
C      1  0.3708510000000  0.3442750000000  0.3625020000000 1.0
C      1  0.6242040000000  0.3534990000000  0.3505130000000 1.0
C      1  0.3687290000000  0.7161410000000  0.6034030000000 1.0
C      1  0.6309890000000  0.7151420000000  0.6054200000000 1.0
C      1  0.5452560000000  0.7364300000000  0.6135300000000 1.0
C      1  0.4544590000000  0.7368230000000  0.6127150000000 1.0
C      1  0.3230920000000  0.6648320000000  0.4353010000000 1.0
C      1  0.6768630000000  0.6659770000000  0.4368790000000 1.0
C      1  0.4464380000000  0.3405880000000  0.6645470000000 1.0
C      1  0.5455370000000  0.3408030000000  0.6441500000000 1.0
C      1  0.2504640000000  0.4458940000000  0.4455760000000 1.0
C      1  0.7506370000000  0.4452850000000  0.4449370000000 1.0
C      1  0.4535370000000  0.6392040000000  0.5219090000000 1.0
C      1  0.5455300000000  0.6391780000000  0.5223260000000 1.0
C      1  0.5899390000000  0.6346430000000  0.4378450000000 1.0
C      1  0.4099390000000  0.6335130000000  0.4372020000000 1.0
C      1  0.6991060000000  0.4285630000000  0.6387710000000 1.0
C      1  0.2988690000000  0.4296060000000  0.6381590000000 1.0
END
