TITL C-3036486-2224-582 -2.74480094583876e-06 3375 -343.684795400751 0 0 60 (C1) n - 1
REM
REM in /home/bkarasulu/work/CARBON/AIRSS/Generating-Clusters/REBO/Higher-Symm/Only-C60
REM
REM
REM
REM
REM
REM ./C.cell (a2850807a9bf4ad07a5b6933b78d9264)
REM AIRSS Version 0.9.1 bugfix July 2018 build 013d7b7c2542+ Fri, 06 Jul 2018 19:26:36 +0100
REM compiler GCC version 9.2.1 20190827 (Red Hat 9.2.1-1)
REM options -cpp -mtune=generic -march=x86-64 -g -O0 -fpre-include=/usr/include/finclude/math-vector-fortran.h
REM seed 1908407227 767764115 1251026326 -772342115 -1895166129 -1890443732 -1182401580 657112196 -1425361519 -467158243 -551234149 -1278556766 43313927 -354143397 -1557817724 -1326735584 1702198936 545248638 -696824537 -234710117 -805523399 -2108173779 1978034227 2111025153 -318477131 -180609052 578966184 -1009180644 -710885735 -384738039 -1280101477 -610380299 -826090262
REM
CELL 1.54180   15.00000   15.00000   15.00000   90.00000   90.00000   90.00000
LATT -1
SFAC C  
C      1  0.3777910000000  0.2993230000000  0.4809500000000 1.0
C      1  0.2791090000000  0.5524450000000  0.4786870000000 1.0
C      1  0.4847420000000  0.7299760000000  0.4812390000000 1.0
C      1  0.7144000000000  0.5862110000000  0.4869630000000 1.0
C      1  0.6453590000000  0.3252880000000  0.4825780000000 1.0
C      1  0.3229710000000  0.4695520000000  0.6400320000000 1.0
C      1  0.4186050000000  0.6623710000000  0.6428880000000 1.0
C      1  0.6327450000000  0.6356830000000  0.6489610000000 1.0
C      1  0.6728710000000  0.4193490000000  0.6466330000000 1.0
C      1  0.4764500000000  0.3176460000000  0.6402080000000 1.0
C      1  0.4189990000000  0.5330600000000  0.4010320000000 1.0
C      1  0.5121690000000  0.5812520000000  0.4092710000000 1.0
C      1  0.5862240000000  0.5057340000000  0.4011940000000 1.0
C      1  0.5390480000000  0.4150100000000  0.3913260000000 1.0
C      1  0.4365840000000  0.4292980000000  0.3975520000000 1.0
C      1  0.3674830000000  0.3790750000000  0.5539990000000 1.0
C      1  0.3334240000000  0.6010150000000  0.5621530000000 1.0
C      1  0.5448570000000  0.6874650000000  0.5646880000000 1.0
C      1  0.6692570000000  0.5134230000000  0.5535630000000 1.0
C      1  0.5596080000000  0.3508210000000  0.5424870000000 1.0
C      1  0.4704010000000  0.2770400000000  0.4193790000000 1.0
C      1  0.2858190000000  0.4563400000000  0.4201880000000 1.0
C      1  0.3976480000000  0.6883580000000  0.4236330000000 1.0
C      1  0.6523180000000  0.6563830000000  0.4268760000000 1.0
C      1  0.6987640000000  0.4031140000000  0.4219820000000 1.0
C      1  0.4792120000000  0.4116710000000  0.7058640000000 1.0
C      1  0.4132710000000  0.4954880000000  0.7050160000000 1.0
C      1  0.4717500000000  0.5839610000000  0.7061230000000 1.0
C      1  0.5735760000000  0.5566950000000  0.7066320000000 1.0
C      1  0.5794540000000  0.4504550000000  0.7054490000000 1.0
C      1  0.4762630000000  0.2837700000000  0.5335350000000 1.0
C      1  0.2925030000000  0.4569330000000  0.5342140000000 1.0
C      1  0.3972750000000  0.6881430000000  0.5378290000000 1.0
C      1  0.6494290000000  0.6623090000000  0.5410320000000 1.0
C      1  0.6972660000000  0.4110590000000  0.5360780000000 1.0
C      1  0.3677930000000  0.5631230000000  0.3117250000000 1.0
C      1  0.5250340000000  0.6421400000000  0.3199570000000 1.0
C      1  0.6494380000000  0.5212550000000  0.3158560000000 1.0
C      1  0.5700200000000  0.3598310000000  0.3068410000000 1.0
C      1  0.3918120000000  0.3865250000000  0.3095580000000 1.0
C      1  0.3458700000000  0.5774160000000  0.6645370000000 1.0
C      1  0.5281010000000  0.6755910000000  0.6691000000000 1.0
C      1  0.6720580000000  0.5323460000000  0.6574060000000 1.0
C      1  0.5827760000000  0.3567910000000  0.6441080000000 1.0
C      1  0.3828020000000  0.3748550000000  0.6589970000000 1.0
C      1  0.5784050000000  0.7345830000000  0.4449810000000 1.0
C      1  0.7481830000000  0.4989070000000  0.4476250000000 1.0
C      1  0.5764890000000  0.2610510000000  0.4458690000000 1.0
C      1  0.2990060000000  0.3500670000000  0.4437580000000 1.0
C      1  0.3008010000000  0.6422630000000  0.4400120000000 1.0
C      1  0.4128360000000  0.5595320000000  0.5068350000000 1.0
C      1  0.5091380000000  0.6039210000000  0.5167440000000 1.0
C      1  0.5790860000000  0.5249350000000  0.5095220000000 1.0
C      1  0.5261460000000  0.4341560000000  0.4960940000000 1.0
C      1  0.4227300000000  0.4527340000000  0.5065500000000 1.0
C      1  0.4248100000000  0.6475840000000  0.3334770000000 1.0
C      1  0.6221140000000  0.6170730000000  0.3373770000000 1.0
C      1  0.6563300000000  0.4183280000000  0.3290550000000 1.0
C      1  0.4709800000000  0.3217820000000  0.3259680000000 1.0
C      1  0.3295980000000  0.4674960000000  0.3278090000000 1.0
END
