TITL C-3036482-790-444 3.81265344274841e-06 3375 -340.803843928558 0 0 60 (C5) n - 1
REM
REM in /home/bkarasulu/work/CARBON/AIRSS/Generating-Clusters/REBO/Higher-Symm/Only-C60
REM
REM
REM
REM
REM
REM ./C.cell (a2850807a9bf4ad07a5b6933b78d9264)
REM AIRSS Version 0.9.1 bugfix July 2018 build 013d7b7c2542+ Fri, 06 Jul 2018 19:26:36 +0100
REM compiler GCC version 9.2.1 20190827 (Red Hat 9.2.1-1)
REM options -cpp -mtune=generic -march=x86-64 -g -O0 -fpre-include=/usr/include/finclude/math-vector-fortran.h
REM seed 2038693205 1418430460 -1895787382 -2077519289 406103148 2140696309 -1731083133 -1104995945 506450967 -157748438 377550777 -253222092 -398054060 -1928287945 -1071420087 1981230557 2137030000 471937010 -2137735075 836876453 -1391554051 2003183545 1105749212 -1055361790 -108829918 -712108240 1136339430 1601100087 770168554 -1465537637 -547503729 349651888 -804011959
REM
CELL 1.54180   15.00000   15.00000   15.00000   90.00000   90.00000   90.00000
LATT -1
SFAC C  
C      1  0.3231520000000  0.6070620000000  0.4156350000000 1.0
C      1  0.5255870000000  0.6070580000000  0.3057380000000 1.0
C      1  0.6926580000000  0.6070520000000  0.4643040000000 1.0
C      1  0.5934830000000  0.6070510000000  0.6721960000000 1.0
C      1  0.3651170000000  0.6070570000000  0.6421210000000 1.0
C      1  0.4071980000000  0.4582040000000  0.4945190000000 1.0
C      1  0.4765300000000  0.4582040000000  0.4100480000000 1.0
C      1  0.5782920000000  0.4582020000000  0.4498840000000 1.0
C      1  0.5718520000000  0.4582000000000  0.5589740000000 1.0
C      1  0.4661100000000  0.4582020000000  0.5865610000000 1.0
C      1  0.4367080000000  0.5659960000000  0.5668670000000 1.0
C      1  0.4168450000000  0.5659980000000  0.4604690000000 1.0
C      1  0.5118980000000  0.5659970000000  0.4087000000000 1.0
C      1  0.5905060000000  0.5659950000000  0.4831020000000 1.0
C      1  0.5440360000000  0.5659940000000  0.5808550000000 1.0
C      1  0.5665470000000  0.3001870000000  0.4399320000000 1.0
C      1  0.5776930000000  0.3001870000000  0.5447280000000 1.0
C      1  0.4814710000000  0.3001860000000  0.5877120000000 1.0
C      1  0.4108560000000  0.3001860000000  0.5094820000000 1.0
C      1  0.4634360000000  0.3001860000000  0.4181490000000 1.0
C      1  0.2583580000000  0.5713490000000  0.4909710000000 1.0
C      1  0.4339140000000  0.5713500000000  0.2673940000000 1.0
C      1  0.7008000000000  0.5713500000000  0.3652680000000 1.0
C      1  0.6901880000000  0.5713490000000  0.6493370000000 1.0
C      1  0.4167430000000  0.5713480000000  0.7270260000000 1.0
C      1  0.3279620000000  0.4459930000000  0.6125580000000 1.0
C      1  0.3397900000000  0.4459950000000  0.3711670000000 1.0
C      1  0.5730240000000  0.4459930000000  0.3078150000000 1.0
C      1  0.7053480000000  0.4459910000000  0.5100620000000 1.0
C      1  0.5538870000000  0.4459900000000  0.6984070000000 1.0
C      1  0.4119530000000  0.4713540000000  0.6824820000000 1.0
C      1  0.2992360000000  0.4713530000000  0.4726520000000 1.0
C      1  0.4639740000000  0.4713550000000  0.3006130000000 1.0
C      1  0.6784910000000  0.4713570000000  0.4041270000000 1.0
C      1  0.6463370000000  0.4713570000000  0.6401270000000 1.0
C      1  0.4604610000000  0.6874810000000  0.4275030000000 1.0
C      1  0.5567310000000  0.6874800000000  0.4399940000000 1.0
C      1  0.5746010000000  0.6874780000000  0.5354120000000 1.0
C      1  0.4893750000000  0.6874790000000  0.5818930000000 1.0
C      1  0.4188320000000  0.6874810000000  0.5152010000000 1.0
C      1  0.3896000000000  0.3520240000000  0.6300350000000 1.0
C      1  0.3422150000000  0.3520250000000  0.4351860000000 1.0
C      1  0.5128840000000  0.3520250000000  0.3299090000000 1.0
C      1  0.6657500000000  0.3520240000000  0.4596920000000 1.0
C      1  0.5895550000000  0.3520230000000  0.6451820000000 1.0
C      1  0.3302030000000  0.6422170000000  0.5436290000000 1.0
C      1  0.4060370000000  0.6422180000000  0.3519950000000 1.0
C      1  0.6117230000000  0.6422160000000  0.3649000000000 1.0
C      1  0.6630130000000  0.6422140000000  0.5645050000000 1.0
C      1  0.4890260000000  0.6422140000000  0.6749680000000 1.0
C      1  0.6701380000000  0.3604960000000  0.5717720000000 1.0
C      1  0.4843170000000  0.3604940000000  0.6839900000000 1.0
C      1  0.3201710000000  0.3604950000000  0.5419410000000 1.0
C      1  0.4045430000000  0.3604980000000  0.3419330000000 1.0
C      1  0.6208340000000  0.3604980000000  0.3603690000000 1.0
C      1  0.2994020000000  0.5376470000000  0.5880820000000 1.0
C      1  0.3542440000000  0.5376480000000  0.3364410000000 1.0
C      1  0.6105150000000  0.5376470000000  0.3108310000000 1.0
C      1  0.7140650000000  0.5376450000000  0.5466510000000 1.0
C      1  0.5217830000000  0.5376450000000  0.7180040000000 1.0
END
