TITL C-3036484-3770-1055 -1.08031725990916e-06 3375 -376.542336008749 0 0 60 (Cs) n - 1
REM
REM in /home/bkarasulu/work/CARBON/AIRSS/Generating-Clusters/REBO/Higher-Symm/Only-C60
REM
REM
REM
REM
REM
REM ./C.cell (a2850807a9bf4ad07a5b6933b78d9264)
REM AIRSS Version 0.9.1 bugfix July 2018 build 013d7b7c2542+ Fri, 06 Jul 2018 19:26:36 +0100
REM compiler GCC version 9.2.1 20190827 (Red Hat 9.2.1-1)
REM options -cpp -mtune=generic -march=x86-64 -g -O0 -fpre-include=/usr/include/finclude/math-vector-fortran.h
REM seed -1423428715 737816965 -933925962 -1778653533 1857398503 -1187637715 -267443828 47348774 -592493790 -1140996204 1254886268 -797550058 -1406990202 -1454689990 1399597344 436232142 -521455330 465236891 978027579 -1333512375 774557920 764596777 991078548 814101371 -154646539 -1110522183 -1839182514 179527520 -743536266 -1189215638 615114767 4394974 -1101058254
REM
CELL 1.54180   15.00000   15.00000   15.00000   90.00000   90.00000   90.00000
LATT -1
SFAC C  
C      1  0.5806660000000  0.5076050000000  0.6997320000000 1.0
C      1  0.7067330000000  0.5060540000000  0.5633980000000 1.0
C      1  0.6754370000000  0.5087310000000  0.3803800000000 1.0
C      1  0.5152700000000  0.5109670000000  0.2952080000000 1.0
C      1  0.3528350000000  0.5127590000000  0.3665140000000 1.0
C      1  0.3027140000000  0.5121640000000  0.5354100000000 1.0
C      1  0.3999630000000  0.5095960000000  0.6837630000000 1.0
C      1  0.4296920000000  0.6539100000000  0.3244020000000 1.0
C      1  0.3146760000000  0.6573960000000  0.4475860000000 1.0
C      1  0.3438880000000  0.6528900000000  0.6135430000000 1.0
C      1  0.4904110000000  0.6502950000000  0.7030090000000 1.0
C      1  0.6527980000000  0.6482700000000  0.6383930000000 1.0
C      1  0.7021620000000  0.6488570000000  0.4720460000000 1.0
C      1  0.6013040000000  0.6516130000000  0.3293280000000 1.0
C      1  0.3954520000000  0.7229770000000  0.4717880000000 1.0
C      1  0.4165750000000  0.6956540000000  0.5689760000000 1.0
C      1  0.4985910000000  0.6887480000000  0.6148140000000 1.0
C      1  0.5875470000000  0.6869080000000  0.5788410000000 1.0
C      1  0.6149160000000  0.6872330000000  0.4866160000000 1.0
C      1  0.5599780000000  0.6894780000000  0.4079550000000 1.0
C      1  0.4662220000000  0.6962440000000  0.4016800000000 1.0
C      1  0.4534790000000  0.5541710000000  0.5984490000000 1.0
C      1  0.5445710000000  0.5582960000000  0.6089450000000 1.0
C      1  0.6109680000000  0.5505570000000  0.5351360000000 1.0
C      1  0.5955650000000  0.5589020000000  0.4371090000000 1.0
C      1  0.5135000000000  0.5548840000000  0.3961910000000 1.0
C      1  0.4305140000000  0.5523620000000  0.4340170000000 1.0
C      1  0.4045640000000  0.5520530000000  0.5214640000000 1.0
C      1  0.2984200000000  0.5663030000000  0.4424410000000 1.0
C      1  0.3240840000000  0.5642750000000  0.6267850000000 1.0
C      1  0.4859530000000  0.5609870000000  0.7274640000000 1.0
C      1  0.6691270000000  0.5585450000000  0.6542890000000 1.0
C      1  0.7246910000000  0.5592060000000  0.4670500000000 1.0
C      1  0.6110790000000  0.5624740000000  0.3058210000000 1.0
C      1  0.4204890000000  0.5654210000000  0.3019260000000 1.0
C      1  0.5117630000000  0.4106510000000  0.3033540000000 1.0
C      1  0.3537910000000  0.4127220000000  0.3695110000000 1.0
C      1  0.3053420000000  0.4121460000000  0.5327710000000 1.0
C      1  0.4016610000000  0.4093420000000  0.6743730000000 1.0
C      1  0.5743420000000  0.4079120000000  0.6882810000000 1.0
C      1  0.6920780000000  0.4057680000000  0.5586950000000 1.0
C      1  0.6640810000000  0.4089790000000  0.3858810000000 1.0
C      1  0.5787510000000  0.2920150000000  0.5767370000000 1.0
C      1  0.6071560000000  0.2923530000000  0.4810210000000 1.0
C      1  0.5609910000000  0.2888310000000  0.3944980000000 1.0
C      1  0.4528200000000  0.2799250000000  0.3864120000000 1.0
C      1  0.3683510000000  0.2797410000000  0.4621820000000 1.0
C      1  0.3978160000000  0.2792720000000  0.5717630000000 1.0
C      1  0.4928710000000  0.2880220000000  0.6240470000000 1.0
C      1  0.6315780000000  0.3653690000000  0.6223690000000 1.0
C      1  0.6761810000000  0.3658990000000  0.4720680000000 1.0
C      1  0.5890230000000  0.3665340000000  0.3410460000000 1.0
C      1  0.4304660000000  0.3687950000000  0.3325140000000 1.0
C      1  0.3191630000000  0.3695440000000  0.4479020000000 1.0
C      1  0.3495100000000  0.3678330000000  0.6053170000000 1.0
C      1  0.4870590000000  0.3653220000000  0.6846400000000 1.0
C      1  0.5523380000000  0.4617360000000  0.5174240000000 1.0
C      1  0.5198930000000  0.3895120000000  0.5075410000000 1.0
C      1  0.3721180000000  0.8142180000000  0.4651850000000 1.0
C      1  0.4737590000000  0.3030320000000  0.4935450000000 1.0
END
