TITL C-3036480-97-779 -0.00429592675645345 3375 -351.356589975279 0 0 60 (C3) n - 1
REM
REM in /home/bkarasulu/work/CARBON/AIRSS/Generating-Clusters/REBO/Higher-Symm/Only-C60
REM
REM
REM
REM
REM
REM ./C.cell (a2850807a9bf4ad07a5b6933b78d9264)
REM AIRSS Version 0.9.1 bugfix July 2018 build 013d7b7c2542+ Fri, 06 Jul 2018 19:26:36 +0100
REM compiler GCC version 9.2.1 20190827 (Red Hat 9.2.1-1)
REM options -cpp -mtune=generic -march=x86-64 -g -O0 -fpre-include=/usr/include/finclude/math-vector-fortran.h
REM seed 157275720 1779990296 -314510067 -1271287499 726541131 -1057165202 682687888 -355991217 -1780947314 -1577106868 -1754042788 -2122733378 349094529 -1290442581 1358283064 -1757039497 217270919 -1567299477 1612569329 -1913873788 -260801950 -410934856 1403259532 -1705680834 1576818518 -816965576 -158364428 1893760468 1922621921 -2113223313 -833910269 1859246151 1912749022
REM
CELL 1.54180   15.00000   15.00000   15.00000   90.00000   90.00000   90.00000
LATT -1
SFAC C  
C      1  0.3714250000000  0.6311850000000  0.3324430000000 1.0
C      1  0.3713580000000  0.5797040000000  0.6975810000000 1.0
C      1  0.3715180000000  0.2890960000000  0.4700370000000 1.0
C      1  0.5382740000000  0.4422580000000  0.4197060000000 1.0
C      1  0.5379990000000  0.5983000000000  0.4901550000000 1.0
C      1  0.5383080000000  0.4593440000000  0.5899900000000 1.0
C      1  0.6801540000000  0.5144920000000  0.5647030000000 1.0
C      1  0.6802440000000  0.4365580000000  0.4799210000000 1.0
C      1  0.6801170000000  0.5490020000000  0.4548880000000 1.0
C      1  0.5180800000000  0.4393860000000  0.6926730000000 1.0
C      1  0.5181530000000  0.3632420000000  0.3511260000000 1.0
C      1  0.5180190000000  0.6972320000000  0.4562160000000 1.0
C      1  0.6812470000000  0.4834340000000  0.6641280000000 1.0
C      1  0.6813450000000  0.3659240000000  0.4034390000000 1.0
C      1  0.6810950000000  0.6506140000000  0.4321660000000 1.0
C      1  0.3689230000000  0.5641210000000  0.2635900000000 1.0
C      1  0.3688300000000  0.6728790000000  0.6739650000000 1.0
C      1  0.3687780000000  0.2631920000000  0.5625410000000 1.0
C      1  0.4965530000000  0.5549050000000  0.5776980000000 1.0
C      1  0.4968970000000  0.4050950000000  0.5087570000000 1.0
C      1  0.4967790000000  0.5397080000000  0.4134170000000 1.0
C      1  0.6644710000000  0.4789410000000  0.3046550000000 1.0
C      1  0.6641770000000  0.6794340000000  0.5794690000000 1.0
C      1  0.6646460000000  0.3413980000000  0.6156070000000 1.0
C      1  0.6205800000000  0.3959740000000  0.5559510000000 1.0
C      1  0.6204420000000  0.5033810000000  0.3817640000000 1.0
C      1  0.6202440000000  0.6004260000000  0.5618760000000 1.0
C      1  0.2840950000000  0.4529940000000  0.3588520000000 1.0
C      1  0.2838020000000  0.6463060000000  0.5301640000000 1.0
C      1  0.2835090000000  0.4008210000000  0.6116860000000 1.0
C      1  0.4143990000000  0.3315000000000  0.3733170000000 1.0
C      1  0.4142740000000  0.6938050000000  0.4175990000000 1.0
C      1  0.4143550000000  0.4746790000000  0.7089360000000 1.0
C      1  0.3233280000000  0.4585600000000  0.4525740000000 1.0
C      1  0.3227500000000  0.5622310000000  0.4883450000000 1.0
C      1  0.3220160000000  0.4793940000000  0.5600370000000 1.0
C      1  0.4014200000000  0.5847440000000  0.4269530000000 1.0
C      1  0.4010630000000  0.5211950000000  0.6099370000000 1.0
C      1  0.4017620000000  0.3941430000000  0.4630380000000 1.0
C      1  0.5203280000000  0.6311160000000  0.6438950000000 1.0
C      1  0.5205130000000  0.3097480000000  0.5417210000000 1.0
C      1  0.5204280000000  0.5591000000000  0.3143950000000 1.0
C      1  0.5755980000000  0.5981410000000  0.7125170000000 1.0
C      1  0.5756930000000  0.2666910000000  0.4788490000000 1.0
C      1  0.5753480000000  0.6352720000000  0.3086660000000 1.0
C      1  0.4593480000000  0.2851760000000  0.6096860000000 1.0
C      1  0.4594660000000  0.5123510000000  0.2590150000000 1.0
C      1  0.4594100000000  0.7024900000000  0.6312830000000 1.0
C      1  0.6002240000000  0.5063030000000  0.7097440000000 1.0
C      1  0.6002830000000  0.3149700000000  0.4006340000000 1.0
C      1  0.6000270000000  0.6787050000000  0.3896140000000 1.0
C      1  0.3393140000000  0.3326760000000  0.6355480000000 1.0
C      1  0.3395020000000  0.4662280000000  0.2875040000000 1.0
C      1  0.3393430000000  0.7013110000000  0.5772700000000 1.0
C      1  0.7103530000000  0.3932610000000  0.6770800000000 1.0
C      1  0.7102030000000  0.3997780000000  0.3187800000000 1.0
C      1  0.7099700000000  0.7068680000000  0.5039160000000 1.0
C      1  0.4329870000000  0.3646660000000  0.6864690000000 1.0
C      1  0.4331820000000  0.4061580000000  0.2894250000000 1.0
C      1  0.4330500000000  0.7293930000000  0.5240860000000 1.0
END
