TITL C-3036483-1610-1064 -3.4524660718312e-07 3375 -341.878048891205 0 0 60 (C3) n - 1
REM
REM in /home/bkarasulu/work/CARBON/AIRSS/Generating-Clusters/REBO/Higher-Symm/Only-C60
REM
REM
REM
REM
REM
REM ./C.cell (a2850807a9bf4ad07a5b6933b78d9264)
REM AIRSS Version 0.9.1 bugfix July 2018 build 013d7b7c2542+ Fri, 06 Jul 2018 19:26:36 +0100
REM compiler GCC version 9.2.1 20190827 (Red Hat 9.2.1-1)
REM options -cpp -mtune=generic -march=x86-64 -g -O0 -fpre-include=/usr/include/finclude/math-vector-fortran.h
REM seed 2135600400 -204948573 185519305 -2082290949 1525738027 -2067241355 253673729 1588925720 1629862227 -115682110 -132486765 -1808385400 1967736484 491392646 889471642 962727679 1071939281 -920291411 1695197258 947560299 -491989494 -1893419961 1335053091 1652774224 -473240392 1537928537 1171847835 852872937 -1198052422 -681947731 581124137 344152531 -988109704
REM
CELL 1.54180   15.00000   15.00000   15.00000   90.00000   90.00000   90.00000
LATT -1
SFAC C  
C      1  0.3469520000000  0.3654500000000  0.4405660000000 1.0
C      1  0.4600010000000  0.6998200000000  0.4405680000000 1.0
C      1  0.6930490000000  0.4347310000000  0.4405710000000 1.0
C      1  0.4476850000000  0.5364670000000  0.7334820000000 1.0
C      1  0.5577350000000  0.5270690000000  0.7334830000000 1.0
C      1  0.4945700000000  0.4364620000000  0.7334820000000 1.0
C      1  0.4681960000000  0.2764520000000  0.4940890000000 1.0
C      1  0.3223030000000  0.6393170000000  0.4940880000000 1.0
C      1  0.7095010000000  0.5842310000000  0.4940930000000 1.0
C      1  0.5260640000000  0.3109590000000  0.4016190000000 1.0
C      1  0.3232560000000  0.5719500000000  0.4016170000000 1.0
C      1  0.6506850000000  0.6170920000000  0.4016220000000 1.0
C      1  0.5214890000000  0.2328140000000  0.5954690000000 1.0
C      1  0.2578640000000  0.6149820000000  0.5954660000000 1.0
C      1  0.7206440000000  0.6522040000000  0.5954730000000 1.0
C      1  0.5159650000000  0.4393720000000  0.5757120000000 1.0
C      1  0.4395110000000  0.5164870000000  0.5757110000000 1.0
C      1  0.5445210000000  0.5441410000000  0.5757130000000 1.0
C      1  0.6202770000000  0.2533860000000  0.6238290000000 1.0
C      1  0.2262850000000  0.5191410000000  0.6238240000000 1.0
C      1  0.6534320000000  0.7274710000000  0.6238310000000 1.0
C      1  0.2363010000000  0.5667970000000  0.4997990000000 1.0
C      1  0.6896980000000  0.6949710000000  0.4998060000000 1.0
C      1  0.5740010000000  0.2382310000000  0.4998030000000 1.0
C      1  0.5090630000000  0.4350900000000  0.2703120000000 1.0
C      1  0.4392590000000  0.5246100000000  0.2703110000000 1.0
C      1  0.5516880000000  0.5403020000000  0.2703120000000 1.0
C      1  0.5866010000000  0.6794870000000  0.4749530000000 1.0
C      1  0.6121400000000  0.3352580000000  0.4749520000000 1.0
C      1  0.3012600000000  0.4852550000000  0.4749480000000 1.0
C      1  0.5489620000000  0.5806610000000  0.4788850000000 1.0
C      1  0.5453740000000  0.4172670000000  0.4788850000000 1.0
C      1  0.4056650000000  0.5020720000000  0.4788830000000 1.0
C      1  0.4858870000000  0.6760540000000  0.3465160000000 1.0
C      1  0.6595270000000  0.4241970000000  0.3465180000000 1.0
C      1  0.3545920000000  0.3997500000000  0.3465130000000 1.0
C      1  0.7184400000000  0.4908820000000  0.5531100000000 1.0
C      1  0.3828820000000  0.3153830000000  0.5531050000000 1.0
C      1  0.3986750000000  0.6937340000000  0.5531060000000 1.0
C      1  0.4540440000000  0.3676600000000  0.3344100000000 1.0
C      1  0.4083710000000  0.6059720000000  0.3344100000000 1.0
C      1  0.6375910000000  0.5263700000000  0.3344130000000 1.0
C      1  0.5031990000000  0.7305220000000  0.5329120000000 1.0
C      1  0.6980380000000  0.3819680000000  0.5329130000000 1.0
C      1  0.2987620000000  0.3875100000000  0.5329080000000 1.0
C      1  0.4534360000000  0.3025700000000  0.6239020000000 1.0
C      1  0.3523010000000  0.6390390000000  0.6239020000000 1.0
C      1  0.6942580000000  0.5583900000000  0.6239060000000 1.0
C      1  0.5773390000000  0.7528910000000  0.6031970000000 1.0
C      1  0.6803390000000  0.3065750000000  0.6031970000000 1.0
C      1  0.2423180000000  0.4405330000000  0.6031910000000 1.0
C      1  0.4023220000000  0.5645100000000  0.6547120000000 1.0
C      1  0.6047040000000  0.5523340000000  0.6547140000000 1.0
C      1  0.4929680000000  0.3831550000000  0.6547120000000 1.0
C      1  0.5995730000000  0.5000620000000  0.4381010000000 1.0
C      1  0.4502680000000  0.4137370000000  0.4380990000000 1.0
C      1  0.4501610000000  0.5862010000000  0.4380990000000 1.0
C      1  0.3462760000000  0.4915340000000  0.3244230000000 1.0
C      1  0.5695340000000  0.6373650000000  0.3244270000000 1.0
C      1  0.5841980000000  0.3711020000000  0.3244260000000 1.0
END
