TITL C-3036481-494-232 -1.67492469915324e-05 3375 -337.323037054918 0 0 60 (T23) n - 1
REM
REM in /home/bkarasulu/work/CARBON/AIRSS/Generating-Clusters/REBO/Higher-Symm/Only-C60
REM
REM
REM
REM
REM
REM ./C.cell (a2850807a9bf4ad07a5b6933b78d9264)
REM AIRSS Version 0.9.1 bugfix July 2018 build 013d7b7c2542+ Fri, 06 Jul 2018 19:26:36 +0100
REM compiler GCC version 9.2.1 20190827 (Red Hat 9.2.1-1)
REM options -cpp -mtune=generic -march=x86-64 -g -O0 -fpre-include=/usr/include/finclude/math-vector-fortran.h
REM seed -160305494 -407370678 -2115164341 -1115009231 -1755178173 849988511 855336992 -1420291761 -65034201 -813323448 -331705092 -1713966759 -239717513 1011606657 -1872028372 -1029877673 1843350191 967369679 1982817635 638208643 -1286211294 -76379483 1072541848 461422534 866023180 -1644723290 808237088 1317319208 608241692 -1198836290 -224946061 1214333281 658140379
REM
CELL 1.54180   15.00000   15.00000   15.00000   90.00000   90.00000   90.00000
LATT -1
SFAC C  
C      1  0.4499570000000  0.7022780000000  0.4073170000000 1.0
C      1  0.7022740000000  0.4073110000000  0.4499470000000 1.0
C      1  0.4073160000000  0.4499520000000  0.7022810000000 1.0
C      1  0.5500400000000  0.2977240000000  0.4073110000000 1.0
C      1  0.4499500000000  0.2977220000000  0.5926870000000 1.0
C      1  0.5500530000000  0.7022770000000  0.5926860000000 1.0
C      1  0.2977260000000  0.5926890000000  0.4499610000000 1.0
C      1  0.7022810000000  0.5926820000000  0.5500410000000 1.0
C      1  0.2977200000000  0.4073160000000  0.5500530000000 1.0
C      1  0.5926920000000  0.5500440000000  0.7022740000000 1.0
C      1  0.4073120000000  0.5500480000000  0.2977270000000 1.0
C      1  0.5926800000000  0.4499540000000  0.2977190000000 1.0
C      1  0.4410270000000  0.7121500000000  0.6222040000000 1.0
C      1  0.7121470000000  0.3777950000000  0.5589740000000 1.0
C      1  0.3777930000000  0.4410230000000  0.2878540000000 1.0
C      1  0.5589780000000  0.2878510000000  0.6221970000000 1.0
C      1  0.4410120000000  0.2878560000000  0.3778000000000 1.0
C      1  0.5589830000000  0.7121480000000  0.3777980000000 1.0
C      1  0.2878570000000  0.6222040000000  0.5589880000000 1.0
C      1  0.7121490000000  0.6221980000000  0.4410150000000 1.0
C      1  0.2878470000000  0.3778030000000  0.4410250000000 1.0
C      1  0.6221980000000  0.5589800000000  0.2878470000000 1.0
C      1  0.3778050000000  0.5589800000000  0.7121510000000 1.0
C      1  0.6222040000000  0.4410160000000  0.7121430000000 1.0
C      1  0.2889620000000  0.4320730000000  0.3433830000000 1.0
C      1  0.4320600000000  0.3433800000000  0.2889660000000 1.0
C      1  0.3433700000000  0.2889690000000  0.4320710000000 1.0
C      1  0.7110320000000  0.5679290000000  0.3433710000000 1.0
C      1  0.2889700000000  0.5679340000000  0.6566300000000 1.0
C      1  0.7110360000000  0.4320630000000  0.6566170000000 1.0
C      1  0.5679310000000  0.6566230000000  0.2889650000000 1.0
C      1  0.4320760000000  0.6566230000000  0.7110360000000 1.0
C      1  0.5679330000000  0.3433740000000  0.7110310000000 1.0
C      1  0.6566270000000  0.7110330000000  0.4320650000000 1.0
C      1  0.3433840000000  0.7110360000000  0.5679380000000 1.0
C      1  0.6566190000000  0.2889640000000  0.5679260000000 1.0
C      1  0.3203070000000  0.4591790000000  0.6460180000000 1.0
C      1  0.4591770000000  0.3539860000000  0.6796950000000 1.0
C      1  0.3539830000000  0.3203070000000  0.5408260000000 1.0
C      1  0.6796970000000  0.5408190000000  0.6460070000000 1.0
C      1  0.3203060000000  0.5408260000000  0.3539950000000 1.0
C      1  0.6796890000000  0.4591760000000  0.3539830000000 1.0
C      1  0.5408300000000  0.6460100000000  0.6796930000000 1.0
C      1  0.4591780000000  0.6460120000000  0.3203100000000 1.0
C      1  0.5408150000000  0.3539890000000  0.3203040000000 1.0
C      1  0.6460170000000  0.6796910000000  0.5408200000000 1.0
C      1  0.3539930000000  0.6796940000000  0.4591830000000 1.0
C      1  0.6460070000000  0.3203050000000  0.4591720000000 1.0
C      1  0.7379400000000  0.5115210000000  0.4373790000000 1.0
C      1  0.4373910000000  0.7379430000000  0.5115280000000 1.0
C      1  0.2620570000000  0.4884800000000  0.4373920000000 1.0
C      1  0.7379430000000  0.4884710000000  0.5626080000000 1.0
C      1  0.2620600000000  0.5115280000000  0.5626220000000 1.0
C      1  0.5626100000000  0.2620580000000  0.5115200000000 1.0
C      1  0.5115280000000  0.4373830000000  0.7379400000000 1.0
C      1  0.4884830000000  0.5626130000000  0.7379410000000 1.0
C      1  0.5115210000000  0.5626160000000  0.2620580000000 1.0
C      1  0.4884680000000  0.4373870000000  0.2620580000000 1.0
C      1  0.4373790000000  0.2620610000000  0.4884760000000 1.0
C      1  0.5626200000000  0.7379410000000  0.4884750000000 1.0
END
