TITL C-3036481-494-639 0.000256929793343841 3375 -358.051794002718 0 0 60 (C2) n - 1
REM
REM in /home/bkarasulu/work/CARBON/AIRSS/Generating-Clusters/REBO/Higher-Symm/Only-C60
REM
REM
REM
REM
REM
REM ./C.cell (a2850807a9bf4ad07a5b6933b78d9264)
REM AIRSS Version 0.9.1 bugfix July 2018 build 013d7b7c2542+ Fri, 06 Jul 2018 19:26:36 +0100
REM compiler GCC version 9.2.1 20190827 (Red Hat 9.2.1-1)
REM options -cpp -mtune=generic -march=x86-64 -g -O0 -fpre-include=/usr/include/finclude/math-vector-fortran.h
REM seed 1532979397 -1134843143 1348609249 60705014 -445720500 2091323439 1817960814 -1469831158 68382127 799644694 125017513 82126685 -799106382 1304453436 -653888335 870276044 -1034432742 623777552 -1005650623 847671377 -1876822671 478458458 -420295190 -242710500 267228732 -877393601 -1028388228 482016552 -1085773397 -901160222 764918420 2091284294 1163182634
REM
CELL 1.54180   15.00000   15.00000   15.00000   90.00000   90.00000   90.00000
LATT -1
SFAC C  
C      1  0.5940370000000  0.4784060000000  0.7039100000000 1.0
C      1  0.4812970000000  0.7159920000000  0.5942640000000 1.0
C      1  0.7179130000000  0.5990470000000  0.4791790000000 1.0
C      1  0.4031010000000  0.4829730000000  0.2911450000000 1.0
C      1  0.4031040000000  0.5170240000000  0.7088570000000 1.0
C      1  0.5940330000000  0.5215980000000  0.2960890000000 1.0
C      1  0.5187630000000  0.7154720000000  0.4023700000000 1.0
C      1  0.5187740000000  0.2845280000000  0.5976300000000 1.0
C      1  0.4813030000000  0.2840080000000  0.4057360000000 1.0
C      1  0.2923430000000  0.5968180000000  0.5206690000000 1.0
C      1  0.2923460000000  0.4031740000000  0.4793350000000 1.0
C      1  0.7179150000000  0.4009620000000  0.5208170000000 1.0
C      1  0.7182250000000  0.4791840000000  0.5984320000000 1.0
C      1  0.5975560000000  0.7098580000000  0.4781240000000 1.0
C      1  0.4780660000000  0.5941100000000  0.7022010000000 1.0
C      1  0.2869580000000  0.4820760000000  0.4053760000000 1.0
C      1  0.7182250000000  0.5208250000000  0.4015640000000 1.0
C      1  0.2869590000000  0.5179160000000  0.5946280000000 1.0
C      1  0.4031160000000  0.7163010000000  0.5181410000000 1.0
C      1  0.5975640000000  0.2901450000000  0.5218740000000 1.0
C      1  0.4031250000000  0.2836960000000  0.4818610000000 1.0
C      1  0.5166090000000  0.5965550000000  0.2893000000000 1.0
C      1  0.4780670000000  0.4058900000000  0.2977990000000 1.0
C      1  0.5166160000000  0.4034450000000  0.7107000000000 1.0
C      1  0.3611090000000  0.7093130000000  0.4308540000000 1.0
C      1  0.7080840000000  0.4316660000000  0.3624590000000 1.0
C      1  0.4293810000000  0.3603230000000  0.7074060000000 1.0
C      1  0.6374540000000  0.7047230000000  0.5660360000000 1.0
C      1  0.6374610000000  0.2952820000000  0.4339620000000 1.0
C      1  0.3611190000000  0.2906820000000  0.5691490000000 1.0
C      1  0.2912570000000  0.4301280000000  0.6362930000000 1.0
C      1  0.2912520000000  0.5698640000000  0.3637100000000 1.0
C      1  0.7080830000000  0.5683420000000  0.6375370000000 1.0
C      1  0.5652550000000  0.3660390000000  0.3005380000000 1.0
C      1  0.5652530000000  0.6339640000000  0.6994610000000 1.0
C      1  0.4293710000000  0.6396740000000  0.2925950000000 1.0
C      1  0.4301620000000  0.7100910000000  0.3611050000000 1.0
C      1  0.3599990000000  0.4298110000000  0.7063620000000 1.0
C      1  0.7088030000000  0.3616930000000  0.4318640000000 1.0
C      1  0.5686430000000  0.7066880000000  0.6352840000000 1.0
C      1  0.4301730000000  0.2899060000000  0.6388960000000 1.0
C      1  0.5686490000000  0.2933150000000  0.3647140000000 1.0
C      1  0.6338090000000  0.4343480000000  0.2997080000000 1.0
C      1  0.3599930000000  0.5701830000000  0.2936410000000 1.0
C      1  0.6338090000000  0.5656580000000  0.7002910000000 1.0
C      1  0.2950570000000  0.3620310000000  0.5665520000000 1.0
C      1  0.7088000000000  0.6383150000000  0.5681330000000 1.0
C      1  0.2950510000000  0.6379610000000  0.4334510000000 1.0
C      1  0.4662040000000  0.3715740000000  0.4683600000000 1.0
C      1  0.3830600000000  0.4675470000000  0.4598200000000 1.0
C      1  0.5352880000000  0.3810660000000  0.5440640000000 1.0
C      1  0.5352810000000  0.6189350000000  0.4559360000000 1.0
C      1  0.4661990000000  0.6284250000000  0.5316410000000 1.0
C      1  0.6307630000000  0.4647490000000  0.5350350000000 1.0
C      1  0.6307620000000  0.5352590000000  0.4649600000000 1.0
C      1  0.3830590000000  0.5324480000000  0.5401820000000 1.0
C      1  0.5306910000000  0.4561980000000  0.6131980000000 1.0
C      1  0.5306870000000  0.5438030000000  0.3868020000000 1.0
C      1  0.4569810000000  0.4701710000000  0.3884150000000 1.0
C      1  0.4569820000000  0.5298270000000  0.6115850000000 1.0
END
