TITL C-3036482-790-1051 3.96410961047349e-05 3375 -354.946007063286 0 0 60 (C6) n - 1
REM
REM in /home/bkarasulu/work/CARBON/AIRSS/Generating-Clusters/REBO/Higher-Symm/Only-C60
REM
REM
REM
REM
REM
REM ./C.cell (a2850807a9bf4ad07a5b6933b78d9264)
REM AIRSS Version 0.9.1 bugfix July 2018 build 013d7b7c2542+ Fri, 06 Jul 2018 19:26:36 +0100
REM compiler GCC version 9.2.1 20190827 (Red Hat 9.2.1-1)
REM options -cpp -mtune=generic -march=x86-64 -g -O0 -fpre-include=/usr/include/finclude/math-vector-fortran.h
REM seed 1756372048 -1163207023 -1473346573 -1997302785 1898906589 -894895874 -1653128535 2130471537 -432392522 -2124632523 1408976865 1888375510 -912178554 -1265441413 831279419 124755204 -636676100 -1262182674 2101622343 684862408 33718536 243505031 -2005662574 104023607 854153337 -1044623103 -1917518076 -130707015 -1011040782 609481290 -997950487 996656458 -614509531
REM
CELL 1.54180   15.00000   15.00000   15.00000   90.00000   90.00000   90.00000
LATT -1
SFAC C  
C      1  0.5109640000000  0.2562350000000  0.4630450000000 1.0
C      1  0.2943760000000  0.3686230000000  0.4630450000000 1.0
C      1  0.2834120000000  0.6123870000000  0.4630450000000 1.0
C      1  0.4890360000000  0.7437640000000  0.4630450000000 1.0
C      1  0.7056240000000  0.6313770000000  0.4630450000000 1.0
C      1  0.7165880000000  0.3876130000000  0.4630450000000 1.0
C      1  0.5857800000000  0.4553220000000  0.2494630000000 1.0
C      1  0.5041980000000  0.4033730000000  0.2494630000000 1.0
C      1  0.4184170000000  0.4480510000000  0.2494630000000 1.0
C      1  0.4142190000000  0.5446780000000  0.2494630000000 1.0
C      1  0.4958020000000  0.5966270000000  0.2494630000000 1.0
C      1  0.5815820000000  0.5519490000000  0.2494630000000 1.0
C      1  0.3637000000000  0.6147360000000  0.6760370000000 1.0
C      1  0.5312140000000  0.6754080000000  0.6760360000000 1.0
C      1  0.6675150000000  0.5606720000000  0.6760360000000 1.0
C      1  0.6363010000000  0.3852650000000  0.6760360000000 1.0
C      1  0.4687870000000  0.3245930000000  0.6760370000000 1.0
C      1  0.3324860000000  0.4393280000000  0.6760370000000 1.0
C      1  0.3261230000000  0.3883230000000  0.5532920000000 1.0
C      1  0.3163470000000  0.5947440000000  0.5532920000000 1.0
C      1  0.4902240000000  0.7064200000000  0.5532910000000 1.0
C      1  0.6738770000000  0.6116770000000  0.5532910000000 1.0
C      1  0.6836540000000  0.4052560000000  0.5532910000000 1.0
C      1  0.5097760000000  0.2935800000000  0.5532910000000 1.0
C      1  0.5825010000000  0.4570510000000  0.4235500000000 1.0
C      1  0.5040550000000  0.4070770000000  0.4235500000000 1.0
C      1  0.4215540000000  0.4500260000000  0.4235500000000 1.0
C      1  0.4174990000000  0.5429490000000  0.4235500000000 1.0
C      1  0.4959440000000  0.5929230000000  0.4235500000000 1.0
C      1  0.5784460000000  0.5499740000000  0.4235500000000 1.0
C      1  0.2927970000000  0.4931950000000  0.5844770000000 1.0
C      1  0.3905050000000  0.6760410000000  0.5844770000000 1.0
C      1  0.5977090000000  0.6828460000000  0.5844760000000 1.0
C      1  0.7072040000000  0.5068050000000  0.5844760000000 1.0
C      1  0.6094950000000  0.3239590000000  0.5844770000000 1.0
C      1  0.4022920000000  0.3171540000000  0.5844770000000 1.0
C      1  0.6537340000000  0.5978960000000  0.2947850000000 1.0
C      1  0.6616470000000  0.4158100000000  0.2947860000000 1.0
C      1  0.5079130000000  0.3179140000000  0.2947860000000 1.0
C      1  0.3462660000000  0.4021040000000  0.2947860000000 1.0
C      1  0.3383520000000  0.5841890000000  0.2947860000000 1.0
C      1  0.4920860000000  0.6820860000000  0.2947860000000 1.0
C      1  0.4825830000000  0.4027050000000  0.7489300000000 1.0
C      1  0.4070320000000  0.4664370000000  0.7489300000000 1.0
C      1  0.4244500000000  0.5637320000000  0.7489300000000 1.0
C      1  0.5174180000000  0.5972950000000  0.7489300000000 1.0
C      1  0.5929690000000  0.5335630000000  0.7489300000000 1.0
C      1  0.5755510000000  0.4362680000000  0.7489300000000 1.0
C      1  0.6549210000000  0.5987250000000  0.3901550000000 1.0
C      1  0.6629590000000  0.4151970000000  0.3901550000000 1.0
C      1  0.5080380000000  0.3164720000000  0.3901550000000 1.0
C      1  0.3450790000000  0.4012750000000  0.3901560000000 1.0
C      1  0.3370410000000  0.5848030000000  0.3901550000000 1.0
C      1  0.4919620000000  0.6835280000000  0.3901550000000 1.0
C      1  0.5831320000000  0.5372810000000  0.6162660000000 1.0
C      1  0.5738530000000  0.4466470000000  0.6162660000000 1.0
C      1  0.4907210000000  0.4093650000000  0.6162660000000 1.0
C      1  0.4168680000000  0.4627190000000  0.6162660000000 1.0
C      1  0.4261480000000  0.5533540000000  0.6162660000000 1.0
C      1  0.5092790000000  0.5906350000000  0.6162660000000 1.0
END
