TITL C-3036480-97-547 1.6967305882275e-06 3375 -329.90865660241 0 0 60 (Ci) n - 1
REM
REM in /home/bkarasulu/work/CARBON/AIRSS/Generating-Clusters/REBO/Higher-Symm/Only-C60
REM
REM
REM
REM
REM
REM ./C.cell (a2850807a9bf4ad07a5b6933b78d9264)
REM AIRSS Version 0.9.1 bugfix July 2018 build 013d7b7c2542+ Fri, 06 Jul 2018 19:26:36 +0100
REM compiler GCC version 9.2.1 20190827 (Red Hat 9.2.1-1)
REM options -cpp -mtune=generic -march=x86-64 -g -O0 -fpre-include=/usr/include/finclude/math-vector-fortran.h
REM seed -542036780 -940753148 1357999311 -383211047 -1104660733 -1863699258 1491424991 1013771903 554468556 -443410884 -1044059401 1802192051 -92809857 -317835701 879630561 1734612062 -130249083 2137162406 1984586808 109173500 1809635991 1270675307 1366230793 -101155810 1668005405 2118542234 -805734017 -1022485684 -928168665 728115258 1433106126 1499133341 -1291042383
REM
CELL 1.54180   15.00000   15.00000   15.00000   90.00000   90.00000   90.00000
LATT -1
SFAC C  
C      1  0.5683070000000  0.6966750000000  0.4192180000000 1.0
C      1  0.6067420000000  0.2975740000000  0.5176930000000 1.0
C      1  0.5344440000000  0.6864450000000  0.6059810000000 1.0
C      1  0.4316930000000  0.3033250000000  0.5807820000000 1.0
C      1  0.3932580000000  0.7024260000000  0.4823070000000 1.0
C      1  0.4655560000000  0.3135550000000  0.3940190000000 1.0
C      1  0.3315090000000  0.5682190000000  0.3284360000000 1.0
C      1  0.5748280000000  0.4368380000000  0.2698900000000 1.0
C      1  0.7305040000000  0.5639080000000  0.4380790000000 1.0
C      1  0.6684910000000  0.4317810000000  0.6715640000000 1.0
C      1  0.4251720000000  0.5631620000000  0.7301100000000 1.0
C      1  0.2694960000000  0.4360920000000  0.5619210000000 1.0
C      1  0.6214530000000  0.3588560000000  0.3354180000000 1.0
C      1  0.6981690000000  0.6387500000000  0.5156140000000 1.0
C      1  0.5852440000000  0.3595480000000  0.6799140000000 1.0
C      1  0.3785470000000  0.6411440000000  0.6645820000000 1.0
C      1  0.3018310000000  0.3612500000000  0.4843860000000 1.0
C      1  0.4147560000000  0.6404520000000  0.3200860000000 1.0
C      1  0.4580070000000  0.4770210000000  0.3172250000000 1.0
C      1  0.6383130000000  0.5091220000000  0.3621600000000 1.0
C      1  0.6887770000000  0.4841560000000  0.5528760000000 1.0
C      1  0.5419930000000  0.5229790000000  0.6827750000000 1.0
C      1  0.3616870000000  0.4908780000000  0.6378400000000 1.0
C      1  0.3112230000000  0.5158440000000  0.4471240000000 1.0
C      1  0.4787280000000  0.4317820000000  0.4541130000000 1.0
C      1  0.5427550000000  0.5672070000000  0.4344080000000 1.0
C      1  0.5772300000000  0.4268190000000  0.5092460000000 1.0
C      1  0.5212720000000  0.5682180000000  0.5458870000000 1.0
C      1  0.4572450000000  0.4327930000000  0.5655920000000 1.0
C      1  0.4227700000000  0.5731810000000  0.4907540000000 1.0
C      1  0.5279380000000  0.6436710000000  0.3262720000000 1.0
C      1  0.6679350000000  0.3532790000000  0.4389710000000 1.0
C      1  0.6385160000000  0.6404640000000  0.6122630000000 1.0
C      1  0.4720620000000  0.3563290000000  0.6737280000000 1.0
C      1  0.3320650000000  0.6467210000000  0.5610290000000 1.0
C      1  0.3614840000000  0.3595360000000  0.3877370000000 1.0
C      1  0.5502670000000  0.4439580000000  0.6124430000000 1.0
C      1  0.4285120000000  0.5635140000000  0.5977950000000 1.0
C      1  0.3786210000000  0.4448330000000  0.4876960000000 1.0
C      1  0.4497330000000  0.5560420000000  0.3875570000000 1.0
C      1  0.5714880000000  0.4364860000000  0.4022050000000 1.0
C      1  0.6213790000000  0.5551670000000  0.5123040000000 1.0
C      1  0.5082900000000  0.6231980000000  0.6877280000000 1.0
C      1  0.3614210000000  0.3853680000000  0.6055530000000 1.0
C      1  0.3402920000000  0.6207560000000  0.4287450000000 1.0
C      1  0.4917100000000  0.3768020000000  0.3122720000000 1.0
C      1  0.6385790000000  0.6146320000000  0.3944470000000 1.0
C      1  0.6597080000000  0.3792440000000  0.5712550000000 1.0
C      1  0.5652690000000  0.3040970000000  0.4156200000000 1.0
C      1  0.6008990000000  0.6941400000000  0.5165880000000 1.0
C      1  0.5401810000000  0.3013050000000  0.5968130000000 1.0
C      1  0.4347310000000  0.6959030000000  0.5843800000000 1.0
C      1  0.3991010000000  0.3058600000000  0.4834120000000 1.0
C      1  0.4598190000000  0.6986950000000  0.4031870000000 1.0
C      1  0.4499070000000  0.4567110000000  0.6986530000000 1.0
C      1  0.3033280000000  0.5447180000000  0.5560780000000 1.0
C      1  0.3553260000000  0.4610290000000  0.3574910000000 1.0
C      1  0.5500930000000  0.5432890000000  0.3013470000000 1.0
C      1  0.6966720000000  0.4552820000000  0.4439220000000 1.0
C      1  0.6446740000000  0.5389710000000  0.6425100000000 1.0
END
