TITL C-3036482-790-379 -5.58739422299678e-06 3375 -340.565763252686 0 0 60 (C1) n - 1
REM
REM in /home/bkarasulu/work/CARBON/AIRSS/Generating-Clusters/REBO/Higher-Symm/Only-C60
REM
REM
REM
REM
REM
REM ./C.cell (a2850807a9bf4ad07a5b6933b78d9264)
REM AIRSS Version 0.9.1 bugfix July 2018 build 013d7b7c2542+ Fri, 06 Jul 2018 19:26:36 +0100
REM compiler GCC version 9.2.1 20190827 (Red Hat 9.2.1-1)
REM options -cpp -mtune=generic -march=x86-64 -g -O0 -fpre-include=/usr/include/finclude/math-vector-fortran.h
REM seed 561192216 -871013107 1380123921 902684368 1787514905 584302563 -1542155984 898297977 -69095435 -1661199780 -420044836 1507029472 -1670938091 -1519893021 1256925026 -1957352773 705838369 -1525045019 -992603565 -2029790172 -232569737 -1229791958 492612321 -134379742 -269229862 1377140276 -1972514350 86584301 1950367416 -1520685063 672121081 -357927563 1550037328
REM
CELL 1.54180   15.00000   15.00000   15.00000   90.00000   90.00000   90.00000
LATT -1
SFAC C  
C      1  0.2667130000000  0.4993130000000  0.4425020000000 1.0
C      1  0.2826880000000  0.5543960000000  0.5351820000000 1.0
C      1  0.2830890000000  0.4457350000000  0.5366810000000 1.0
C      1  0.7022710000000  0.4371900000000  0.6257310000000 1.0
C      1  0.6985150000000  0.4259880000000  0.3973660000000 1.0
C      1  0.6957200000000  0.6282050000000  0.4916200000000 1.0
C      1  0.4178730000000  0.4600260000000  0.3227020000000 1.0
C      1  0.4107500000000  0.6936290000000  0.5398400000000 1.0
C      1  0.4134520000000  0.3605270000000  0.6475910000000 1.0
C      1  0.4574120000000  0.6372970000000  0.6156230000000 1.0
C      1  0.4588750000000  0.3281990000000  0.5582200000000 1.0
C      1  0.4721290000000  0.5328300000000  0.3104490000000 1.0
C      1  0.4334780000000  0.6184830000000  0.3246320000000 1.0
C      1  0.4363870000000  0.5880390000000  0.7081640000000 1.0
C      1  0.4344370000000  0.2797910000000  0.4657390000000 1.0
C      1  0.6158930000000  0.2611190000000  0.5808290000000 1.0
C      1  0.6352820000000  0.5362450000000  0.2530850000000 1.0
C      1  0.6161080000000  0.6910060000000  0.6483320000000 1.0
C      1  0.5903930000000  0.4541640000000  0.3950740000000 1.0
C      1  0.5857270000000  0.6081310000000  0.5023600000000 1.0
C      1  0.5941750000000  0.4300240000000  0.6003590000000 1.0
C      1  0.3105960000000  0.4614150000000  0.3475030000000 1.0
C      1  0.3027400000000  0.6618330000000  0.5266750000000 1.0
C      1  0.3060260000000  0.3919270000000  0.6294960000000 1.0
C      1  0.7606790000000  0.4694980000000  0.5627000000000 1.0
C      1  0.7574720000000  0.4641050000000  0.4553200000000 1.0
C      1  0.7556710000000  0.5602540000000  0.5038220000000 1.0
C      1  0.6532730000000  0.3439200000000  0.3563370000000 1.0
C      1  0.6519690000000  0.6992720000000  0.4324930000000 1.0
C      1  0.6554730000000  0.4619380000000  0.7132060000000 1.0
C      1  0.3516960000000  0.3598170000000  0.5306450000000 1.0
C      1  0.2830900000000  0.5677850000000  0.3581960000000 1.0
C      1  0.3490610000000  0.5995960000000  0.6096170000000 1.0
C      1  0.3462160000000  0.6373010000000  0.3587330000000 1.0
C      1  0.3455030000000  0.5429730000000  0.7030280000000 1.0
C      1  0.3444060000000  0.3132040000000  0.4322140000000 1.0
C      1  0.6118840000000  0.7811660000000  0.4572520000000 1.0
C      1  0.6187130000000  0.3999940000000  0.7748200000000 1.0
C      1  0.6159220000000  0.3315400000000  0.2705960000000 1.0
C      1  0.5784640000000  0.3486800000000  0.4383060000000 1.0
C      1  0.5812660000000  0.6274410000000  0.3902820000000 1.0
C      1  0.5789170000000  0.5247260000000  0.6626030000000 1.0
C      1  0.5604640000000  0.6148230000000  0.6064380000000 1.0
C      1  0.5643040000000  0.3425720000000  0.5446100000000 1.0
C      1  0.5747410000000  0.5355270000000  0.3350590000000 1.0
C      1  0.4638600000000  0.4390560000000  0.7513920000000 1.0
C      1  0.4617270000000  0.3274210000000  0.3181510000000 1.0
C      1  0.4580180000000  0.7399260000000  0.4235110000000 1.0
C      1  0.4964980000000  0.6767370000000  0.3639290000000 1.0
C      1  0.5006820000000  0.5236000000000  0.7277130000000 1.0
C      1  0.4987580000000  0.2975430000000  0.4006950000000 1.0
C      1  0.3628290000000  0.4404390000000  0.7110040000000 1.0
C      1  0.3619140000000  0.3631340000000  0.3423070000000 1.0
C      1  0.3574190000000  0.7023030000000  0.4395120000000 1.0
C      1  0.5039950000000  0.4579740000000  0.4546250000000 1.0
C      1  0.4980350000000  0.5498040000000  0.5084030000000 1.0
C      1  0.5006650000000  0.4582990000000  0.5600500000000 1.0
C      1  0.5288320000000  0.3798160000000  0.7845130000000 1.0
C      1  0.5258170000000  0.3346430000000  0.2498900000000 1.0
C      1  0.5210400000000  0.7976610000000  0.4622730000000 1.0
END
