TITL C-3036484-3770-1112 6.26425302011575e-06 3375 -334.400122588356 0 0 60 (C3) n - 1
REM
REM in /home/bkarasulu/work/CARBON/AIRSS/Generating-Clusters/REBO/Higher-Symm/Only-C60
REM
REM
REM
REM
REM
REM ./C.cell (a2850807a9bf4ad07a5b6933b78d9264)
REM AIRSS Version 0.9.1 bugfix July 2018 build 013d7b7c2542+ Fri, 06 Jul 2018 19:26:36 +0100
REM compiler GCC version 9.2.1 20190827 (Red Hat 9.2.1-1)
REM options -cpp -mtune=generic -march=x86-64 -g -O0 -fpre-include=/usr/include/finclude/math-vector-fortran.h
REM seed -2018184747 -84745876 -98880601 352676688 -780224195 -955582583 700650497 -1513299314 239829963 1957007128 -1361497256 -1388973555 -185205297 -249555636 -1760285674 -568470776 579320556 -1971416593 1165311213 -1531186438 1735289396 2069980222 2109640439 -1020908051 -1983145293 -231013841 -1838834444 -1084981623 1910602175 -1443824113 1701548332 1169868548 -196567623
REM
CELL 1.54180   15.00000   15.00000   15.00000   90.00000   90.00000   90.00000
LATT -1
SFAC C  
C      1  0.6028700000000  0.7458750000000  0.4606740000000 1.0
C      1  0.6028650000000  0.3430060000000  0.3067250000000 1.0
C      1  0.6028750000000  0.4111170000000  0.7325940000000 1.0
C      1  0.4872510000000  0.6440250000000  0.3214990000000 1.0
C      1  0.4872530000000  0.2734010000000  0.4645210000000 1.0
C      1  0.4872590000000  0.5825740000000  0.7139800000000 1.0
C      1  0.5559130000000  0.5879530000000  0.2647350000000 1.0
C      1  0.5559180000000  0.2522790000000  0.5414600000000 1.0
C      1  0.5559230000000  0.6597670000000  0.6938000000000 1.0
C      1  0.5360060000000  0.4813140000000  0.2479890000000 1.0
C      1  0.5360140000000  0.2910960000000  0.6421860000000 1.0
C      1  0.5360150000000  0.7275890000000  0.6098210000000 1.0
C      1  0.5616040000000  0.4970840000000  0.6025680000000 1.0
C      1  0.5616010000000  0.5902860000000  0.4512400000000 1.0
C      1  0.5616000000000  0.4126300000000  0.4461880000000 1.0
C      1  0.3110810000000  0.5775400000000  0.4338510000000 1.0
C      1  0.3110810000000  0.4039410000000  0.4659300000000 1.0
C      1  0.3110840000000  0.5185210000000  0.6002320000000 1.0
C      1  0.4359520000000  0.7089360000000  0.4255810000000 1.0
C      1  0.4359500000000  0.3310830000000  0.3562670000000 1.0
C      1  0.4359580000000  0.4599820000000  0.7181550000000 1.0
C      1  0.4055300000000  0.4567890000000  0.4293180000000 1.0
C      1  0.4055330000000  0.4603910000000  0.5727670000000 1.0
C      1  0.4055320000000  0.5828220000000  0.4979230000000 1.0
C      1  0.3546460000000  0.3814790000000  0.6263020000000 1.0
C      1  0.3546450000000  0.6686390000000  0.5394970000000 1.0
C      1  0.3546400000000  0.4498830000000  0.3342120000000 1.0
C      1  0.6656290000000  0.4967120000000  0.5960310000000 1.0
C      1  0.6656260000000  0.5848120000000  0.4548250000000 1.0
C      1  0.6656260000000  0.4184740000000  0.4491320000000 1.0
C      1  0.4283380000000  0.7235400000000  0.5850380000000 1.0
C      1  0.4283300000000  0.4618730000000  0.2638930000000 1.0
C      1  0.4283380000000  0.3145870000000  0.6510750000000 1.0
C      1  0.5396180000000  0.4912820000000  0.7033550000000 1.0
C      1  0.5396120000000  0.6804700000000  0.4058710000000 1.0
C      1  0.5396110000000  0.3282480000000  0.3907720000000 1.0
C      1  0.6339010000000  0.6717190000000  0.6133270000000 1.0
C      1  0.6338930000000  0.5122860000000  0.2946180000000 1.0
C      1  0.6338990000000  0.3159930000000  0.5920460000000 1.0
C      1  0.6882500000000  0.4024680000000  0.5427860000000 1.0
C      1  0.6882510000000  0.5858230000000  0.5630650000000 1.0
C      1  0.6882470000000  0.5117070000000  0.3941360000000 1.0
C      1  0.5045100000000  0.4995260000000  0.4230730000000 1.0
C      1  0.5045120000000  0.4336160000000  0.5388750000000 1.0
C      1  0.5045120000000  0.5668580000000  0.5380530000000 1.0
C      1  0.6683150000000  0.4150600000000  0.3357890000000 1.0
C      1  0.6683220000000  0.4002620000000  0.6556590000000 1.0
C      1  0.6683200000000  0.6846760000000  0.5085400000000 1.0
C      1  0.3864170000000  0.3280280000000  0.4546900000000 1.0
C      1  0.3864230000000  0.5467450000000  0.6715910000000 1.0
C      1  0.3864160000000  0.6252280000000  0.3737260000000 1.0
C      1  0.2820860000000  0.4183700000000  0.5615670000000 1.0
C      1  0.2820860000000  0.5941310000000  0.5399180000000 1.0
C      1  0.2820830000000  0.4875020000000  0.3985290000000 1.0
C      1  0.4999700000000  0.7573210000000  0.5062970000000 1.0
C      1  0.4999640000000  0.3767930000000  0.2740040000000 1.0
C      1  0.4999740000000  0.3658860000000  0.7196980000000 1.0
C      1  0.4521040000000  0.5403170000000  0.3370040000000 1.0
C      1  0.4521080000000  0.3386820000000  0.5465840000000 1.0
C      1  0.4521110000000  0.6210020000000  0.6164150000000 1.0
END
