TITL C-3036486-2224-685 0.0224038878753312 3375 -337.338170745102 0 0 60 (C1) n - 1
REM
REM in /home/bkarasulu/work/CARBON/AIRSS/Generating-Clusters/REBO/Higher-Symm/Only-C60
REM
REM
REM
REM
REM
REM ./C.cell (a2850807a9bf4ad07a5b6933b78d9264)
REM AIRSS Version 0.9.1 bugfix July 2018 build 013d7b7c2542+ Fri, 06 Jul 2018 19:26:36 +0100
REM compiler GCC version 9.2.1 20190827 (Red Hat 9.2.1-1)
REM options -cpp -mtune=generic -march=x86-64 -g -O0 -fpre-include=/usr/include/finclude/math-vector-fortran.h
REM seed 919367976 -554975904 -2089819794 1182407876 899104412 -229157129 -75518445 639753385 1061047957 -1241699947 -570925418 -1802335358 1803431861 -144022119 -286907878 398414035 1656397004 -1627486595 331996811 1827800768 734058137 -1480758396 -1111441226 -391527834 325813827 -1429445629 -1685022423 2073532674 1104286904 1193925073 857985635 1334624910 1234544566
REM
CELL 1.54180   15.00000   15.00000   15.00000   90.00000   90.00000   90.00000
LATT -1
SFAC C  
C      1  0.3486090000000  0.3912780000000  0.4165940000000 1.0
C      1  0.6516210000000  0.3904440000000  0.5855520000000 1.0
C      1  0.6618880000000  0.3863010000000  0.4187470000000 1.0
C      1  0.3427280000000  0.3865520000000  0.5834010000000 1.0
C      1  0.7095880000000  0.4755500000000  0.5537420000000 1.0
C      1  0.2910490000000  0.4757200000000  0.4490590000000 1.0
C      1  0.2889630000000  0.4744090000000  0.5531350000000 1.0
C      1  0.7128950000000  0.4752020000000  0.4497270000000 1.0
C      1  0.3801770000000  0.7676380000000  0.5444800000000 1.0
C      1  0.6200200000000  0.7678140000000  0.4585920000000 1.0
C      1  0.6201560000000  0.7681410000000  0.5419120000000 1.0
C      1  0.3804120000000  0.7681590000000  0.4611630000000 1.0
C      1  0.4564080000000  0.3005040000000  0.3313030000000 1.0
C      1  0.5437490000000  0.3002320000000  0.6721500000000 1.0
C      1  0.5568550000000  0.2869270000000  0.3348590000000 1.0
C      1  0.4424040000000  0.2880420000000  0.6692530000000 1.0
C      1  0.3810660000000  0.6886740000000  0.4020440000000 1.0
C      1  0.6195430000000  0.6883990000000  0.6006270000000 1.0
C      1  0.6191860000000  0.6878430000000  0.4000500000000 1.0
C      1  0.3805980000000  0.6874920000000  0.6027970000000 1.0
C      1  0.3886460000000  0.4527390000000  0.2972170000000 1.0
C      1  0.6122310000000  0.4531460000000  0.7050380000000 1.0
C      1  0.6051130000000  0.4478210000000  0.2978410000000 1.0
C      1  0.3959470000000  0.4489230000000  0.7049730000000 1.0
C      1  0.5504930000000  0.3735340000000  0.2727450000000 1.0
C      1  0.4503330000000  0.3745500000000  0.7302470000000 1.0
C      1  0.4425980000000  0.3810270000000  0.2669570000000 1.0
C      1  0.5579630000000  0.3818050000000  0.7355950000000 1.0
C      1  0.5874280000000  0.5143160000000  0.6266680000000 1.0
C      1  0.4129150000000  0.5147300000000  0.3749720000000 1.0
C      1  0.4148700000000  0.5132690000000  0.6266650000000 1.0
C      1  0.5861200000000  0.5136000000000  0.3746750000000 1.0
C      1  0.3321310000000  0.6082000000000  0.6677570000000 1.0
C      1  0.6687440000000  0.6092230000000  0.3351160000000 1.0
C      1  0.6693540000000  0.6106580000000  0.6660600000000 1.0
C      1  0.3307350000000  0.6112150000000  0.3366030000000 1.0
C      1  0.7165380000000  0.5430050000000  0.3797170000000 1.0
C      1  0.2844940000000  0.5418310000000  0.6233690000000 1.0
C      1  0.2831060000000  0.5444480000000  0.3804110000000 1.0
C      1  0.7172310000000  0.5441590000000  0.6223420000000 1.0
C      1  0.3832340000000  0.5888460000000  0.4561530000000 1.0
C      1  0.6175830000000  0.5888140000000  0.5460850000000 1.0
C      1  0.6166280000000  0.5885210000000  0.4550480000000 1.0
C      1  0.3832010000000  0.5885520000000  0.5471810000000 1.0
C      1  0.5534440000000  0.6164620000000  0.3411710000000 1.0
C      1  0.4472820000000  0.6160870000000  0.6606280000000 1.0
C      1  0.4461150000000  0.6173850000000  0.3422260000000 1.0
C      1  0.5540570000000  0.6169100000000  0.6597390000000 1.0
C      1  0.4108540000000  0.3074530000000  0.5804190000000 1.0
C      1  0.5931540000000  0.3055410000000  0.4219070000000 1.0
C      1  0.5776870000000  0.3149460000000  0.5834640000000 1.0
C      1  0.4207650000000  0.3149870000000  0.4181300000000 1.0
C      1  0.5016770000000  0.4819580000000  0.5841420000000 1.0
C      1  0.4990980000000  0.4845930000000  0.4180270000000 1.0
C      1  0.3962980000000  0.4144780000000  0.5026440000000 1.0
C      1  0.6060280000000  0.4129840000000  0.4984340000000 1.0
C      1  0.5019000000000  0.4123200000000  0.4995070000000 1.0
C      1  0.4965070000000  0.3025030000000  0.5032470000000 1.0
C      1  0.5001690000000  0.6334270000000  0.5017770000000 1.0
C      1  0.5001540000000  0.5452220000000  0.5017850000000 1.0
END
