TITL C-3036482-790-395 0.0211547760300955 3375 -333.778822296028 0 0 60 (C1) n - 1
REM
REM in /home/bkarasulu/work/CARBON/AIRSS/Generating-Clusters/REBO/Higher-Symm/Only-C60
REM
REM
REM
REM
REM
REM ./C.cell (a2850807a9bf4ad07a5b6933b78d9264)
REM AIRSS Version 0.9.1 bugfix July 2018 build 013d7b7c2542+ Fri, 06 Jul 2018 19:26:36 +0100
REM compiler GCC version 9.2.1 20190827 (Red Hat 9.2.1-1)
REM options -cpp -mtune=generic -march=x86-64 -g -O0 -fpre-include=/usr/include/finclude/math-vector-fortran.h
REM seed -1191476456 -401087956 36849225 -406934704 -194637754 -470918998 1387020745 648460556 -941877166 -56101750 629747703 -1426962123 393527899 -696934068 1009973203 862918611 -324132085 -522919203 -206540751 -152675022 -1495978995 1517264085 418190002 1266749541 1355104159 -1218860829 1801058032 1054388759 -1495370778 -1186795653 -1336990424 -301776593 891950151
REM
CELL 1.54180   15.00000   15.00000   15.00000   90.00000   90.00000   90.00000
LATT -1
SFAC C  
C      1  0.5286610000000  0.5471180000000  0.4202940000000 1.0
C      1  0.4296310000000  0.3173370000000  0.6677190000000 1.0
C      1  0.6593130000000  0.4078990000000  0.3452130000000 1.0
C      1  0.6025000000000  0.5204380000000  0.4663040000000 1.0
C      1  0.4960870000000  0.6879960000000  0.6196800000000 1.0
C      1  0.5229320000000  0.5268220000000  0.3237200000000 1.0
C      1  0.4998410000000  0.3288440000000  0.3488110000000 1.0
C      1  0.4824510000000  0.6303420000000  0.4458660000000 1.0
C      1  0.6751450000000  0.3619510000000  0.4497320000000 1.0
C      1  0.7152630000000  0.6206420000000  0.5799360000000 1.0
C      1  0.5095800000000  0.3650990000000  0.6911490000000 1.0
C      1  0.3073500000000  0.3424400000000  0.5190190000000 1.0
C      1  0.4512970000000  0.2494660000000  0.6000460000000 1.0
C      1  0.6874470000000  0.4867510000000  0.4085650000000 1.0
C      1  0.5248860000000  0.7041600000000  0.5200530000000 1.0
C      1  0.6134090000000  0.5378620000000  0.5568330000000 1.0
C      1  0.5497630000000  0.4239750000000  0.6063660000000 1.0
C      1  0.4968870000000  0.4257080000000  0.2911360000000 1.0
C      1  0.6545720000000  0.6431140000000  0.4700510000000 1.0
C      1  0.6041280000000  0.4362060000000  0.2707380000000 1.0
C      1  0.4136010000000  0.3653380000000  0.5461070000000 1.0
C      1  0.7269160000000  0.4454830000000  0.5072890000000 1.0
C      1  0.4041490000000  0.5789230000000  0.2931990000000 1.0
C      1  0.5807190000000  0.6767700000000  0.6780610000000 1.0
C      1  0.3381640000000  0.3717480000000  0.6263740000000 1.0
C      1  0.5338720000000  0.5865570000000  0.6974160000000 1.0
C      1  0.4820410000000  0.2568020000000  0.5111550000000 1.0
C      1  0.3304200000000  0.6174930000000  0.3972220000000 1.0
C      1  0.6977690000000  0.5219990000000  0.6115260000000 1.0
C      1  0.2971360000000  0.6378080000000  0.5040920000000 1.0
C      1  0.4412850000000  0.5480960000000  0.5531430000000 1.0
C      1  0.2896480000000  0.5583390000000  0.5845210000000 1.0
C      1  0.5168370000000  0.7183510000000  0.3524680000000 1.0
C      1  0.3372730000000  0.6029200000000  0.6570100000000 1.0
C      1  0.7030060000000  0.4175380000000  0.6147230000000 1.0
C      1  0.4204850000000  0.6586450000000  0.3547340000000 1.0
C      1  0.5461290000000  0.3384910000000  0.4733860000000 1.0
C      1  0.7281740000000  0.5578530000000  0.4869240000000 1.0
C      1  0.6226020000000  0.6809900000000  0.5727920000000 1.0
C      1  0.6073080000000  0.6629090000000  0.3925560000000 1.0
C      1  0.6215350000000  0.3781690000000  0.6806470000000 1.0
C      1  0.3129020000000  0.4651200000000  0.5655790000000 1.0
C      1  0.5533000000000  0.6188250000000  0.3106410000000 1.0
C      1  0.5378150000000  0.5568580000000  0.6047680000000 1.0
C      1  0.3987120000000  0.4775290000000  0.3043020000000 1.0
C      1  0.4541210000000  0.4035520000000  0.4521170000000 1.0
C      1  0.5996120000000  0.3208780000000  0.3796210000000 1.0
C      1  0.6242400000000  0.3714440000000  0.5474120000000 1.0
C      1  0.3949580000000  0.6922400000000  0.4861300000000 1.0
C      1  0.3761840000000  0.5603750000000  0.4836720000000 1.0
C      1  0.4770420000000  0.4522110000000  0.5497760000000 1.0
C      1  0.4662450000000  0.5482990000000  0.7484510000000 1.0
C      1  0.3934690000000  0.5027270000000  0.7668890000000 1.0
C      1  0.3445360000000  0.3086430000000  0.4207680000000 1.0
C      1  0.4403670000000  0.2745700000000  0.4217470000000 1.0
C      1  0.4707600000000  0.7616770000000  0.4401230000000 1.0
C      1  0.3421290000000  0.4347310000000  0.4600300000000 1.0
C      1  0.3423140000000  0.5081120000000  0.3877400000000 1.0
C      1  0.4262220000000  0.6247760000000  0.6286540000000 1.0
C      1  0.3948590000000  0.3720410000000  0.3450020000000 1.0
END
