TITL C-3036480-97-920 -1.09410460778008e-06 3375 -350.007967995801 0 0 60 (C1) n - 1
REM
REM in /home/bkarasulu/work/CARBON/AIRSS/Generating-Clusters/REBO/Higher-Symm/Only-C60
REM
REM
REM
REM
REM
REM ./C.cell (a2850807a9bf4ad07a5b6933b78d9264)
REM AIRSS Version 0.9.1 bugfix July 2018 build 013d7b7c2542+ Fri, 06 Jul 2018 19:26:36 +0100
REM compiler GCC version 9.2.1 20190827 (Red Hat 9.2.1-1)
REM options -cpp -mtune=generic -march=x86-64 -g -O0 -fpre-include=/usr/include/finclude/math-vector-fortran.h
REM seed -828429672 -815512983 -1795844977 1055678242 -1507336895 338799108 -81590698 -1558231295 1562141067 -185810387 -1873191306 -606698786 -482286939 -525715490 1343146833 -1472756582 -1177335836 1799828240 -814104552 1716379661 157343456 -547541257 -1453684770 -834138147 1453860390 -1013656764 1019794364 20326821 1409436972 -608380652 1321596724 -1802415816 -1497697005
REM
CELL 1.54180   15.00000   15.00000   15.00000   90.00000   90.00000   90.00000
LATT -1
SFAC C  
C      1  0.7435860000000  0.3807210000000  0.5506960000000 1.0
C      1  0.4688560000000  0.7708520000000  0.5467020000000 1.0
C      1  0.2878520000000  0.3533570000000  0.5509220000000 1.0
C      1  0.7227100000000  0.3804250000000  0.4531660000000 1.0
C      1  0.4576600000000  0.7786720000000  0.4458700000000 1.0
C      1  0.2951490000000  0.3546040000000  0.4509830000000 1.0
C      1  0.7245130000000  0.6012500000000  0.5389730000000 1.0
C      1  0.4729770000000  0.2318190000000  0.5632970000000 1.0
C      1  0.2940250000000  0.6446920000000  0.5435270000000 1.0
C      1  0.7195710000000  0.5998420000000  0.4393480000000 1.0
C      1  0.4697800000000  0.2300140000000  0.4635930000000 1.0
C      1  0.2824020000000  0.6497630000000  0.4446520000000 1.0
C      1  0.5013090000000  0.4121890000000  0.7000160000000 1.0
C      1  0.5856760000000  0.5487720000000  0.7655420000000 1.0
C      1  0.4127310000000  0.5508660000000  0.7515090000000 1.0
C      1  0.5125330000000  0.4036110000000  0.2652670000000 1.0
C      1  0.5990050000000  0.5480090000000  0.2781910000000 1.0
C      1  0.4223070000000  0.5453890000000  0.2701040000000 1.0
C      1  0.5022900000000  0.5974880000000  0.7357940000000 1.0
C      1  0.5872780000000  0.4522280000000  0.7355010000000 1.0
C      1  0.4118620000000  0.4559940000000  0.7182780000000 1.0
C      1  0.5090050000000  0.5880590000000  0.2988160000000 1.0
C      1  0.6002260000000  0.4510300000000  0.2512860000000 1.0
C      1  0.4263490000000  0.4505100000000  0.2381040000000 1.0
C      1  0.6159760000000  0.6328790000000  0.4688220000000 1.0
C      1  0.3340280000000  0.5543610000000  0.4544990000000 1.0
C      1  0.5349670000000  0.3015080000000  0.4277620000000 1.0
C      1  0.6318450000000  0.6263830000000  0.5809110000000 1.0
C      1  0.3415900000000  0.5546360000000  0.5676950000000 1.0
C      1  0.5423580000000  0.3136080000000  0.5375270000000 1.0
C      1  0.6176270000000  0.3729500000000  0.4404090000000 1.0
C      1  0.3400400000000  0.4464360000000  0.4218240000000 1.0
C      1  0.5263480000000  0.6974580000000  0.4527420000000 1.0
C      1  0.6351470000000  0.3778760000000  0.5530560000000 1.0
C      1  0.3380510000000  0.4479310000000  0.5351570000000 1.0
C      1  0.5416110000000  0.6924660000000  0.5628160000000 1.0
C      1  0.3783560000000  0.7797880000000  0.3976770000000 1.0
C      1  0.3169900000000  0.2740760000000  0.4083590000000 1.0
C      1  0.7661460000000  0.4424440000000  0.3972280000000 1.0
C      1  0.3906100000000  0.7727650000000  0.5985530000000 1.0
C      1  0.3178170000000  0.2849720000000  0.6064290000000 1.0
C      1  0.7914960000000  0.4506410000000  0.5900300000000 1.0
C      1  0.3888030000000  0.2188580000000  0.4177820000000 1.0
C      1  0.3052520000000  0.7254160000000  0.3957520000000 1.0
C      1  0.7600940000000  0.5330290000000  0.3898300000000 1.0
C      1  0.3944740000000  0.2361600000000  0.6133250000000 1.0
C      1  0.3160040000000  0.7207170000000  0.5936580000000 1.0
C      1  0.7810850000000  0.5407800000000  0.5827690000000 1.0
C      1  0.5043770000000  0.3810630000000  0.3712900000000 1.0
C      1  0.5971740000000  0.5526580000000  0.3919930000000 1.0
C      1  0.4143710000000  0.5496310000000  0.3838970000000 1.0
C      1  0.5094030000000  0.3980380000000  0.5902490000000 1.0
C      1  0.5975430000000  0.5553870000000  0.6525910000000 1.0
C      1  0.4189470000000  0.5619390000000  0.6384830000000 1.0
C      1  0.5018590000000  0.6100460000000  0.4046660000000 1.0
C      1  0.5935170000000  0.4486850000000  0.3660320000000 1.0
C      1  0.4178520000000  0.4403640000000  0.3512670000000 1.0
C      1  0.5080040000000  0.6187170000000  0.6276270000000 1.0
C      1  0.6017390000000  0.4518540000000  0.6226980000000 1.0
C      1  0.4188500000000  0.4533240000000  0.6044600000000 1.0
END
