TITL C-3036485-3770-608 0.0375399993314883 3375 -331.023274633724 0 0 60 (C1) n - 1
REM
REM in /home/bkarasulu/work/CARBON/AIRSS/Generating-Clusters/REBO/Higher-Symm/Only-C60
REM
REM
REM
REM
REM
REM ./C.cell (a2850807a9bf4ad07a5b6933b78d9264)
REM AIRSS Version 0.9.1 bugfix July 2018 build 013d7b7c2542+ Fri, 06 Jul 2018 19:26:36 +0100
REM compiler GCC version 9.2.1 20190827 (Red Hat 9.2.1-1)
REM options -cpp -mtune=generic -march=x86-64 -g -O0 -fpre-include=/usr/include/finclude/math-vector-fortran.h
REM seed 735041556 343536274 -100634399 -1379201656 633578611 681263521 -993399966 348392125 1073305420 1570291223 -1174761963 575863669 838625027 -902034976 664993280 -1671284432 -1011672957 241110715 2094603508 532369147 1492863612 -1772425445 -374309661 -1104609684 1417681293 78328582 -323547900 1418179018 1141540411 736818614 -475238809 1981996284 624741657
REM
CELL 1.54180   15.00000   15.00000   15.00000   90.00000   90.00000   90.00000
LATT -1
SFAC C  
C      1  0.3943520000000  0.3925020000000  0.4526280000000 1.0
C      1  0.7763090000000  0.5915460000000  0.5796240000000 1.0
C      1  0.6870390000000  0.5936130000000  0.5556490000000 1.0
C      1  0.7058280000000  0.4365080000000  0.4709880000000 1.0
C      1  0.3139100000000  0.6549010000000  0.3921970000000 1.0
C      1  0.3033370000000  0.3433830000000  0.5030910000000 1.0
C      1  0.5512010000000  0.3911080000000  0.6028220000000 1.0
C      1  0.5616480000000  0.3839690000000  0.4516270000000 1.0
C      1  0.3883600000000  0.2877300000000  0.5334090000000 1.0
C      1  0.5656270000000  0.3295760000000  0.3156390000000 1.0
C      1  0.3409550000000  0.5115610000000  0.5471000000000 1.0
C      1  0.4599360000000  0.2983630000000  0.4466870000000 1.0
C      1  0.5349490000000  0.4381730000000  0.6973740000000 1.0
C      1  0.4299860000000  0.5425520000000  0.4984000000000 1.0
C      1  0.4951870000000  0.6131070000000  0.4531020000000 1.0
C      1  0.5685000000000  0.2745240000000  0.4690880000000 1.0
C      1  0.4091530000000  0.5938170000000  0.7218450000000 1.0
C      1  0.5675150000000  0.6996400000000  0.4776300000000 1.0
C      1  0.3972470000000  0.4173480000000  0.5606260000000 1.0
C      1  0.3954080000000  0.7374320000000  0.5080050000000 1.0
C      1  0.3064480000000  0.7121780000000  0.4792060000000 1.0
C      1  0.4984360000000  0.5992250000000  0.5970110000000 1.0
C      1  0.4994090000000  0.5316120000000  0.7431160000000 1.0
C      1  0.3056090000000  0.5926890000000  0.6005460000000 1.0
C      1  0.4056160000000  0.6534480000000  0.3632930000000 1.0
C      1  0.6647770000000  0.4539750000000  0.6701360000000 1.0
C      1  0.4362620000000  0.6948620000000  0.5923720000000 1.0
C      1  0.5339510000000  0.5168970000000  0.5358950000000 1.0
C      1  0.6080020000000  0.6118000000000  0.6279990000000 1.0
C      1  0.4734400000000  0.3304130000000  0.3444190000000 1.0
C      1  0.2699060000000  0.6183460000000  0.5111990000000 1.0
C      1  0.2677820000000  0.4277610000000  0.5316730000000 1.0
C      1  0.6616830000000  0.6382160000000  0.4653020000000 1.0
C      1  0.4651400000000  0.7174380000000  0.4311310000000 1.0
C      1  0.3603910000000  0.4794680000000  0.3879290000000 1.0
C      1  0.4901660000000  0.4894270000000  0.3625400000000 1.0
C      1  0.4699510000000  0.3480090000000  0.6979030000000 1.0
C      1  0.5323720000000  0.4674450000000  0.4435230000000 1.0
C      1  0.6151120000000  0.3150490000000  0.5523770000000 1.0
C      1  0.6284450000000  0.2926980000000  0.3820960000000 1.0
C      1  0.3951130000000  0.4901750000000  0.7289580000000 1.0
C      1  0.5727850000000  0.6217890000000  0.3062360000000 1.0
C      1  0.4254220000000  0.3270250000000  0.6212210000000 1.0
C      1  0.3705540000000  0.6389280000000  0.6508980000000 1.0
C      1  0.4323780000000  0.4128460000000  0.3275040000000 1.0
C      1  0.5590100000000  0.4714310000000  0.2241770000000 1.0
C      1  0.6775350000000  0.4063950000000  0.5680430000000 1.0
C      1  0.5495160000000  0.6665780000000  0.2378150000000 1.0
C      1  0.6670750000000  0.5249520000000  0.4182510000000 1.0
C      1  0.5491720000000  0.6975880000000  0.5823340000000 1.0
C      1  0.5988040000000  0.4174230000000  0.2844650000000 1.0
C      1  0.5979320000000  0.3114970000000  0.6645440000000 1.0
C      1  0.3642210000000  0.4366610000000  0.6649500000000 1.0
C      1  0.4286630000000  0.5655950000000  0.3485680000000 1.0
C      1  0.5836960000000  0.5916150000000  0.4016350000000 1.0
C      1  0.6321780000000  0.5043810000000  0.5532910000000 1.0
C      1  0.6982310000000  0.3603700000000  0.3984160000000 1.0
C      1  0.6688350000000  0.4455730000000  0.3451230000000 1.0
C      1  0.2897380000000  0.5553490000000  0.4228940000000 1.0
C      1  0.5997960000000  0.5315210000000  0.6934820000000 1.0
END
