TITL C-3036480-97-444 -5.55268441083522e-06 3375 -325.943055287061 0 0 60 (C1) n - 1
REM
REM in /home/bkarasulu/work/CARBON/AIRSS/Generating-Clusters/REBO/Higher-Symm/Only-C60
REM
REM
REM
REM
REM
REM ./C.cell (a2850807a9bf4ad07a5b6933b78d9264)
REM AIRSS Version 0.9.1 bugfix July 2018 build 013d7b7c2542+ Fri, 06 Jul 2018 19:26:36 +0100
REM compiler GCC version 9.2.1 20190827 (Red Hat 9.2.1-1)
REM options -cpp -mtune=generic -march=x86-64 -g -O0 -fpre-include=/usr/include/finclude/math-vector-fortran.h
REM seed 1019614533 307538550 1906081658 -1843633332 -2123909396 656483386 -427792146 180682758 -399456419 250814798 139644561 241892901 -293300547 1663465727 -1702728662 -1344510487 1774991090 -699683367 928520626 -311737903 1184074701 -36861872 -265915107 -1718222094 196840652 1613174642 683253357 448954967 199489794 60377069 -1750360434 1622935110 -678764544
REM
CELL 1.54180   15.00000   15.00000   15.00000   90.00000   90.00000   90.00000
LATT -1
SFAC C  
C      1  0.3686380000000  0.5936260000000  0.4493190000000 1.0
C      1  0.4462040000000  0.5854280000000  0.6180530000000 1.0
C      1  0.6130760000000  0.5553910000000  0.5524510000000 1.0
C      1  0.5427800000000  0.5596520000000  0.3781560000000 1.0
C      1  0.6149850000000  0.5738290000000  0.4548950000000 1.0
C      1  0.5461850000000  0.5928140000000  0.6277110000000 1.0
C      1  0.3672300000000  0.5736640000000  0.5483960000000 1.0
C      1  0.4449220000000  0.5525010000000  0.3873240000000 1.0
C      1  0.3703140000000  0.5635370000000  0.7241570000000 1.0
C      1  0.7021410000000  0.5649430000000  0.6498270000000 1.0
C      1  0.6449680000000  0.5775010000000  0.2960400000000 1.0
C      1  0.2656770000000  0.5813400000000  0.3683220000000 1.0
C      1  0.6263860000000  0.5793270000000  0.7319640000000 1.0
C      1  0.2884620000000  0.5628370000000  0.6539860000000 1.0
C      1  0.3508980000000  0.5642820000000  0.2954950000000 1.0
C      1  0.7206460000000  0.5749080000000  0.3760190000000 1.0
C      1  0.5904800000000  0.4967310000000  0.6691450000000 1.0
C      1  0.6521090000000  0.4861450000000  0.3926900000000 1.0
C      1  0.4057070000000  0.4700900000000  0.3317670000000 1.0
C      1  0.3116310000000  0.4849090000000  0.5742230000000 1.0
C      1  0.3978360000000  0.4874090000000  0.6445650000000 1.0
C      1  0.3264700000000  0.4965160000000  0.4068890000000 1.0
C      1  0.5800100000000  0.4849040000000  0.3081940000000 1.0
C      1  0.6671480000000  0.4725350000000  0.5907940000000 1.0
C      1  0.4305150000000  0.3175520000000  0.6920000000000 1.0
C      1  0.6947660000000  0.2989910000000  0.5649130000000 1.0
C      1  0.5840840000000  0.3076410000000  0.2917890000000 1.0
C      1  0.3018590000000  0.3189080000000  0.4167810000000 1.0
C      1  0.5829350000000  0.3230390000000  0.6968010000000 1.0
C      1  0.3106760000000  0.3092150000000  0.5691210000000 1.0
C      1  0.4328950000000  0.2925550000000  0.3103680000000 1.0
C      1  0.7091320000000  0.3144520000000  0.4135010000000 1.0
C      1  0.4660190000000  0.6976110000000  0.6134670000000 1.0
C      1  0.6245240000000  0.6664380000000  0.5495370000000 1.0
C      1  0.5636610000000  0.6716140000000  0.3812690000000 1.0
C      1  0.3916190000000  0.7053850000000  0.4455400000000 1.0
C      1  0.5664070000000  0.7056010000000  0.6215320000000 1.0
C      1  0.3940540000000  0.6826780000000  0.5445300000000 1.0
C      1  0.4621940000000  0.6644960000000  0.3871620000000 1.0
C      1  0.6335980000000  0.6877180000000  0.4505420000000 1.0
C      1  0.4491110000000  0.6010060000000  0.7639080000000 1.0
C      1  0.7390990000000  0.5980620000000  0.5586120000000 1.0
C      1  0.5429830000000  0.5993990000000  0.2516560000000 1.0
C      1  0.2367600000000  0.5985020000000  0.4676720000000 1.0
C      1  0.5413770000000  0.6118030000000  0.7688690000000 1.0
C      1  0.2367060000000  0.5939490000000  0.5614510000000 1.0
C      1  0.4491740000000  0.5914740000000  0.2601140000000 1.0
C      1  0.7468370000000  0.6033970000000  0.4660130000000 1.0
C      1  0.6351110000000  0.3841420000000  0.5440810000000 1.0
C      1  0.5625810000000  0.3909370000000  0.3558980000000 1.0
C      1  0.3692200000000  0.4005220000000  0.4387370000000 1.0
C      1  0.4512110000000  0.3971290000000  0.6236360000000 1.0
C      1  0.3687410000000  0.3973330000000  0.5506950000000 1.0
C      1  0.4529440000000  0.3811780000000  0.3648390000000 1.0
C      1  0.6371660000000  0.3899510000000  0.4370940000000 1.0
C      1  0.5602940000000  0.4023870000000  0.6270770000000 1.0
C      1  0.5091150000000  0.2576780000000  0.2718280000000 1.0
C      1  0.2758150000000  0.2728000000000  0.4921000000000 1.0
C      1  0.5070450000000  0.2813240000000  0.7282550000000 1.0
C      1  0.7348710000000  0.2664560000000  0.4882260000000 1.0
END
