TITL C-3036483-1610-363 1.34090518504542e-07 3375 -339.129049851455 0 0 60 (Td) n - 1
REM
REM in /home/bkarasulu/work/CARBON/AIRSS/Generating-Clusters/REBO/Higher-Symm/Only-C60
REM
REM
REM
REM
REM
REM ./C.cell (a2850807a9bf4ad07a5b6933b78d9264)
REM AIRSS Version 0.9.1 bugfix July 2018 build 013d7b7c2542+ Fri, 06 Jul 2018 19:26:36 +0100
REM compiler GCC version 9.2.1 20190827 (Red Hat 9.2.1-1)
REM options -cpp -mtune=generic -march=x86-64 -g -O0 -fpre-include=/usr/include/finclude/math-vector-fortran.h
REM seed -1866745104 682820309 -1629210748 881540436 1427298705 -1052295308 1074986650 -956908407 -1317193453 2023857182 1127599670 161796759 1101621219 1908335577 -279389756 579167063 2043626332 -1786373126 -34953210 302413585 2029580562 266681288 1484759967 98749502 1121865445 309644852 -998569267 -151443912 -108238276 83116041 -1991893106 -1631307009 -1795183555
REM
CELL 1.54180   15.00000   15.00000   15.00000   90.00000   90.00000   90.00000
LATT -1
SFAC C  
C      1  0.4205740000000  0.6476770000000  0.4995470000000 1.0
C      1  0.6476770000000  0.4995470000000  0.4205740000000 1.0
C      1  0.4995470000000  0.4205740000000  0.6476770000000 1.0
C      1  0.5794260000000  0.3523230000000  0.4995470000000 1.0
C      1  0.4205740000000  0.3523230000000  0.5004530000000 1.0
C      1  0.5794260000000  0.6476770000000  0.5004530000000 1.0
C      1  0.3523230000000  0.5004530000000  0.4205740000000 1.0
C      1  0.6476770000000  0.5004530000000  0.5794260000000 1.0
C      1  0.3523230000000  0.4995470000000  0.5794260000000 1.0
C      1  0.5004530000000  0.5794260000000  0.6476770000000 1.0
C      1  0.4995470000000  0.5794260000000  0.3523230000000 1.0
C      1  0.5004530000000  0.4205740000000  0.3523230000000 1.0
C      1  0.6476770000000  0.4205740000000  0.4995470000000 1.0
C      1  0.4995470000000  0.6476770000000  0.4205740000000 1.0
C      1  0.4205740000000  0.4995470000000  0.6476770000000 1.0
C      1  0.3523230000000  0.5794260000000  0.4995470000000 1.0
C      1  0.3523230000000  0.4205740000000  0.5004530000000 1.0
C      1  0.6476770000000  0.5794260000000  0.5004530000000 1.0
C      1  0.5004530000000  0.3523230000000  0.4205740000000 1.0
C      1  0.5004530000000  0.6476770000000  0.5794260000000 1.0
C      1  0.4995470000000  0.3523230000000  0.5794260000000 1.0
C      1  0.5794260000000  0.5004530000000  0.6476770000000 1.0
C      1  0.5794260000000  0.4995470000000  0.3523230000000 1.0
C      1  0.4205740000000  0.5004530000000  0.3523230000000 1.0
C      1  0.5917990000000  0.7552600000000  0.4807810000000 1.0
C      1  0.7552600000000  0.4807810000000  0.5917990000000 1.0
C      1  0.4807810000000  0.5917990000000  0.7552600000000 1.0
C      1  0.4082010000000  0.2447400000000  0.4807810000000 1.0
C      1  0.5917990000000  0.2447400000000  0.5192190000000 1.0
C      1  0.4082010000000  0.7552600000000  0.5192190000000 1.0
C      1  0.2447400000000  0.5192190000000  0.5917990000000 1.0
C      1  0.7552600000000  0.5192190000000  0.4082010000000 1.0
C      1  0.2447400000000  0.4807810000000  0.4082010000000 1.0
C      1  0.5192190000000  0.4082010000000  0.7552600000000 1.0
C      1  0.4807810000000  0.4082010000000  0.2447400000000 1.0
C      1  0.5192190000000  0.5917990000000  0.2447400000000 1.0
C      1  0.7552600000000  0.5917990000000  0.4807810000000 1.0
C      1  0.4807810000000  0.7552600000000  0.5917990000000 1.0
C      1  0.5917990000000  0.4807810000000  0.7552600000000 1.0
C      1  0.2447400000000  0.4082010000000  0.4807810000000 1.0
C      1  0.2447400000000  0.5917990000000  0.5192190000000 1.0
C      1  0.7552600000000  0.4082010000000  0.5192190000000 1.0
C      1  0.5192190000000  0.2447400000000  0.5917990000000 1.0
C      1  0.5192190000000  0.7552600000000  0.4082010000000 1.0
C      1  0.4807810000000  0.2447400000000  0.4082010000000 1.0
C      1  0.4082010000000  0.5192190000000  0.7552600000000 1.0
C      1  0.4082010000000  0.4807810000000  0.2447400000000 1.0
C      1  0.5917990000000  0.5192190000000  0.2447400000000 1.0
C      1  0.5612570000000  0.1990160000000  0.4387430000000 1.0
C      1  0.8009840000000  0.4387430000000  0.4387430000000 1.0
C      1  0.5612570000000  0.8009840000000  0.5612570000000 1.0
C      1  0.4387430000000  0.4387430000000  0.8009840000000 1.0
C      1  0.5612570000000  0.4387430000000  0.1990160000000 1.0
C      1  0.4387430000000  0.1990160000000  0.5612570000000 1.0
C      1  0.4387430000000  0.8009840000000  0.4387430000000 1.0
C      1  0.1990160000000  0.4387430000000  0.5612570000000 1.0
C      1  0.1990160000000  0.5612570000000  0.4387430000000 1.0
C      1  0.4387430000000  0.5612570000000  0.1990160000000 1.0
C      1  0.5612570000000  0.5612570000000  0.8009840000000 1.0
C      1  0.8009840000000  0.5612570000000  0.5612570000000 1.0
END
