TITL C-3036480-97-93 0.00382841659350625 3375 -340.31397502142 0 0 60 (Cs) n - 1
REM
REM in /home/bkarasulu/work/CARBON/AIRSS/Generating-Clusters/REBO/Higher-Symm/Only-C60
REM
REM
REM
REM
REM
REM ./C.cell (a2850807a9bf4ad07a5b6933b78d9264)
REM AIRSS Version 0.9.1 bugfix July 2018 build 013d7b7c2542+ Fri, 06 Jul 2018 19:26:36 +0100
REM compiler GCC version 9.2.1 20190827 (Red Hat 9.2.1-1)
REM options -cpp -mtune=generic -march=x86-64 -g -O0 -fpre-include=/usr/include/finclude/math-vector-fortran.h
REM seed -1112154023 -1979413657 -1735635515 -1223639270 -1263546706 1121683905 1035384350 -447893734 833616680 1620586048 1143243104 1901040262 -1137610648 1103378046 -328410358 1254427201 1465966746 -921624546 -1871690742 -1754720598 -1341064088 1637495923 1747457179 54091899 1976093394 -761586422 -553383276 322259354 -236064851 400848317 -861367310 1954067587 -748460410
REM
CELL 1.54180   15.00000   15.00000   15.00000   90.00000   90.00000   90.00000
LATT -1
SFAC C  
C      1  0.5850040000000  0.4466720000000  0.3573440000000 1.0
C      1  0.3591780000000  0.5869980000000  0.4465720000000 1.0
C      1  0.4471640000000  0.3568870000000  0.5848190000000 1.0
C      1  0.4148040000000  0.5533740000000  0.3575490000000 1.0
C      1  0.4146230000000  0.4466910000000  0.6416810000000 1.0
C      1  0.5845080000000  0.5533470000000  0.6423540000000 1.0
C      1  0.6429590000000  0.4155280000000  0.4465350000000 1.0
C      1  0.6425310000000  0.5845100000000  0.5532380000000 1.0
C      1  0.3577470000000  0.4134480000000  0.5530200000000 1.0
C      1  0.5537740000000  0.6426710000000  0.5846010000000 1.0
C      1  0.5544780000000  0.3572110000000  0.4148710000000 1.0
C      1  0.4480460000000  0.6432370000000  0.4145290000000 1.0
C      1  0.5845090000000  0.4466490000000  0.6423490000000 1.0
C      1  0.3577380000000  0.5865500000000  0.5530170000000 1.0
C      1  0.4480460000000  0.3567600000000  0.4145320000000 1.0
C      1  0.4146210000000  0.5533180000000  0.6416830000000 1.0
C      1  0.4148080000000  0.4466330000000  0.3575590000000 1.0
C      1  0.5850060000000  0.5533300000000  0.3573370000000 1.0
C      1  0.6425260000000  0.4154910000000  0.5532370000000 1.0
C      1  0.6429630000000  0.5844690000000  0.4465420000000 1.0
C      1  0.3591820000000  0.4129970000000  0.4465730000000 1.0
C      1  0.5544770000000  0.6427890000000  0.4148620000000 1.0
C      1  0.5537750000000  0.3573310000000  0.5845960000000 1.0
C      1  0.4471620000000  0.6431120000000  0.5848210000000 1.0
C      1  0.4515550000000  0.4334320000000  0.7376970000000 1.0
C      1  0.7388850000000  0.4523700000000  0.4335010000000 1.0
C      1  0.4353890000000  0.7391650000000  0.4519650000000 1.0
C      1  0.5468140000000  0.5665770000000  0.7380160000000 1.0
C      1  0.5474070000000  0.4334290000000  0.2616360000000 1.0
C      1  0.4521370000000  0.5665730000000  0.2616670000000 1.0
C      1  0.2604150000000  0.5519650000000  0.4413210000000 1.0
C      1  0.2589530000000  0.4478700000000  0.5628010000000 1.0
C      1  0.7383930000000  0.5476120000000  0.5666560000000 1.0
C      1  0.5685310000000  0.2616150000000  0.4522540000000 1.0
C      1  0.5682080000000  0.7382800000000  0.5475250000000 1.0
C      1  0.4350630000000  0.2608840000000  0.5472490000000 1.0
C      1  0.4521380000000  0.4334280000000  0.2616680000000 1.0
C      1  0.7383870000000  0.4523890000000  0.5666750000000 1.0
C      1  0.4350650000000  0.7391160000000  0.5472490000000 1.0
C      1  0.5474050000000  0.5665750000000  0.2616370000000 1.0
C      1  0.5468120000000  0.4334280000000  0.7380210000000 1.0
C      1  0.4515590000000  0.5665770000000  0.7376920000000 1.0
C      1  0.2589450000000  0.5521300000000  0.5627890000000 1.0
C      1  0.2604180000000  0.4480310000000  0.4412920000000 1.0
C      1  0.7388860000000  0.5476280000000  0.4335220000000 1.0
C      1  0.5682070000000  0.2617120000000  0.5475350000000 1.0
C      1  0.5685310000000  0.7383840000000  0.4522550000000 1.0
C      1  0.4353900000000  0.2608400000000  0.4519560000000 1.0
C      1  0.5894040000000  0.5000020000000  0.1962770000000 1.0
C      1  0.1865290000000  0.6014140000000  0.5011470000000 1.0
C      1  0.5019820000000  0.1960200000000  0.5894930000000 1.0
C      1  0.4100450000000  0.4999940000000  0.1963880000000 1.0
C      1  0.4092260000000  0.5000040000000  0.8028360000000 1.0
C      1  0.5885880000000  0.5000040000000  0.8035000000000 1.0
C      1  0.8038310000000  0.4101940000000  0.5003490000000 1.0
C      1  0.8038230000000  0.5898030000000  0.5003490000000 1.0
C      1  0.1865340000000  0.3985800000000  0.5011430000000 1.0
C      1  0.5019910000000  0.8039770000000  0.5894990000000 1.0
C      1  0.5024630000000  0.1958500000000  0.4101130000000 1.0
C      1  0.5024620000000  0.8041450000000  0.4101080000000 1.0
END
