TITL C-3036480-97-291 1.03540091751607e-05 3375 -352.593177562591 0 0 60 (S4) n - 1
REM
REM in /home/bkarasulu/work/CARBON/AIRSS/Generating-Clusters/REBO/Higher-Symm/Only-C60
REM
REM
REM
REM
REM
REM ./C.cell (a2850807a9bf4ad07a5b6933b78d9264)
REM AIRSS Version 0.9.1 bugfix July 2018 build 013d7b7c2542+ Fri, 06 Jul 2018 19:26:36 +0100
REM compiler GCC version 9.2.1 20190827 (Red Hat 9.2.1-1)
REM options -cpp -mtune=generic -march=x86-64 -g -O0 -fpre-include=/usr/include/finclude/math-vector-fortran.h
REM seed 1264268831 1785826926 468223880 -1525466097 -172014919 -619954941 31337696 -301940738 1020217724 -525890716 1448413301 -1234596288 -588223067 727769962 -1330272126 -1957706451 -1464215225 -167631205 826913030 -1821746258 -1157948375 756791652 -1294920709 261399643 -1010726810 -1815293481 1044872307 -1419387318 -1500289892 -15301016 -644094593 1419729696 -1441368673
REM
CELL 1.54180   15.00000   15.00000   15.00000   90.00000   90.00000   90.00000
LATT -1
SFAC C  
C      1  0.6282220000000  0.3880330000000  0.3439030000000 1.0
C      1  0.3717780000000  0.3439030000000  0.6119670000000 1.0
C      1  0.6282220000000  0.6119670000000  0.6560970000000 1.0
C      1  0.3717780000000  0.6560970000000  0.3880330000000 1.0
C      1  0.3133690000000  0.3994860000000  0.4215990000000 1.0
C      1  0.6866300000000  0.4215990000000  0.6005140000000 1.0
C      1  0.3133690000000  0.6005140000000  0.5784010000000 1.0
C      1  0.6866310000000  0.5784010000000  0.3994860000000 1.0
C      1  0.4762830000000  0.4267680000000  0.7342390000000 1.0
C      1  0.5237170000000  0.7342390000000  0.5732320000000 1.0
C      1  0.4762830000000  0.5732320000000  0.2657610000000 1.0
C      1  0.5237170000000  0.2657610000000  0.4267680000000 1.0
C      1  0.6351950000000  0.4342170000000  0.6798680000000 1.0
C      1  0.3648050000000  0.6798680000000  0.5657830000000 1.0
C      1  0.6351950000000  0.5657830000000  0.3201320000000 1.0
C      1  0.3648050000000  0.3201320000000  0.4342170000000 1.0
C      1  0.3432240000000  0.4716450000000  0.3479030000000 1.0
C      1  0.6567770000000  0.3479020000000  0.5283550000000 1.0
C      1  0.3432230000000  0.5283550000000  0.6520980000000 1.0
C      1  0.6567770000000  0.6520970000000  0.4716450000000 1.0
C      1  0.3872660000000  0.7029020000000  0.4740490000000 1.0
C      1  0.6127340000000  0.4740490000000  0.2970980000000 1.0
C      1  0.3872660000000  0.2970980000000  0.5259510000000 1.0
C      1  0.6127340000000  0.5259510000000  0.7029020000000 1.0
C      1  0.3163630000000  0.4251470000000  0.6117550000000 1.0
C      1  0.6836370000000  0.6117550000000  0.5748530000000 1.0
C      1  0.3163630000000  0.5748530000000  0.3882450000000 1.0
C      1  0.6836370000000  0.3882450000000  0.4251470000000 1.0
C      1  0.4452120000000  0.3410500000000  0.6717380000000 1.0
C      1  0.5547880000000  0.6717380000000  0.6589500000000 1.0
C      1  0.4452120000000  0.6589500000000  0.3282620000000 1.0
C      1  0.5547880000000  0.3282620000000  0.3410500000000 1.0
C      1  0.3050450000000  0.5509580000000  0.4912330000000 1.0
C      1  0.6949570000000  0.4912320000000  0.4490410000000 1.0
C      1  0.3050440000000  0.4490410000000  0.5087680000000 1.0
C      1  0.6949550000000  0.5087670000000  0.5509580000000 1.0
C      1  0.5680070000000  0.3164670000000  0.5924920000000 1.0
C      1  0.4319930000000  0.5924920000000  0.6835330000000 1.0
C      1  0.5680070000000  0.6835330000000  0.4075080000000 1.0
C      1  0.4319940000000  0.4075080000000  0.3164680000000 1.0
C      1  0.4861570000000  0.6170710000000  0.4532210000000 1.0
C      1  0.5138440000000  0.4532220000000  0.3829290000000 1.0
C      1  0.4861560000000  0.3829290000000  0.5467780000000 1.0
C      1  0.5138430000000  0.5467790000000  0.6170710000000 1.0
C      1  0.4433830000000  0.3116440000000  0.3635260000000 1.0
C      1  0.5566170000000  0.3635260000000  0.6883560000000 1.0
C      1  0.4433830000000  0.6883560000000  0.6364740000000 1.0
C      1  0.5566170000000  0.6364740000000  0.3116440000000 1.0
C      1  0.4902600000000  0.2680950000000  0.5278470000000 1.0
C      1  0.5097400000000  0.5278470000000  0.7319060000000 1.0
C      1  0.4902600000000  0.7319060000000  0.4721530000000 1.0
C      1  0.5097400000000  0.4721530000000  0.2680950000000 1.0
C      1  0.5823210000000  0.5317100000000  0.5442830000000 1.0
C      1  0.4176790000000  0.5442830000000  0.4682900000000 1.0
C      1  0.5823220000000  0.4682910000000  0.4557180000000 1.0
C      1  0.4176780000000  0.4557180000000  0.5317100000000 1.0
C      1  0.4383900000000  0.5307890000000  0.3635300000000 1.0
C      1  0.5616100000000  0.3635300000000  0.4692110000000 1.0
C      1  0.4383900000000  0.4692110000000  0.6364700000000 1.0
C      1  0.5616100000000  0.6364700000000  0.5307890000000 1.0
END
