TITL C-3036485-3770-449 -0.0569239017828561 3375 -348.438549633933 0 0 60 (C1) n - 1
REM
REM in /home/bkarasulu/work/CARBON/AIRSS/Generating-Clusters/REBO/Higher-Symm/Only-C60
REM
REM
REM
REM
REM
REM ./C.cell (a2850807a9bf4ad07a5b6933b78d9264)
REM AIRSS Version 0.9.1 bugfix July 2018 build 013d7b7c2542+ Fri, 06 Jul 2018 19:26:36 +0100
REM compiler GCC version 9.2.1 20190827 (Red Hat 9.2.1-1)
REM options -cpp -mtune=generic -march=x86-64 -g -O0 -fpre-include=/usr/include/finclude/math-vector-fortran.h
REM seed 235390457 -527814658 610607548 -1390779888 1602599446 -1921076259 -102496606 -1614664167 618229438 348735472 -275151692 -2076800152 -1028498809 1962347506 -352702995 -1894614678 791139576 373951676 -484516151 -1625287120 212792794 -265879550 -2069232392 -1440196437 976677149 2049878479 72010590 1304059913 835489873 -1147148217 -243625275 157251340 -1301500518
REM
CELL 1.54180   15.00000   15.00000   15.00000   90.00000   90.00000   90.00000
LATT -1
SFAC C  
C      1  0.6211200000000  0.3667790000000  0.5977730000000 1.0
C      1  0.3782480000000  0.6333200000000  0.5969780000000 1.0
C      1  0.3794180000000  0.3669330000000  0.5978270000000 1.0
C      1  0.6215080000000  0.6331720000000  0.5970590000000 1.0
C      1  0.2780180000000  0.6693200000000  0.4372430000000 1.0
C      1  0.7256580000000  0.3223950000000  0.4424960000000 1.0
C      1  0.7216660000000  0.6687020000000  0.4375290000000 1.0
C      1  0.2744420000000  0.3229270000000  0.4429590000000 1.0
C      1  0.4541780000000  0.3945380000000  0.3849850000000 1.0
C      1  0.5461400000000  0.6082880000000  0.3834240000000 1.0
C      1  0.5464510000000  0.3950220000000  0.3843340000000 1.0
C      1  0.4539210000000  0.6074690000000  0.3825560000000 1.0
C      1  0.3821830000000  0.4542080000000  0.7594470000000 1.0
C      1  0.6179630000000  0.5459740000000  0.7591010000000 1.0
C      1  0.6178170000000  0.4541930000000  0.7594140000000 1.0
C      1  0.3820680000000  0.5459810000000  0.7591480000000 1.0
C      1  0.5797850000000  0.5580500000000  0.4623990000000 1.0
C      1  0.4178310000000  0.4461510000000  0.4632010000000 1.0
C      1  0.4197000000000  0.5575690000000  0.4621770000000 1.0
C      1  0.5831330000000  0.4467960000000  0.4629510000000 1.0
C      1  0.4103970000000  0.6683250000000  0.3290300000000 1.0
C      1  0.5895560000000  0.3300080000000  0.3348990000000 1.0
C      1  0.5904770000000  0.6726800000000  0.3344470000000 1.0
C      1  0.4101360000000  0.3304460000000  0.3353030000000 1.0
C      1  0.6998720000000  0.3953990000000  0.3706200000000 1.0
C      1  0.3061340000000  0.5961870000000  0.3689920000000 1.0
C      1  0.2990640000000  0.3946460000000  0.3715790000000 1.0
C      1  0.6936700000000  0.5960790000000  0.3688930000000 1.0
C      1  0.2307250000000  0.5404260000000  0.5708720000000 1.0
C      1  0.7700240000000  0.4577070000000  0.5727670000000 1.0
C      1  0.7690020000000  0.5399610000000  0.5706210000000 1.0
C      1  0.2304500000000  0.4581450000000  0.5723150000000 1.0
C      1  0.4536920000000  0.3739840000000  0.7704550000000 1.0
C      1  0.5463610000000  0.6261880000000  0.7694440000000 1.0
C      1  0.5463260000000  0.3739860000000  0.7704220000000 1.0
C      1  0.4536900000000  0.6261800000000  0.7694760000000 1.0
C      1  0.3538940000000  0.5491750000000  0.3011310000000 1.0
C      1  0.6524780000000  0.4430630000000  0.3037160000000 1.0
C      1  0.6469410000000  0.5489640000000  0.3006570000000 1.0
C      1  0.3437690000000  0.4412820000000  0.3025670000000 1.0
C      1  0.5473760000000  0.4007930000000  0.5481670000000 1.0
C      1  0.4530150000000  0.6023720000000  0.5476690000000 1.0
C      1  0.4533290000000  0.4006940000000  0.5482660000000 1.0
C      1  0.5465200000000  0.6024740000000  0.5478530000000 1.0
C      1  0.7089110000000  0.6248870000000  0.5418180000000 1.0
C      1  0.2902640000000  0.3717520000000  0.5446730000000 1.0
C      1  0.2907230000000  0.6255690000000  0.5415850000000 1.0
C      1  0.7103960000000  0.3712200000000  0.5444120000000 1.0
C      1  0.4420470000000  0.4562820000000  0.2676820000000 1.0
C      1  0.5550110000000  0.5721000000000  0.2550660000000 1.0
C      1  0.5514970000000  0.4620900000000  0.2692430000000 1.0
C      1  0.4524240000000  0.5646860000000  0.2563610000000 1.0
C      1  0.3815730000000  0.3704580000000  0.6903610000000 1.0
C      1  0.6190640000000  0.6294200000000  0.6895970000000 1.0
C      1  0.6185700000000  0.3703860000000  0.6903350000000 1.0
C      1  0.3809620000000  0.6294510000000  0.6895940000000 1.0
C      1  0.3107390000000  0.4467960000000  0.4666490000000 1.0
C      1  0.6858830000000  0.5455340000000  0.4665330000000 1.0
C      1  0.6905570000000  0.4463480000000  0.4665570000000 1.0
C      1  0.3132310000000  0.5460690000000  0.4663740000000 1.0
END
