TITL C-3036485-3770-359 0.000155575467286274 3375 -359.896642822855 0 0 60 (C5) n - 1
REM
REM in /home/bkarasulu/work/CARBON/AIRSS/Generating-Clusters/REBO/Higher-Symm/Only-C60
REM
REM
REM
REM
REM
REM ./C.cell (a2850807a9bf4ad07a5b6933b78d9264)
REM AIRSS Version 0.9.1 bugfix July 2018 build 013d7b7c2542+ Fri, 06 Jul 2018 19:26:36 +0100
REM compiler GCC version 9.2.1 20190827 (Red Hat 9.2.1-1)
REM options -cpp -mtune=generic -march=x86-64 -g -O0 -fpre-include=/usr/include/finclude/math-vector-fortran.h
REM seed -2081963157 291804451 -942535149 620501479 -1250544460 -1050339252 -1124737506 -524299702 1921254614 171054498 1265904585 747555417 -1422604976 1825825680 -608013400 -52515059 -780865419 1713635323 1670222029 2123210476 -477421953 -1448691538 -1130329482 -801836877 -1480063077 1733937853 -422097087 859264796 116098555 1520136259 -517378599 1440161268 -526397897
REM
CELL 1.54180   15.00000   15.00000   15.00000   90.00000   90.00000   90.00000
LATT -1
SFAC C  
C      1  0.3212420000000  0.6717500000000  0.6437630000000 1.0
C      1  0.3212460000000  0.4163680000000  0.7077800000000 1.0
C      1  0.3212180000000  0.2765660000000  0.4846800000000 1.0
C      1  0.3211980000000  0.4455450000000  0.2827800000000 1.0
C      1  0.3212130000000  0.6897820000000  0.3810970000000 1.0
C      1  0.3714970000000  0.2839730000000  0.5858320000000 1.0
C      1  0.3714680000000  0.3516280000000  0.3210780000000 1.0
C      1  0.3714710000000  0.6243290000000  0.3036090000000 1.0
C      1  0.3715020000000  0.7252130000000  0.5575640000000 1.0
C      1  0.3715180000000  0.5148620000000  0.7319880000000 1.0
C      1  0.3975350000000  0.5620520000000  0.4490640000000 1.0
C      1  0.3975470000000  0.5676290000000  0.5432830000000 1.0
C      1  0.3975510000000  0.4797450000000  0.5777030000000 1.0
C      1  0.3975430000000  0.4198520000000  0.5047560000000 1.0
C      1  0.3975320000000  0.4707200000000  0.4252530000000 1.0
C      1  0.4699980000000  0.5661470000000  0.7371650000000 1.0
C      1  0.4699820000000  0.2948850000000  0.6362010000000 1.0
C      1  0.4699500000000  0.3070850000000  0.3470150000000 1.0
C      1  0.4699460000000  0.5858860000000  0.2692560000000 1.0
C      1  0.4699760000000  0.7459930000000  0.5103810000000 1.0
C      1  0.7177090000000  0.4344960000000  0.5516910000000 1.0
C      1  0.7176980000000  0.4305730000000  0.4536570000000 1.0
C      1  0.7176960000000  0.5225970000000  0.4196330000000 1.0
C      1  0.7177060000000  0.5833930000000  0.4966390000000 1.0
C      1  0.7177140000000  0.5289430000000  0.5782550000000 1.0
C      1  0.6130170000000  0.4813140000000  0.3028100000000 1.0
C      1  0.6130320000000  0.6817520000000  0.4212830000000 1.0
C      1  0.6130570000000  0.6310160000000  0.6485220000000 1.0
C      1  0.6130570000000  0.3992210000000  0.6704890000000 1.0
C      1  0.6130330000000  0.3067000000000  0.4568280000000 1.0
C      1  0.5267600000000  0.5026910000000  0.4191380000000 1.0
C      1  0.5267650000000  0.5777320000000  0.4775730000000 1.0
C      1  0.5267750000000  0.5453460000000  0.5669990000000 1.0
C      1  0.5267770000000  0.4502890000000  0.5638320000000 1.0
C      1  0.5267660000000  0.4239260000000  0.4724490000000 1.0
C      1  0.5113420000000  0.5004600000000  0.3109470000000 1.0
C      1  0.5113590000000  0.6799390000000  0.4420170000000 1.0
C      1  0.5113810000000  0.6107490000000  0.6532160000000 1.0
C      1  0.5113780000000  0.3885020000000  0.6526770000000 1.0
C      1  0.5113530000000  0.3203390000000  0.4411390000000 1.0
C      1  0.6407890000000  0.2934750000000  0.5463510000000 1.0
C      1  0.6407650000000  0.3920830000000  0.3178940000000 1.0
C      1  0.6407690000000  0.6398300000000  0.3410790000000 1.0
C      1  0.6407960000000  0.6943370000000  0.5838650000000 1.0
C      1  0.6408080000000  0.4802790000000  0.7107290000000 1.0
C      1  0.6683080000000  0.5487950000000  0.3413560000000 1.0
C      1  0.6683280000000  0.6659400000000  0.4973690000000 1.0
C      1  0.6683440000000  0.5537620000000  0.6569910000000 1.0
C      1  0.6683350000000  0.3672880000000  0.5996290000000 1.0
C      1  0.6683130000000  0.3642180000000  0.4045570000000 1.0
C      1  0.3250410000000  0.3016520000000  0.4061030000000 1.0
C      1  0.3250310000000  0.5280280000000  0.2823560000000 1.0
C      1  0.3250540000000  0.7156730000000  0.4594120000000 1.0
C      1  0.3250790000000  0.6052680000000  0.6925870000000 1.0
C      1  0.3250710000000  0.3493890000000  0.6596400000000 1.0
C      1  0.4367320000000  0.3350780000000  0.5141410000000 1.0
C      1  0.4367130000000  0.4355950000000  0.3475260000000 1.0
C      1  0.4367200000000  0.6251150000000  0.3916360000000 1.0
C      1  0.4367430000000  0.6417300000000  0.5855100000000 1.0
C      1  0.4367500000000  0.4624780000000  0.6612240000000 1.0
END
