TITL C-3036483-1610-523 -3.55098733640642e-06 3375 -351.536978014799 0 0 60 (C1) n - 1
REM
REM in /home/bkarasulu/work/CARBON/AIRSS/Generating-Clusters/REBO/Higher-Symm/Only-C60
REM
REM
REM
REM
REM
REM ./C.cell (a2850807a9bf4ad07a5b6933b78d9264)
REM AIRSS Version 0.9.1 bugfix July 2018 build 013d7b7c2542+ Fri, 06 Jul 2018 19:26:36 +0100
REM compiler GCC version 9.2.1 20190827 (Red Hat 9.2.1-1)
REM options -cpp -mtune=generic -march=x86-64 -g -O0 -fpre-include=/usr/include/finclude/math-vector-fortran.h
REM seed 495643060 -1996511213 444830949 541751161 -746229753 986348023 2078390088 -1437222613 111551192 -1744565661 -1314911893 -568909840 1456781787 -2081197845 1918269781 -1755197074 -280218207 589342603 -1404755389 1612566083 1487334884 -829030459 -1643618960 1163381597 2121873622 -1639783882 -631660741 2076019486 -1106362796 -255392898 -589008951 -1197028563 -1422118152
REM
CELL 1.54180   15.00000   15.00000   15.00000   90.00000   90.00000   90.00000
LATT -1
SFAC C  
C      1  0.6762550000000  0.6026870000000  0.6232180000000 1.0
C      1  0.6487480000000  0.6899620000000  0.5667870000000 1.0
C      1  0.4066440000000  0.3437380000000  0.3644660000000 1.0
C      1  0.3774330000000  0.5706140000000  0.3069050000000 1.0
C      1  0.4982170000000  0.4938240000000  0.3030620000000 1.0
C      1  0.5562110000000  0.5806380000000  0.7554850000000 1.0
C      1  0.3727770000000  0.3348390000000  0.4723240000000 1.0
C      1  0.3090620000000  0.4374860000000  0.5952300000000 1.0
C      1  0.6401880000000  0.3097140000000  0.4849560000000 1.0
C      1  0.5925030000000  0.2849340000000  0.4039480000000 1.0
C      1  0.3059100000000  0.4107510000000  0.4963090000000 1.0
C      1  0.3473750000000  0.4682240000000  0.2673150000000 1.0
C      1  0.4934180000000  0.4109990000000  0.2310430000000 1.0
C      1  0.6233710000000  0.6120680000000  0.3111500000000 1.0
C      1  0.6628200000000  0.6149460000000  0.4916990000000 1.0
C      1  0.6363070000000  0.5561610000000  0.6986610000000 1.0
C      1  0.4501270000000  0.5792520000000  0.3931770000000 1.0
C      1  0.5077490000000  0.3762460000000  0.4487080000000 1.0
C      1  0.3328900000000  0.5309190000000  0.5999360000000 1.0
C      1  0.5911220000000  0.3284320000000  0.5675860000000 1.0
C      1  0.5983670000000  0.3544710000000  0.3365140000000 1.0
C      1  0.5089660000000  0.4943740000000  0.7763780000000 1.0
C      1  0.4010640000000  0.6583100000000  0.6918820000000 1.0
C      1  0.3897260000000  0.7202170000000  0.6185830000000 1.0
C      1  0.6347380000000  0.4564270000000  0.6945880000000 1.0
C      1  0.5575890000000  0.7141750000000  0.5630290000000 1.0
C      1  0.4993680000000  0.5577720000000  0.5908250000000 1.0
C      1  0.5116040000000  0.7192380000000  0.4595480000000 1.0
C      1  0.7152710000000  0.5404350000000  0.5486560000000 1.0
C      1  0.4331720000000  0.6179180000000  0.4921440000000 1.0
C      1  0.4066850000000  0.6730210000000  0.3090900000000 1.0
C      1  0.5094800000000  0.2846550000000  0.5820150000000 1.0
C      1  0.5027000000000  0.6531640000000  0.7217770000000 1.0
C      1  0.4271270000000  0.7157700000000  0.5361140000000 1.0
C      1  0.5636010000000  0.5010490000000  0.5486140000000 1.0
C      1  0.7118520000000  0.3757920000000  0.4793860000000 1.0
C      1  0.4462060000000  0.2705090000000  0.5190550000000 1.0
C      1  0.5593990000000  0.4424050000000  0.3834680000000 1.0
C      1  0.6994300000000  0.4497880000000  0.5396760000000 1.0
C      1  0.5114450000000  0.6540200000000  0.6188610000000 1.0
C      1  0.4272770000000  0.4511170000000  0.3734400000000 1.0
C      1  0.4305320000000  0.4797600000000  0.7240360000000 1.0
C      1  0.4814100000000  0.2749160000000  0.4150100000000 1.0
C      1  0.3079270000000  0.4970260000000  0.4493300000000 1.0
C      1  0.4632420000000  0.4170800000000  0.5245810000000 1.0
C      1  0.3960310000000  0.3735590000000  0.5865000000000 1.0
C      1  0.5668200000000  0.3519010000000  0.2465390000000 1.0
C      1  0.4105930000000  0.5554200000000  0.6589590000000 1.0
C      1  0.4404740000000  0.4899550000000  0.4635000000000 1.0
C      1  0.3419860000000  0.5647720000000  0.5116620000000 1.0
C      1  0.5205560000000  0.6039090000000  0.3101290000000 1.0
C      1  0.6587550000000  0.5836170000000  0.3904400000000 1.0
C      1  0.4004410000000  0.3887980000000  0.2605970000000 1.0
C      1  0.4866940000000  0.7021800000000  0.3589730000000 1.0
C      1  0.5765250000000  0.4252660000000  0.7646050000000 1.0
C      1  0.3064020000000  0.5051100000000  0.3577200000000 1.0
C      1  0.5476300000000  0.6125650000000  0.4776510000000 1.0
C      1  0.6176130000000  0.4232550000000  0.6004940000000 1.0
C      1  0.4102890000000  0.3967160000000  0.6885980000000 1.0
C      1  0.5918860000000  0.5131330000000  0.4450670000000 1.0
END
