TITL C-3036483-1610-188 1.88428812813891e-06 3375 -347.036086815931 0 0 60 (C3h) n - 1
REM
REM in /home/bkarasulu/work/CARBON/AIRSS/Generating-Clusters/REBO/Higher-Symm/Only-C60
REM
REM
REM
REM
REM
REM ./C.cell (a2850807a9bf4ad07a5b6933b78d9264)
REM AIRSS Version 0.9.1 bugfix July 2018 build 013d7b7c2542+ Fri, 06 Jul 2018 19:26:36 +0100
REM compiler GCC version 9.2.1 20190827 (Red Hat 9.2.1-1)
REM options -cpp -mtune=generic -march=x86-64 -g -O0 -fpre-include=/usr/include/finclude/math-vector-fortran.h
REM seed -1138582888 -1334218347 1837477191 -161142396 -613452001 -434338363 -432872555 -353034693 121164347 -1604109328 1192390209 -1932161232 1639672349 -820531374 -138089393 1704191614 836418623 -631598470 789611732 1291554930 1504558505 -404814247 1213864321 509728447 2052661116 636414170 -1902701906 -2022372108 -2030680751 2058825024 -1805016235 822278378 815318451
REM
CELL 1.54180   15.00000   15.00000   15.00000   90.00000   90.00000   90.00000
LATT -1
SFAC C  
C      1  0.2719530000000  0.4581040000000  0.6619860000000 1.0
C      1  0.4737390000000  0.4581040000000  0.2215130000000 1.0
C      1  0.7543080000000  0.4581040000000  0.6165010000000 1.0
C      1  0.2719530000000  0.5418960000000  0.6619860000000 1.0
C      1  0.4737390000000  0.5418960000000  0.2215130000000 1.0
C      1  0.7543070000000  0.5418970000000  0.6165010000000 1.0
C      1  0.5947410000000  0.4136880000000  0.5213400000000 1.0
C      1  0.4341480000000  0.4136880000000  0.5713780000000 1.0
C      1  0.4711110000000  0.4136880000000  0.4072810000000 1.0
C      1  0.5947410000000  0.5863120000000  0.5213400000000 1.0
C      1  0.4341480000000  0.5863120000000  0.5713780000000 1.0
C      1  0.4711110000000  0.5863120000000  0.4072810000000 1.0
C      1  0.3564820000000  0.4066910000000  0.6542920000000 1.0
C      1  0.4381380000000  0.4066910000000  0.2985640000000 1.0
C      1  0.7053800000000  0.4066910000000  0.5471440000000 1.0
C      1  0.3564820000000  0.5933090000000  0.6542920000000 1.0
C      1  0.4381380000000  0.5933090000000  0.2985640000000 1.0
C      1  0.7053800000000  0.5933090000000  0.5471440000000 1.0
C      1  0.3889860000000  0.6593830000000  0.3743090000000 1.0
C      1  0.6643590000000  0.6593830000000  0.4667040000000 1.0
C      1  0.4466550000000  0.6593830000000  0.6589870000000 1.0
C      1  0.3889860000000  0.3406170000000  0.3743090000000 1.0
C      1  0.6643590000000  0.3406170000000  0.4667050000000 1.0
C      1  0.4466550000000  0.3406170000000  0.6589870000000 1.0
C      1  0.6445340000000  0.2995510000000  0.3706820000000 1.0
C      1  0.5397250000000  0.2995510000000  0.6898290000000 1.0
C      1  0.3157410000000  0.2995510000000  0.4394880000000 1.0
C      1  0.6445340000000  0.7004490000000  0.3706820000000 1.0
C      1  0.5397250000000  0.7004490000000  0.6898290000000 1.0
C      1  0.3157400000000  0.7004490000000  0.4394890000000 1.0
C      1  0.6365800000000  0.5929160000000  0.3558760000000 1.0
C      1  0.5565250000000  0.5929160000000  0.6903440000000 1.0
C      1  0.3068950000000  0.5929160000000  0.4537800000000 1.0
C      1  0.6365800000000  0.4070840000000  0.3558760000000 1.0
C      1  0.5565250000000  0.4070840000000  0.6903440000000 1.0
C      1  0.3068950000000  0.4070840000000  0.4537800000000 1.0
C      1  0.6952810000000  0.4508570000000  0.4427740000000 1.0
C      1  0.4519180000000  0.4508570000000  0.6977310000000 1.0
C      1  0.3528010000000  0.4508570000000  0.3594950000000 1.0
C      1  0.6952810000000  0.5491430000000  0.4427740000000 1.0
C      1  0.4519180000000  0.5491430000000  0.6977310000000 1.0
C      1  0.3528010000000  0.5491430000000  0.3594950000000 1.0
C      1  0.2267560000000  0.5420140000000  0.4895800000000 1.0
C      1  0.6456460000000  0.5420140000000  0.2685730000000 1.0
C      1  0.6275980000000  0.5420140000000  0.7418460000000 1.0
C      1  0.2267560000000  0.4579860000000  0.4895800000000 1.0
C      1  0.6456460000000  0.4579860000000  0.2685730000000 1.0
C      1  0.6275980000000  0.4579860000000  0.7418460000000 1.0
C      1  0.5333620000000  0.4474780000000  0.5925700000000 1.0
C      1  0.4031500000000  0.4474780000000  0.4826070000000 1.0
C      1  0.5634870000000  0.4474780000000  0.4248220000000 1.0
C      1  0.5333620000000  0.5525220000000  0.5925700000000 1.0
C      1  0.4031500000000  0.5525220000000  0.4826070000000 1.0
C      1  0.5634870000000  0.5525220000000  0.4248220000000 1.0
C      1  0.6382140000000  0.2250000000000  0.3285240000000 1.0
C      1  0.5793950000000  0.2250000000000  0.7054350000000 1.0
C      1  0.2823910000000  0.2250000000000  0.4660410000000 1.0
C      1  0.6382140000000  0.7750000000000  0.3285240000000 1.0
C      1  0.5793950000000  0.7750000000000  0.7054350000000 1.0
C      1  0.2823900000000  0.7750000000000  0.4660410000000 1.0
END
