TITL C-3036484-3770-161 -3.60522055053387e-06 3375 -338.876202410233 0 0 60 (C1) n - 1
REM
REM in /home/bkarasulu/work/CARBON/AIRSS/Generating-Clusters/REBO/Higher-Symm/Only-C60
REM
REM
REM
REM
REM
REM ./C.cell (a2850807a9bf4ad07a5b6933b78d9264)
REM AIRSS Version 0.9.1 bugfix July 2018 build 013d7b7c2542+ Fri, 06 Jul 2018 19:26:36 +0100
REM compiler GCC version 9.2.1 20190827 (Red Hat 9.2.1-1)
REM options -cpp -mtune=generic -march=x86-64 -g -O0 -fpre-include=/usr/include/finclude/math-vector-fortran.h
REM seed 1127770613 319416877 197067134 -2057818203 913021548 -420925241 161844522 -402711618 -1046501232 -945534304 1220525972 449268562 680668774 451914748 -251798825 -1445790256 675012630 527510590 -10568289 1198529688 1594875789 555479612 -624022577 569379600 -18391001 1018338070 -521024887 -1394398494 -1298697723 424002181 670711984 1310009892 437137772
REM
CELL 1.54180   15.00000   15.00000   15.00000   90.00000   90.00000   90.00000
LATT -1
SFAC C  
C      1  0.4236400000000  0.4790970000000  0.5792500000000 1.0
C      1  0.5437460000000  0.5506670000000  0.4901950000000 1.0
C      1  0.4301880000000  0.2472690000000  0.5314300000000 1.0
C      1  0.2708820000000  0.4917950000000  0.5253740000000 1.0
C      1  0.4797120000000  0.7371980000000  0.5844520000000 1.0
C      1  0.4634380000000  0.7186890000000  0.4221650000000 1.0
C      1  0.3566060000000  0.5668830000000  0.3663940000000 1.0
C      1  0.4565160000000  0.2313200000000  0.4323800000000 1.0
C      1  0.6195090000000  0.5763730000000  0.4304040000000 1.0
C      1  0.6804760000000  0.5920210000000  0.5634730000000 1.0
C      1  0.5014690000000  0.4933080000000  0.6352410000000 1.0
C      1  0.7107860000000  0.6328970000000  0.4623170000000 1.0
C      1  0.4235860000000  0.5963340000000  0.4557600000000 1.0
C      1  0.2950750000000  0.3626040000000  0.4194770000000 1.0
C      1  0.3415950000000  0.3984580000000  0.7012140000000 1.0
C      1  0.5932740000000  0.4686020000000  0.5423530000000 1.0
C      1  0.5478700000000  0.2802840000000  0.4792800000000 1.0
C      1  0.3752890000000  0.4887230000000  0.7027880000000 1.0
C      1  0.4830390000000  0.6308980000000  0.5311240000000 1.0
C      1  0.5799310000000  0.5409530000000  0.7292660000000 1.0
C      1  0.6043650000000  0.6300070000000  0.3047640000000 1.0
C      1  0.5810080000000  0.4234920000000  0.6662330000000 1.0
C      1  0.5436000000000  0.3736270000000  0.5462460000000 1.0
C      1  0.5394250000000  0.6007980000000  0.6473610000000 1.0
C      1  0.4539960000000  0.3826550000000  0.4854160000000 1.0
C      1  0.6818490000000  0.4965730000000  0.3902680000000 1.0
C      1  0.3149320000000  0.3579120000000  0.6251850000000 1.0
C      1  0.6292070000000  0.6792650000000  0.3973950000000 1.0
C      1  0.4422470000000  0.6405770000000  0.3532440000000 1.0
C      1  0.6752130000000  0.5885410000000  0.2576710000000 1.0
C      1  0.6000580000000  0.6490610000000  0.5923440000000 1.0
C      1  0.5380200000000  0.3525380000000  0.3179380000000 1.0
C      1  0.5995410000000  0.4447700000000  0.4316560000000 1.0
C      1  0.6009220000000  0.3408480000000  0.4077580000000 1.0
C      1  0.2914960000000  0.5795400000000  0.4558600000000 1.0
C      1  0.4252650000000  0.6593800000000  0.6224020000000 1.0
C      1  0.7145180000000  0.5157880000000  0.2970800000000 1.0
C      1  0.3408550000000  0.3737070000000  0.3519900000000 1.0
C      1  0.3757640000000  0.5082240000000  0.4907660000000 1.0
C      1  0.6395740000000  0.5146670000000  0.6350820000000 1.0
C      1  0.7210520000000  0.4313440000000  0.5353810000000 1.0
C      1  0.5562540000000  0.7291400000000  0.4472870000000 1.0
C      1  0.6651080000000  0.3491440000000  0.4963970000000 1.0
C      1  0.6612750000000  0.3677540000000  0.6075650000000 1.0
C      1  0.2769510000000  0.3889710000000  0.5227030000000 1.0
C      1  0.3170020000000  0.6632840000000  0.5126540000000 1.0
C      1  0.3758920000000  0.3364120000000  0.5373230000000 1.0
C      1  0.7257410000000  0.5217270000000  0.4891260000000 1.0
C      1  0.5705020000000  0.7298030000000  0.5432800000000 1.0
C      1  0.3376970000000  0.6332700000000  0.6017570000000 1.0
C      1  0.4593190000000  0.3299560000000  0.3933860000000 1.0
C      1  0.5658310000000  0.3178900000000  0.6440170000000 1.0
C      1  0.4914200000000  0.4732860000000  0.4351580000000 1.0
C      1  0.4514490000000  0.5085880000000  0.3440050000000 1.0
C      1  0.3816070000000  0.7249190000000  0.4749180000000 1.0
C      1  0.3293490000000  0.5336700000000  0.6129700000000 1.0
C      1  0.5185010000000  0.5903550000000  0.3025620000000 1.0
C      1  0.4391310000000  0.4087080000000  0.3157060000000 1.0
C      1  0.4695300000000  0.5165050000000  0.7386070000000 1.0
C      1  0.5179070000000  0.2489310000000  0.5842030000000 1.0
END
