TITL C-3036484-3770-1135 -1.23988269644617e-06 3375 -339.8725481547 0 0 60 (C1) n - 1
REM
REM in /home/bkarasulu/work/CARBON/AIRSS/Generating-Clusters/REBO/Higher-Symm/Only-C60
REM
REM
REM
REM
REM
REM ./C.cell (a2850807a9bf4ad07a5b6933b78d9264)
REM AIRSS Version 0.9.1 bugfix July 2018 build 013d7b7c2542+ Fri, 06 Jul 2018 19:26:36 +0100
REM compiler GCC version 9.2.1 20190827 (Red Hat 9.2.1-1)
REM options -cpp -mtune=generic -march=x86-64 -g -O0 -fpre-include=/usr/include/finclude/math-vector-fortran.h
REM seed 977032579 -1205395670 -1300624244 -1010552470 1670376813 506799455 -117200562 1109163018 1012226122 -863197390 -147705530 -1921366532 -1952131498 1200221189 1943426531 -736609037 -2091930573 -388867202 1961562593 737679545 -119864222 396397492 -125339878 -884415102 -1248968530 -567988069 -1916599436 129503881 1745673386 -1590005669 -1552723341 1727219019 -1506060468
REM
CELL 1.54180   15.00000   15.00000   15.00000   90.00000   90.00000   90.00000
LATT -1
SFAC C  
C      1  0.6881800000000  0.4428130000000  0.7095980000000 1.0
C      1  0.4467280000000  0.4235760000000  0.4316080000000 1.0
C      1  0.7188910000000  0.4698170000000  0.4734910000000 1.0
C      1  0.6725450000000  0.5376480000000  0.5493330000000 1.0
C      1  0.3840420000000  0.6770720000000  0.3925570000000 1.0
C      1  0.4185200000000  0.4004060000000  0.6832100000000 1.0
C      1  0.5429150000000  0.2843510000000  0.4072350000000 1.0
C      1  0.4726490000000  0.6467920000000  0.6708280000000 1.0
C      1  0.5092420000000  0.3040320000000  0.3339160000000 1.0
C      1  0.4184620000000  0.6918000000000  0.4772580000000 1.0
C      1  0.5953010000000  0.4986260000000  0.4284000000000 1.0
C      1  0.3784230000000  0.3832060000000  0.4863230000000 1.0
C      1  0.5096590000000  0.5651460000000  0.4158260000000 1.0
C      1  0.5786810000000  0.6315550000000  0.5445600000000 1.0
C      1  0.6948510000000  0.5367670000000  0.6535140000000 1.0
C      1  0.5657400000000  0.6022090000000  0.7670590000000 1.0
C      1  0.2404350000000  0.4439860000000  0.4965920000000 1.0
C      1  0.6760340000000  0.6348920000000  0.4906920000000 1.0
C      1  0.3406680000000  0.4519470000000  0.6884410000000 1.0
C      1  0.5842470000000  0.4242530000000  0.4975640000000 1.0
C      1  0.5305220000000  0.4284320000000  0.3761800000000 1.0
C      1  0.5984240000000  0.4433810000000  0.7422200000000 1.0
C      1  0.5650330000000  0.6580060000000  0.6463390000000 1.0
C      1  0.3478320000000  0.4468320000000  0.3042210000000 1.0
C      1  0.5196880000000  0.4530260000000  0.5694300000000 1.0
C      1  0.2694250000000  0.5356230000000  0.4364470000000 1.0
C      1  0.5472040000000  0.5447290000000  0.3132530000000 1.0
C      1  0.3878530000000  0.6215680000000  0.6333660000000 1.0
C      1  0.3466050000000  0.5359700000000  0.3607300000000 1.0
C      1  0.2928120000000  0.3699470000000  0.4368400000000 1.0
C      1  0.6650380000000  0.3722470000000  0.5460940000000 1.0
C      1  0.6122280000000  0.3850000000000  0.3117260000000 1.0
C      1  0.3587950000000  0.4471540000000  0.5570450000000 1.0
C      1  0.4485970000000  0.4955930000000  0.2852780000000 1.0
C      1  0.5188470000000  0.6826030000000  0.4803480000000 1.0
C      1  0.2631750000000  0.4310420000000  0.6087790000000 1.0
C      1  0.5076730000000  0.2977690000000  0.5768590000000 1.0
C      1  0.2461350000000  0.5333650000000  0.5683960000000 1.0
C      1  0.4788530000000  0.3804730000000  0.6137720000000 1.0
C      1  0.3271560000000  0.5441950000000  0.6473250000000 1.0
C      1  0.5823990000000  0.7371180000000  0.4079970000000 1.0
C      1  0.2860680000000  0.6133740000000  0.5111660000000 1.0
C      1  0.5535930000000  0.5208760000000  0.7077270000000 1.0
C      1  0.5711900000000  0.5332780000000  0.6026480000000 1.0
C      1  0.6907660000000  0.3673970000000  0.3490560000000 1.0
C      1  0.4224320000000  0.5259690000000  0.4359330000000 1.0
C      1  0.6710620000000  0.7234540000000  0.4360250000000 1.0
C      1  0.3659480000000  0.6654190000000  0.5493150000000 1.0
C      1  0.7078950000000  0.4237150000000  0.6100200000000 1.0
C      1  0.5067980000000  0.3989330000000  0.2711010000000 1.0
C      1  0.7317250000000  0.3956360000000  0.4255700000000 1.0
C      1  0.5129330000000  0.6627970000000  0.3639030000000 1.0
C      1  0.4818190000000  0.2132080000000  0.6011810000000 1.0
C      1  0.3707330000000  0.5359970000000  0.5219040000000 1.0
C      1  0.6453830000000  0.6165900000000  0.6972670000000 1.0
C      1  0.3019050000000  0.3783740000000  0.3422650000000 1.0
C      1  0.6844930000000  0.5567630000000  0.4184610000000 1.0
C      1  0.4275960000000  0.6030240000000  0.3185190000000 1.0
C      1  0.5769040000000  0.3153130000000  0.5008170000000 1.0
C      1  0.6402500000000  0.5549170000000  0.3164670000000 1.0
END
