TITL C-3036481-494-275 -0.000510803717637735 3375 -337.164625467788 0 0 60 (C1) n - 1
REM
REM in /home/bkarasulu/work/CARBON/AIRSS/Generating-Clusters/REBO/Higher-Symm/Only-C60
REM
REM
REM
REM
REM
REM ./C.cell (a2850807a9bf4ad07a5b6933b78d9264)
REM AIRSS Version 0.9.1 bugfix July 2018 build 013d7b7c2542+ Fri, 06 Jul 2018 19:26:36 +0100
REM compiler GCC version 9.2.1 20190827 (Red Hat 9.2.1-1)
REM options -cpp -mtune=generic -march=x86-64 -g -O0 -fpre-include=/usr/include/finclude/math-vector-fortran.h
REM seed -68252957 549629316 -72603214 1929494056 -776160387 -664535221 740807498 -1626173418 244459238 1311286656 222650813 530464880 -182951982 667025127 -1311918739 -894302235 -759228612 1505535176 -1821991257 -1373572674 -1391484493 422243373 -1489955839 1706029114 -1850856667 412760969 1673612775 800840801 -1838615068 128709200 -896418765 -1131127210 1485519847
REM
CELL 1.54180   15.00000   15.00000   15.00000   90.00000   90.00000   90.00000
LATT -1
SFAC C  
C      1  0.5822480000000  0.6158290000000  0.2682450000000 1.0
C      1  0.6738420000000  0.5631430000000  0.5526800000000 1.0
C      1  0.6770960000000  0.7096380000000  0.6041530000000 1.0
C      1  0.4736870000000  0.6945960000000  0.6053630000000 1.0
C      1  0.3134870000000  0.3082560000000  0.4295600000000 1.0
C      1  0.4056760000000  0.3914390000000  0.6794700000000 1.0
C      1  0.5483730000000  0.5069930000000  0.6627920000000 1.0
C      1  0.5006610000000  0.4110200000000  0.6228810000000 1.0
C      1  0.6097530000000  0.4823440000000  0.5795810000000 1.0
C      1  0.5962410000000  0.4808640000000  0.3317010000000 1.0
C      1  0.3885290000000  0.3293440000000  0.3802340000000 1.0
C      1  0.5627580000000  0.3440050000000  0.2901770000000 1.0
C      1  0.4939090000000  0.3909750000000  0.7519460000000 1.0
C      1  0.6314070000000  0.6340210000000  0.3704230000000 1.0
C      1  0.6170910000000  0.6121650000000  0.4787130000000 1.0
C      1  0.6243880000000  0.7124660000000  0.5248960000000 1.0
C      1  0.3826490000000  0.6639760000000  0.6368700000000 1.0
C      1  0.5176700000000  0.6757420000000  0.3181060000000 1.0
C      1  0.4609510000000  0.6211100000000  0.3821900000000 1.0
C      1  0.5185160000000  0.5597900000000  0.4586320000000 1.0
C      1  0.5327900000000  0.6742290000000  0.6785520000000 1.0
C      1  0.6733820000000  0.6193150000000  0.6380560000000 1.0
C      1  0.6376980000000  0.3740060000000  0.4716200000000 1.0
C      1  0.3836320000000  0.3388820000000  0.5910920000000 1.0
C      1  0.6452240000000  0.3264960000000  0.6294530000000 1.0
C      1  0.2458120000000  0.5122420000000  0.3648920000000 1.0
C      1  0.2517190000000  0.4959140000000  0.5978590000000 1.0
C      1  0.5736200000000  0.3551000000000  0.6866070000000 1.0
C      1  0.5193790000000  0.7099630000000  0.5195490000000 1.0
C      1  0.3900340000000  0.3995540000000  0.4933440000000 1.0
C      1  0.5319980000000  0.4306170000000  0.3856670000000 1.0
C      1  0.6640500000000  0.5298540000000  0.3769960000000 1.0
C      1  0.6899090000000  0.4074090000000  0.5895850000000 1.0
C      1  0.3575070000000  0.7071510000000  0.4858280000000 1.0
C      1  0.7194910000000  0.4676320000000  0.4238320000000 1.0
C      1  0.5915070000000  0.6004050000000  0.6840500000000 1.0
C      1  0.6224910000000  0.2991240000000  0.5346480000000 1.0
C      1  0.6563040000000  0.3382770000000  0.3121770000000 1.0
C      1  0.4889350000000  0.3902900000000  0.5278110000000 1.0
C      1  0.5550450000000  0.7091820000000  0.4138630000000 1.0
C      1  0.3249200000000  0.5594210000000  0.6109710000000 1.0
C      1  0.3750010000000  0.5971030000000  0.5224410000000 1.0
C      1  0.2311030000000  0.4221770000000  0.5659630000000 1.0
C      1  0.2942550000000  0.3536520000000  0.5266300000000 1.0
C      1  0.3040260000000  0.5616720000000  0.4155660000000 1.0
C      1  0.3635220000000  0.6524020000000  0.4031720000000 1.0
C      1  0.4495100000000  0.4904120000000  0.7156930000000 1.0
C      1  0.5620580000000  0.5212150000000  0.2479420000000 1.0
C      1  0.4130910000000  0.5305330000000  0.4212940000000 1.0
C      1  0.5001670000000  0.3229890000000  0.3826810000000 1.0
C      1  0.3886750000000  0.5679540000000  0.6968200000000 1.0
C      1  0.5244340000000  0.2927630000000  0.4893390000000 1.0
C      1  0.2641950000000  0.6151400000000  0.5063600000000 1.0
C      1  0.5379670000000  0.4184250000000  0.2300740000000 1.0
C      1  0.4470850000000  0.2687850000000  0.5631070000000 1.0
C      1  0.5608720000000  0.4572900000000  0.4862670000000 1.0
C      1  0.6961440000000  0.3737870000000  0.3906070000000 1.0
C      1  0.3006950000000  0.6919260000000  0.5759770000000 1.0
C      1  0.7273290000000  0.4768360000000  0.5187400000000 1.0
C      1  0.4254910000000  0.4321590000000  0.3962590000000 1.0
END
