TITL C-3036484-3770-929 2.40378250432041e-06 3375 -341.552337322264 0 0 60 (C1) n - 1
REM
REM in /home/bkarasulu/work/CARBON/AIRSS/Generating-Clusters/REBO/Higher-Symm/Only-C60
REM
REM
REM
REM
REM
REM ./C.cell (a2850807a9bf4ad07a5b6933b78d9264)
REM AIRSS Version 0.9.1 bugfix July 2018 build 013d7b7c2542+ Fri, 06 Jul 2018 19:26:36 +0100
REM compiler GCC version 9.2.1 20190827 (Red Hat 9.2.1-1)
REM options -cpp -mtune=generic -march=x86-64 -g -O0 -fpre-include=/usr/include/finclude/math-vector-fortran.h
REM seed -1756753581 -553410983 -1310455425 -1478928805 1818235992 57620247 -2061622964 -1101314462 1878216117 -887816612 904181128 809440901 1643085894 1714077221 1659664496 -749751227 -1946173553 -1427450382 454428105 216037513 789684894 1490283271 -1930912653 1710348371 -204861948 2013541356 538759343 -2112078931 358839719 2128155898 -234525439 -406474870 -1770691872
REM
CELL 1.54180   15.00000   15.00000   15.00000   90.00000   90.00000   90.00000
LATT -1
SFAC C  
C      1  0.6847820000000  0.5024760000000  0.5843410000000 1.0
C      1  0.5475270000000  0.6783800000000  0.5862830000000 1.0
C      1  0.3475000000000  0.6062860000000  0.5840910000000 1.0
C      1  0.3551810000000  0.3830440000000  0.5832200000000 1.0
C      1  0.5709180000000  0.3300300000000  0.5864520000000 1.0
C      1  0.4505630000000  0.4286340000000  0.3607630000000 1.0
C      1  0.5513390000000  0.4322630000000  0.3568550000000 1.0
C      1  0.5802420000000  0.5287890000000  0.3583140000000 1.0
C      1  0.4968190000000  0.5850980000000  0.3594470000000 1.0
C      1  0.4168180000000  0.5235400000000  0.3619610000000 1.0
C      1  0.4647650000000  0.2758300000000  0.3775700000000 1.0
C      1  0.7005740000000  0.3975440000000  0.3725280000000 1.0
C      1  0.6601510000000  0.6589950000000  0.3784910000000 1.0
C      1  0.3979670000000  0.7009430000000  0.3770080000000 1.0
C      1  0.2768520000000  0.4644140000000  0.3828700000000 1.0
C      1  0.7440810000000  0.5769010000000  0.5415270000000 1.0
C      1  0.4844250000000  0.7561530000000  0.5587360000000 1.0
C      1  0.2555240000000  0.5818210000000  0.5416870000000 1.0
C      1  0.3584130000000  0.2858820000000  0.5457670000000 1.0
C      1  0.6695530000000  0.3208300000000  0.5683910000000 1.0
C      1  0.6751320000000  0.5790300000000  0.3241490000000 1.0
C      1  0.4790580000000  0.6890430000000  0.3228320000000 1.0
C      1  0.3110640000000  0.5383300000000  0.3281330000000 1.0
C      1  0.4023720000000  0.3323390000000  0.3275000000000 1.0
C      1  0.6275110000000  0.3597720000000  0.3189520000000 1.0
C      1  0.4213180000000  0.5422820000000  0.5365280000000 1.0
C      1  0.4366150000000  0.4376720000000  0.5361310000000 1.0
C      1  0.5413380000000  0.4190900000000  0.5315620000000 1.0
C      1  0.5893530000000  0.5126340000000  0.5333640000000 1.0
C      1  0.5151160000000  0.5891670000000  0.5339270000000 1.0
C      1  0.5791840000000  0.5033800000000  0.7304520000000 1.0
C      1  0.5184530000000  0.5796020000000  0.7312850000000 1.0
C      1  0.4268320000000  0.5457240000000  0.7309790000000 1.0
C      1  0.4309140000000  0.4482950000000  0.7309370000000 1.0
C      1  0.5248480000000  0.4224030000000  0.7311730000000 1.0
C      1  0.5544140000000  0.2999170000000  0.3687740000000 1.0
C      1  0.7067330000000  0.4903110000000  0.3724450000000 1.0
C      1  0.5735710000000  0.6928940000000  0.3729490000000 1.0
C      1  0.3380440000000  0.6295940000000  0.3765280000000 1.0
C      1  0.3263540000000  0.3853230000000  0.3798080000000 1.0
C      1  0.6918690000000  0.6454470000000  0.4781320000000 1.0
C      1  0.4235540000000  0.7316930000000  0.4726530000000 1.0
C      1  0.2574940000000  0.4950340000000  0.4809290000000 1.0
C      1  0.4385070000000  0.2670970000000  0.4788340000000 1.0
C      1  0.6987710000000  0.3584550000000  0.4679120000000 1.0
C      1  0.5913920000000  0.3742940000000  0.4459050000000 1.0
C      1  0.6457480000000  0.5471640000000  0.4495960000000 1.0
C      1  0.4998610000000  0.6544660000000  0.4493450000000 1.0
C      1  0.3534330000000  0.5475520000000  0.4535470000000 1.0
C      1  0.4124720000000  0.3738770000000  0.4530810000000 1.0
C      1  0.6410650000000  0.7033550000000  0.5474450000000 1.0
C      1  0.3620570000000  0.7051410000000  0.5557280000000 1.0
C      1  0.2636640000000  0.4183670000000  0.5488350000000 1.0
C      1  0.5193770000000  0.2513430000000  0.5416230000000 1.0
C      1  0.7254460000000  0.4132520000000  0.5613500000000 1.0
C      1  0.3682540000000  0.3946580000000  0.6853060000000 1.0
C      1  0.5510310000000  0.3443340000000  0.6863210000000 1.0
C      1  0.6618160000000  0.5102160000000  0.6854490000000 1.0
C      1  0.5443170000000  0.6584940000000  0.6873660000000 1.0
C      1  0.3576570000000  0.5911060000000  0.6859330000000 1.0
END
