TITL C-3036479-9801-207 -3.50533538020268e-06 3375 -343.544113834615 0 0 60 (C3) n - 1
REM
REM in /home/bkarasulu/work/CARBON/AIRSS/Generating-Clusters/REBO/Higher-Symm/Only-C60
REM
REM
REM
REM
REM
REM ./C.cell (a2850807a9bf4ad07a5b6933b78d9264)
REM AIRSS Version 0.9.1 bugfix July 2018 build 013d7b7c2542+ Fri, 06 Jul 2018 19:26:36 +0100
REM compiler GCC version 9.2.1 20190827 (Red Hat 9.2.1-1)
REM options -cpp -mtune=generic -march=x86-64 -g -O0 -fpre-include=/usr/include/finclude/math-vector-fortran.h
REM seed 55642978 -169278590 -1468350796 1892098550 211422366 911322218 1999294580 1859798835 251358148 -1710846726 493666890 1243738017 -462437911 -659759655 -1672226960 -1335728598 -1422984910 1198116135 -1201208661 -145780868 -1402719510 412679462 -2120553591 165330476 -1212720786 451186183 414197647 1256987156 216559440 786246021 1869956319 1863183775 416587058
REM
CELL 1.54180   15.00000   15.00000   15.00000   90.00000   90.00000   90.00000
LATT -1
SFAC C  
C      1  0.5593880000000  0.5399030000000  0.4511260000000 1.0
C      1  0.5126330000000  0.5399000000000  0.5758700000000 1.0
C      1  0.4279800000000  0.5399030000000  0.4730070000000 1.0
C      1  0.3967970000000  0.5943630000000  0.5470760000000 1.0
C      1  0.5108360000000  0.5943660000000  0.3870890000000 1.0
C      1  0.5923690000000  0.5943610000000  0.5658430000000 1.0
C      1  0.3429650000000  0.5797290000000  0.6681600000000 1.0
C      1  0.4328900000000  0.5797380000000  0.2799260000000 1.0
C      1  0.7241480000000  0.5797280000000  0.5519200000000 1.0
C      1  0.3552070000000  0.6356540000000  0.4162780000000 1.0
C      1  0.6449060000000  0.6356510000000  0.4164710000000 1.0
C      1  0.4998900000000  0.6356460000000  0.6672620000000 1.0
C      1  0.6231620000000  0.5164740000000  0.2666020000000 1.0
C      1  0.6405480000000  0.5164620000000  0.7233610000000 1.0
C      1  0.2362900000000  0.5164710000000  0.5100380000000 1.0
C      1  0.3391220000000  0.4414210000000  0.4706500000000 1.0
C      1  0.6058550000000  0.4414210000000  0.3753490000000 1.0
C      1  0.5550210000000  0.4414150000000  0.6539970000000 1.0
C      1  0.4868250000000  0.4896140000000  0.2354770000000 1.0
C      1  0.7356710000000  0.4896020000000  0.6208510000000 1.0
C      1  0.2775040000000  0.4896060000000  0.6436710000000 1.0
C      1  0.6108980000000  0.4690670000000  0.4861610000000 1.0
C      1  0.4565350000000  0.4690660000000  0.6029590000000 1.0
C      1  0.4325670000000  0.4690710000000  0.4108770000000 1.0
C      1  0.5076630000000  0.4886430000000  0.3417260000000 1.0
C      1  0.6332370000000  0.4886360000000  0.5857730000000 1.0
C      1  0.3591000000000  0.4886380000000  0.5725000000000 1.0
C      1  0.6568690000000  0.3496450000000  0.5407560000000 1.0
C      1  0.3862640000000  0.3496460000000  0.6154700000000 1.0
C      1  0.4568630000000  0.3496520000000  0.3437620000000 1.0
C      1  0.7061430000000  0.4290470000000  0.4032530000000 1.0
C      1  0.4807110000000  0.4290400000000  0.7268970000000 1.0
C      1  0.3131440000000  0.4290510000000  0.3698450000000 1.0
C      1  0.2700790000000  0.5901670000000  0.5863400000000 1.0
C      1  0.5401920000000  0.5901730000000  0.2577150000000 1.0
C      1  0.6897320000000  0.5901610000000  0.6559520000000 1.0
C      1  0.7509680000000  0.5119860000000  0.4116130000000 1.0
C      1  0.4510620000000  0.5119800000000  0.7615390000000 1.0
C      1  0.2979700000000  0.5119920000000  0.3268490000000 1.0
C      1  0.5651380000000  0.6675230000000  0.4868730000000 1.0
C      1  0.4788050000000  0.6675220000000  0.5629790000000 1.0
C      1  0.4560620000000  0.6675250000000  0.4501600000000 1.0
C      1  0.4263140000000  0.5867170000000  0.7069200000000 1.0
C      1  0.3576480000000  0.5867280000000  0.3327290000000 1.0
C      1  0.7160400000000  0.5867210000000  0.4603580000000 1.0
C      1  0.5964790000000  0.4205190000000  0.2702500000000 1.0
C      1  0.6507270000000  0.4205080000000  0.6984260000000 1.0
C      1  0.2527920000000  0.4205160000000  0.5313180000000 1.0
C      1  0.6277880000000  0.6084590000000  0.3276050000000 1.0
C      1  0.5854090000000  0.6084490000000  0.6968680000000 1.0
C      1  0.2868070000000  0.6084580000000  0.4755350000000 1.0
C      1  0.2935350000000  0.3809940000000  0.6143850000000 1.0
C      1  0.5041690000000  0.3810010000000  0.2640000000000 1.0
C      1  0.7022940000000  0.3809900000000  0.6216070000000 1.0
C      1  0.4503350000000  0.3433120000000  0.5426410000000 1.0
C      1  0.4878990000000  0.3433150000000  0.4356640000000 1.0
C      1  0.5617620000000  0.3433120000000  0.5216830000000 1.0
C      1  0.4247260000000  0.3567760000000  0.7032720000000 1.0
C      1  0.3615930000000  0.3567860000000  0.3331700000000 1.0
C      1  0.7136770000000  0.3567800000000  0.4635460000000 1.0
END
