TITL C-3036479-9801-46 7.7304982135414e-07 3375 -341.487002409512 0 0 60 (C1) n - 1
REM
REM in /home/bkarasulu/work/CARBON/AIRSS/Generating-Clusters/REBO/Higher-Symm/Only-C60
REM
REM
REM
REM
REM
REM ./C.cell (a2850807a9bf4ad07a5b6933b78d9264)
REM AIRSS Version 0.9.1 bugfix July 2018 build 013d7b7c2542+ Fri, 06 Jul 2018 19:26:36 +0100
REM compiler GCC version 9.2.1 20190827 (Red Hat 9.2.1-1)
REM options -cpp -mtune=generic -march=x86-64 -g -O0 -fpre-include=/usr/include/finclude/math-vector-fortran.h
REM seed -1602570996 -277381030 4833413 -1850388705 -1307116106 1908334115 183619869 413962989 -1441712187 1735986716 993179598 2129213317 -896976540 1265311157 1800574084 395595967 -175735080 -1778946345 1824204651 957165512 -362337530 -1380493181 1655640736 -751134035 -1784633033 -211727186 -399194266 -1055098495 335767581 -303895938 -1230448512 -1504191590 1342877732
REM
CELL 1.54180   15.00000   15.00000   15.00000   90.00000   90.00000   90.00000
LATT -1
SFAC C  
C      1  0.6205190000000  0.5668960000000  0.2992740000000 1.0
C      1  0.3408570000000  0.5371510000000  0.3302910000000 1.0
C      1  0.2849320000000  0.5440350000000  0.6018320000000 1.0
C      1  0.5199200000000  0.5715720000000  0.7411230000000 1.0
C      1  0.7344700000000  0.5670380000000  0.5563010000000 1.0
C      1  0.6142070000000  0.4676930000000  0.2919630000000 1.0
C      1  0.3406800000000  0.4388790000000  0.3157560000000 1.0
C      1  0.2797770000000  0.4450220000000  0.5933760000000 1.0
C      1  0.5261730000000  0.4728620000000  0.7304170000000 1.0
C      1  0.7308380000000  0.4684170000000  0.5435680000000 1.0
C      1  0.5590410000000  0.3024980000000  0.4206590000000 1.0
C      1  0.4472760000000  0.3066130000000  0.4139700000000 1.0
C      1  0.4055610000000  0.3172680000000  0.5175360000000 1.0
C      1  0.4901350000000  0.3150040000000  0.5884170000000 1.0
C      1  0.5856190000000  0.3070110000000  0.5280090000000 1.0
C      1  0.5685440000000  0.6910600000000  0.4305550000000 1.0
C      1  0.4574530000000  0.6954820000000  0.4194590000000 1.0
C      1  0.4122760000000  0.7073600000000  0.5227750000000 1.0
C      1  0.4959250000000  0.7075540000000  0.5979830000000 1.0
C      1  0.5923370000000  0.6989270000000  0.5411020000000 1.0
C      1  0.5398040000000  0.5374900000000  0.5925330000000 1.0
C      1  0.5884620000000  0.5359930000000  0.4957030000000 1.0
C      1  0.5088490000000  0.5289390000000  0.4254150000000 1.0
C      1  0.4129190000000  0.5415740000000  0.4770430000000 1.0
C      1  0.4341010000000  0.5485970000000  0.5811880000000 1.0
C      1  0.5534610000000  0.4302480000000  0.5672350000000 1.0
C      1  0.5883040000000  0.4293740000000  0.4662130000000 1.0
C      1  0.5086650000000  0.4237550000000  0.3979380000000 1.0
C      1  0.4209950000000  0.4337030000000  0.4544730000000 1.0
C      1  0.4492770000000  0.4429640000000  0.5581690000000 1.0
C      1  0.4059730000000  0.6438860000000  0.6150830000000 1.0
C      1  0.5723350000000  0.6324680000000  0.6291780000000 1.0
C      1  0.6416960000000  0.6221310000000  0.4781250000000 1.0
C      1  0.5156740000000  0.6152750000000  0.3658960000000 1.0
C      1  0.3704270000000  0.6341960000000  0.4503970000000 1.0
C      1  0.3954110000000  0.3711200000000  0.6169830000000 1.0
C      1  0.5883760000000  0.3509960000000  0.6320420000000 1.0
C      1  0.6582860000000  0.3485100000000  0.4510790000000 1.0
C      1  0.5101230000000  0.3432230000000  0.3268350000000 1.0
C      1  0.3479450000000  0.3589190000000  0.4296600000000 1.0
C      1  0.2693270000000  0.5896380000000  0.5247410000000 1.0
C      1  0.4374280000000  0.6072060000000  0.7390510000000 1.0
C      1  0.7011740000000  0.5988140000000  0.6334520000000 1.0
C      1  0.6837840000000  0.5997210000000  0.3537260000000 1.0
C      1  0.4098350000000  0.5821100000000  0.2919370000000 1.0
C      1  0.2589390000000  0.4119320000000  0.5127170000000 1.0
C      1  0.4470120000000  0.4290140000000  0.7249280000000 1.0
C      1  0.6991120000000  0.4218640000000  0.6145170000000 1.0
C      1  0.6747190000000  0.4219930000000  0.3417870000000 1.0
C      1  0.4088540000000  0.4053280000000  0.2680120000000 1.0
C      1  0.5116100000000  0.5503040000000  0.2760730000000 1.0
C      1  0.2928460000000  0.5613980000000  0.4229380000000 1.0
C      1  0.3514710000000  0.5719480000000  0.6824040000000 1.0
C      1  0.6223660000000  0.5571070000000  0.6950170000000 1.0
C      1  0.7235830000000  0.5560800000000  0.4442550000000 1.0
C      1  0.5136960000000  0.4374230000000  0.2657880000000 1.0
C      1  0.2857050000000  0.4502410000000  0.4142730000000 1.0
C      1  0.3552350000000  0.4588190000000  0.6756420000000 1.0
C      1  0.6176330000000  0.4444700000000  0.6832320000000 1.0
C      1  0.7180460000000  0.4428870000000  0.4399580000000 1.0
END
