TITL C-3036480-97-613 -0.136369084492825 3375 -360.786821722303 0 0 60 (C1) n - 1
REM
REM in /home/bkarasulu/work/CARBON/AIRSS/Generating-Clusters/REBO/Higher-Symm/Only-C60
REM
REM
REM
REM
REM
REM ./C.cell (a2850807a9bf4ad07a5b6933b78d9264)
REM AIRSS Version 0.9.1 bugfix July 2018 build 013d7b7c2542+ Fri, 06 Jul 2018 19:26:36 +0100
REM compiler GCC version 9.2.1 20190827 (Red Hat 9.2.1-1)
REM options -cpp -mtune=generic -march=x86-64 -g -O0 -fpre-include=/usr/include/finclude/math-vector-fortran.h
REM seed -614368718 1963498975 228249004 -441757000 346901756 -2137642097 -1774011751 1324148582 1215432452 -524836617 -1650217454 634845489 -934874852 -592797341 880277942 -686876794 -170152656 -1410336188 -628600920 872222029 62884983 -267109261 -291112592 -520196789 -1147302709 1747651568 -1056252449 -846369859 1309677889 1222935955 -2025704753 -1443427608 174329484
REM
CELL 1.54180   15.00000   15.00000   15.00000   90.00000   90.00000   90.00000
LATT -1
SFAC C  
C      1  0.5205620000000  0.4055970000000  0.7072530000000 1.0
C      1  0.4041410000000  0.7100820000000  0.5203240000000 1.0
C      1  0.7131630000000  0.5185160000000  0.4044300000000 1.0
C      1  0.4819260000000  0.5962240000000  0.7134140000000 1.0
C      1  0.5203170000000  0.5957430000000  0.2900920000000 1.0
C      1  0.4812170000000  0.4030920000000  0.2856580000000 1.0
C      1  0.5961360000000  0.2865050000000  0.5192120000000 1.0
C      1  0.4025510000000  0.2844410000000  0.4811640000000 1.0
C      1  0.5971180000000  0.7143590000000  0.4811820000000 1.0
C      1  0.2898390000000  0.4797740000000  0.4040610000000 1.0
C      1  0.7125780000000  0.4813030000000  0.5957450000000 1.0
C      1  0.2856590000000  0.5188360000000  0.5971130000000 1.0
C      1  0.4053110000000  0.5204610000000  0.7078310000000 1.0
C      1  0.7082320000000  0.4051570000000  0.5196950000000 1.0
C      1  0.5190200000000  0.7138370000000  0.4038070000000 1.0
C      1  0.5965060000000  0.4817330000000  0.7127980000000 1.0
C      1  0.5977140000000  0.5191190000000  0.2852400000000 1.0
C      1  0.4037790000000  0.4810710000000  0.2859960000000 1.0
C      1  0.2865010000000  0.5960110000000  0.5190790000000 1.0
C      1  0.2846590000000  0.4026500000000  0.4811920000000 1.0
C      1  0.7085680000000  0.5948880000000  0.4804200000000 1.0
C      1  0.4797650000000  0.2897370000000  0.4041180000000 1.0
C      1  0.4810020000000  0.7150520000000  0.5976820000000 1.0
C      1  0.5190060000000  0.2858070000000  0.5970730000000 1.0
C      1  0.3647840000000  0.4332860000000  0.7040790000000 1.0
C      1  0.4316250000000  0.7065440000000  0.3628250000000 1.0
C      1  0.7045790000000  0.3633680000000  0.4327610000000 1.0
C      1  0.6391750000000  0.5694230000000  0.7080910000000 1.0
C      1  0.3627180000000  0.5685050000000  0.2933500000000 1.0
C      1  0.6389580000000  0.4306240000000  0.2919260000000 1.0
C      1  0.5673400000000  0.2951370000000  0.3637110000000 1.0
C      1  0.4312570000000  0.2928670000000  0.6386610000000 1.0
C      1  0.5695350000000  0.7084020000000  0.6387830000000 1.0
C      1  0.2935420000000  0.6370910000000  0.4317170000000 1.0
C      1  0.7049040000000  0.6364820000000  0.5674910000000 1.0
C      1  0.2917210000000  0.3613030000000  0.5695800000000 1.0
C      1  0.4334600000000  0.3648700000000  0.7039340000000 1.0
C      1  0.7077430000000  0.4308790000000  0.3622890000000 1.0
C      1  0.3635630000000  0.7046040000000  0.4328400000000 1.0
C      1  0.5696860000000  0.6388560000000  0.7082740000000 1.0
C      1  0.5689450000000  0.3616200000000  0.2927870000000 1.0
C      1  0.4328300000000  0.6364400000000  0.2953930000000 1.0
C      1  0.2953310000000  0.5672120000000  0.3635310000000 1.0
C      1  0.2927880000000  0.4311690000000  0.6386840000000 1.0
C      1  0.7078390000000  0.5689280000000  0.6377800000000 1.0
C      1  0.6371810000000  0.2933910000000  0.4317420000000 1.0
C      1  0.6385030000000  0.7073940000000  0.5688850000000 1.0
C      1  0.3612730000000  0.2916530000000  0.5696630000000 1.0
C      1  0.4541330000000  0.3815110000000  0.4648070000000 1.0
C      1  0.3819390000000  0.4539790000000  0.4642710000000 1.0
C      1  0.5326680000000  0.6278110000000  0.4690460000000 1.0
C      1  0.4646720000000  0.6178660000000  0.5458850000000 1.0
C      1  0.5310890000000  0.3729120000000  0.5330990000000 1.0
C      1  0.6163960000000  0.5325770000000  0.4583090000000 1.0
C      1  0.3728250000000  0.5306950000000  0.5331160000000 1.0
C      1  0.6156490000000  0.4676590000000  0.5413840000000 1.0
C      1  0.5461400000000  0.5352290000000  0.3827510000000 1.0
C      1  0.4683990000000  0.5429270000000  0.6162620000000 1.0
C      1  0.5427730000000  0.4691900000000  0.6155090000000 1.0
C      1  0.4687700000000  0.4676020000000  0.3722070000000 1.0
END
