TITL C-3036479-9801-784 -0.000501063334394548 3375 -369.656643116199 0 0 60 (C6) n - 1
REM
REM in /home/bkarasulu/work/CARBON/AIRSS/Generating-Clusters/REBO/Higher-Symm/Only-C60
REM
REM
REM
REM
REM
REM ./C.cell (a2850807a9bf4ad07a5b6933b78d9264)
REM AIRSS Version 0.9.1 bugfix July 2018 build 013d7b7c2542+ Fri, 06 Jul 2018 19:26:36 +0100
REM compiler GCC version 9.2.1 20190827 (Red Hat 9.2.1-1)
REM options -cpp -mtune=generic -march=x86-64 -g -O0 -fpre-include=/usr/include/finclude/math-vector-fortran.h
REM seed -1341042643 -1976067736 -255199800 1836675996 942856142 -398694675 1001829909 1410695819 320500853 1664818847 -534791809 -1202410095 -1342900818 -2022174000 447654322 1869896107 -6471043 98260656 -1745868285 -1256971496 1315452820 -997876606 21746289 471251652 -293794604 -1212453910 -1247404019 1742869382 1773983977 -1370590627 -1852900463 606264018 1586095432
REM
CELL 1.54180   15.00000   15.00000   15.00000   90.00000   90.00000   90.00000
LATT -1
SFAC C  
C      1  0.4219890000000  0.5581270000000  0.2759670000000 1.0
C      1  0.5113190000000  0.5964900000000  0.2759070000000 1.0
C      1  0.5892070000000  0.5383070000000  0.2758790000000 1.0
C      1  0.5777630000000  0.4417640000000  0.2759110000000 1.0
C      1  0.4884320000000  0.4034020000000  0.2759720000000 1.0
C      1  0.4105440000000  0.4615830000000  0.2759980000000 1.0
C      1  0.3728230000000  0.5949050000000  0.3545950000000 1.0
C      1  0.5185910000000  0.6575040000000  0.3544980000000 1.0
C      1  0.6456880000000  0.5625640000000  0.3544510000000 1.0
C      1  0.6270170000000  0.4050250000000  0.3545020000000 1.0
C      1  0.4812470000000  0.3424280000000  0.3546020000000 1.0
C      1  0.3541480000000  0.4373660000000  0.3546450000000 1.0
C      1  0.4604930000000  0.3949230000000  0.6913230000000 1.0
C      1  0.3892600000000  0.4817920000000  0.6913440000000 1.0
C      1  0.4288750000000  0.5869150000000  0.6912990000000 1.0
C      1  0.5397230000000  0.6051710000000  0.6912320000000 1.0
C      1  0.6109550000000  0.5183000000000  0.6912110000000 1.0
C      1  0.5713400000000  0.4131760000000  0.6912560000000 1.0
C      1  0.4036910000000  0.1682420000000  0.5286610000000 1.0
C      1  0.1645430000000  0.4175530000000  0.5287590000000 1.0
C      1  0.2608760000000  0.7493120000000  0.5286360000000 1.0
C      1  0.5963320000000  0.8317720000000  0.5283790000000 1.0
C      1  0.8354910000000  0.5824570000000  0.5283490000000 1.0
C      1  0.7391640000000  0.2507030000000  0.5284720000000 1.0
C      1  0.5655860000000  0.7472120000000  0.5165220000000 1.0
C      1  0.7468880000000  0.5668130000000  0.5164710000000 1.0
C      1  0.6813070000000  0.3196030000000  0.5165640000000 1.0
C      1  0.4344270000000  0.2527930000000  0.5167150000000 1.0
C      1  0.2531330000000  0.4331960000000  0.5167770000000 1.0
C      1  0.3187120000000  0.6804030000000  0.5166810000000 1.0
C      1  0.4088020000000  0.6958430000000  0.4832550000000 1.0
C      1  0.6240010000000  0.6768870000000  0.4831420000000 1.0
C      1  0.7151930000000  0.4810440000000  0.4831370000000 1.0
C      1  0.5911800000000  0.3041450000000  0.4832480000000 1.0
C      1  0.3759740000000  0.3230990000000  0.4833640000000 1.0
C      1  0.2847910000000  0.5189480000000  0.4833690000000 1.0
C      1  0.3605630000000  0.3856850000000  0.6380770000000 1.0
C      1  0.3312910000000  0.5636830000000  0.6380520000000 1.0
C      1  0.4708050000000  0.6780320000000  0.6379490000000 1.0
C      1  0.6395930000000  0.6143830000000  0.6378690000000 1.0
C      1  0.6688640000000  0.4363850000000  0.6378910000000 1.0
C      1  0.5293480000000  0.3220360000000  0.6379960000000 1.0
C      1  0.4306010000000  0.6618780000000  0.3977760000000 1.0
C      1  0.6054830000000  0.6409770000000  0.3976850000000 1.0
C      1  0.6748270000000  0.4790770000000  0.3976850000000 1.0
C      1  0.5692860000000  0.3380730000000  0.3977800000000 1.0
C      1  0.3944000000000  0.3589730000000  0.3978720000000 1.0
C      1  0.3250600000000  0.5208760000000  0.3978700000000 1.0
C      1  0.5714000000000  0.5586040000000  0.5705250000000 1.0
C      1  0.5864560000000  0.4675110000000  0.5705360000000 1.0
C      1  0.5150950000000  0.4089250000000  0.5705890000000 1.0
C      1  0.4286790000000  0.4414330000000  0.5706300000000 1.0
C      1  0.4136240000000  0.5325270000000  0.5706180000000 1.0
C      1  0.4849840000000  0.5911120000000  0.5705660000000 1.0
C      1  0.4773190000000  0.7212940000000  0.5434510000000 1.0
C      1  0.6803090000000  0.6303130000000  0.5433600000000 1.0
C      1  0.7030090000000  0.4090290000000  0.5433970000000 1.0
C      1  0.5227240000000  0.2787280000000  0.5435290000000 1.0
C      1  0.3197400000000  0.3697090000000  0.5436230000000 1.0
C      1  0.2970380000000  0.5909910000000  0.5435820000000 1.0
END
