TITL C-3036481-494-401 -1.79664244741714e-05 3375 -339.897697199392 0 0 60 (C3) n - 1
REM
REM in /home/bkarasulu/work/CARBON/AIRSS/Generating-Clusters/REBO/Higher-Symm/Only-C60
REM
REM
REM
REM
REM
REM ./C.cell (a2850807a9bf4ad07a5b6933b78d9264)
REM AIRSS Version 0.9.1 bugfix July 2018 build 013d7b7c2542+ Fri, 06 Jul 2018 19:26:36 +0100
REM compiler GCC version 9.2.1 20190827 (Red Hat 9.2.1-1)
REM options -cpp -mtune=generic -march=x86-64 -g -O0 -fpre-include=/usr/include/finclude/math-vector-fortran.h
REM seed -481973004 2138229272 -1590521182 1984660016 -2099666561 -1592958553 1244553172 -441599583 545029538 -935798170 -1194849255 -432885609 1038277456 1364505326 -1390798651 1935513206 -560449596 468932365 1491393518 1757754984 1603696302 -660843967 1252994776 2044434854 -1912480368 -2009270309 -1723155403 935594855 1163730333 -1564319640 685912848 1214500456 -46052776
REM
CELL 1.54180   15.00000   15.00000   15.00000   90.00000   90.00000   90.00000
LATT -1
SFAC C  
C      1  0.4365110000000  0.4856440000000  0.7368910000000 1.0
C      1  0.5193110000000  0.5621610000000  0.7368910000000 1.0
C      1  0.5441770000000  0.4521960000000  0.7368920000000 1.0
C      1  0.5324960000000  0.5928150000000  0.4539670000000 1.0
C      1  0.5641320000000  0.4254510000000  0.4539670000000 1.0
C      1  0.4033720000000  0.4817340000000  0.4539670000000 1.0
C      1  0.4797570000000  0.7064520000000  0.4092430000000 1.0
C      1  0.6889150000000  0.4143040000000  0.4092430000000 1.0
C      1  0.3313290000000  0.3792430000000  0.4092430000000 1.0
C      1  0.5265580000000  0.3472340000000  0.7051490000000 1.0
C      1  0.3544210000000  0.5533840000000  0.7051490000000 1.0
C      1  0.6190200000000  0.5993840000000  0.7051490000000 1.0
C      1  0.6838700000000  0.5097860000000  0.5583250000000 1.0
C      1  0.4165400000000  0.3358710000000  0.5583250000000 1.0
C      1  0.3995900000000  0.6543430000000  0.5583250000000 1.0
C      1  0.3883060000000  0.6795980000000  0.3988740000000 1.0
C      1  0.7113840000000  0.5069300000000  0.3988750000000 1.0
C      1  0.4003100000000  0.3134710000000  0.3988750000000 1.0
C      1  0.3572280000000  0.4702140000000  0.3571510000000 1.0
C      1  0.5455910000000  0.6385370000000  0.3571510000000 1.0
C      1  0.5971810000000  0.3912480000000  0.3571520000000 1.0
C      1  0.7357570000000  0.4274030000000  0.5521380000000 1.0
C      1  0.3192510000000  0.3321270000000  0.5521370000000 1.0
C      1  0.4449920000000  0.7404700000000  0.5521370000000 1.0
C      1  0.6393080000000  0.5046480000000  0.6524480000000 1.0
C      1  0.4343710000000  0.3770320000000  0.6524480000000 1.0
C      1  0.4263200000000  0.6183210000000  0.6524480000000 1.0
C      1  0.2855930000000  0.4308940000000  0.5799640000000 1.0
C      1  0.5473550000000  0.7202350000000  0.5799640000000 1.0
C      1  0.6670510000000  0.3488710000000  0.5799650000000 1.0
C      1  0.5047100000000  0.3246300000000  0.3558730000000 1.0
C      1  0.3457700000000  0.5836070000000  0.3558720000000 1.0
C      1  0.6495210000000  0.5917630000000  0.3558730000000 1.0
C      1  0.5690460000000  0.3830770000000  0.5510070000000 1.0
C      1  0.3642190000000  0.4986660000000  0.5510060000000 1.0
C      1  0.5667350000000  0.6182570000000  0.5510060000000 1.0
C      1  0.4350580000000  0.5825210000000  0.4768070000000 1.0
C      1  0.6039360000000  0.5149810000000  0.4768080000000 1.0
C      1  0.4610060000000  0.4024980000000  0.4768080000000 1.0
C      1  0.6222500000000  0.3984350000000  0.6720300000000 1.0
C      1  0.3509160000000  0.4449100000000  0.6720290000000 1.0
C      1  0.5268320000000  0.6566550000000  0.6720290000000 1.0
C      1  0.2759320000000  0.4460070000000  0.4674970000000 1.0
C      1  0.5652750000000  0.7210440000000  0.4674970000000 1.0
C      1  0.6587930000000  0.3329480000000  0.4674970000000 1.0
C      1  0.5889690000000  0.5447210000000  0.2745280000000 1.0
C      1  0.4942460000000  0.4005910000000  0.2745280000000 1.0
C      1  0.4167870000000  0.5546880000000  0.2745280000000 1.0
C      1  0.4399410000000  0.5210610000000  0.6087910000000 1.0
C      1  0.5482690000000  0.5414820000000  0.6087920000000 1.0
C      1  0.5117900000000  0.4374570000000  0.6087920000000 1.0
C      1  0.6446840000000  0.6712500000000  0.4382150000000 1.0
C      1  0.5759650000000  0.2890750000000  0.4382150000000 1.0
C      1  0.2793510000000  0.5396750000000  0.4382150000000 1.0
C      1  0.4176470000000  0.4532780000000  0.2712910000000 1.0
C      1  0.5007150000000  0.5946810000000  0.2712910000000 1.0
C      1  0.5816390000000  0.4520400000000  0.2712920000000 1.0
C      1  0.3295020000000  0.6269810000000  0.4798100000000 1.0
C      1  0.6952180000000  0.5841650000000  0.4798100000000 1.0
C      1  0.4752800000000  0.2888540000000  0.4798100000000 1.0
END
