TITL C-3036486-2224-628 3.13280097521687e-07 3375 -355.416710830075 0 0 60 (C1) n - 1
REM
REM in /home/bkarasulu/work/CARBON/AIRSS/Generating-Clusters/REBO/Higher-Symm/Only-C60
REM
REM
REM
REM
REM
REM ./C.cell (a2850807a9bf4ad07a5b6933b78d9264)
REM AIRSS Version 0.9.1 bugfix July 2018 build 013d7b7c2542+ Fri, 06 Jul 2018 19:26:36 +0100
REM compiler GCC version 9.2.1 20190827 (Red Hat 9.2.1-1)
REM options -cpp -mtune=generic -march=x86-64 -g -O0 -fpre-include=/usr/include/finclude/math-vector-fortran.h
REM seed -1250756028 -992833652 1801573985 876838792 1249948098 -1081546446 -1070706656 -308044073 -1625662938 -1173752791 -1928609384 -1626183469 1676501174 -799288653 797159175 -112773995 -2015408023 2072011908 581459121 -1618014552 874468527 2095788674 -208666104 712963701 -2142571034 -707743945 -252393798 1736680631 -1258815885 2129037905 1710058055 -892971875 652653127
REM
CELL 1.54180   15.00000   15.00000   15.00000   90.00000   90.00000   90.00000
LATT -1
SFAC C  
C      1  0.5105570000000  0.6247040000000  0.5075490000000 1.0
C      1  0.4095940000000  0.5871460000000  0.5077150000000 1.0
C      1  0.3760010000000  0.4853780000000  0.5084940000000 1.0
C      1  0.4345680000000  0.3954830000000  0.5081270000000 1.0
C      1  0.5418540000000  0.3850980000000  0.5076970000000 1.0
C      1  0.6166190000000  0.4624030000000  0.5069960000000 1.0
C      1  0.6027620000000  0.5690550000000  0.5069910000000 1.0
C      1  0.5480230000000  0.3971490000000  0.6952420000000 1.0
C      1  0.6077390000000  0.4717660000000  0.6920070000000 1.0
C      1  0.5905770000000  0.5675230000000  0.6918840000000 1.0
C      1  0.5086570000000  0.6167390000000  0.6948390000000 1.0
C      1  0.4134590000000  0.5733190000000  0.6973450000000 1.0
C      1  0.3657730000000  0.4778490000000  0.7064890000000 1.0
C      1  0.4436250000000  0.4048370000000  0.6977750000000 1.0
C      1  0.5008200000000  0.6979070000000  0.4213360000000 1.0
C      1  0.3463240000000  0.6260660000000  0.4218960000000 1.0
C      1  0.3065910000000  0.4602570000000  0.4220600000000 1.0
C      1  0.4107990000000  0.3253700000000  0.4220590000000 1.0
C      1  0.5811930000000  0.3227180000000  0.4214260000000 1.0
C      1  0.6896940000000  0.4548170000000  0.4204670000000 1.0
C      1  0.6538010000000  0.6218860000000  0.4204300000000 1.0
C      1  0.5989710000000  0.6859720000000  0.5847020000000 1.0
C      1  0.4167450000000  0.6929010000000  0.5868440000000 1.0
C      1  0.2961200000000  0.5574420000000  0.5856670000000 1.0
C      1  0.3283930000000  0.3791380000000  0.5855660000000 1.0
C      1  0.4877980000000  0.2940670000000  0.5870750000000 1.0
C      1  0.6564400000000  0.3631180000000  0.5849430000000 1.0
C      1  0.7058430000000  0.5385570000000  0.5843640000000 1.0
C      1  0.2848380000000  0.5537590000000  0.4787460000000 1.0
C      1  0.3240620000000  0.3673060000000  0.4787510000000 1.0
C      1  0.4947120000000  0.2811280000000  0.4796890000000 1.0
C      1  0.6684900000000  0.3610270000000  0.4777670000000 1.0
C      1  0.7142110000000  0.5467030000000  0.4771660000000 1.0
C      1  0.5973910000000  0.6980220000000  0.4776330000000 1.0
C      1  0.4063380000000  0.7012690000000  0.4793890000000 1.0
C      1  0.5715310000000  0.3313370000000  0.6259250000000 1.0
C      1  0.6787820000000  0.4521050000000  0.6242810000000 1.0
C      1  0.6504300000000  0.6105290000000  0.6241900000000 1.0
C      1  0.5079680000000  0.6866430000000  0.6254820000000 1.0
C      1  0.3575980000000  0.6237030000000  0.6247020000000 1.0
C      1  0.3079240000000  0.4673410000000  0.6273210000000 1.0
C      1  0.4088010000000  0.3379690000000  0.6252760000000 1.0
C      1  0.3925990000000  0.5480050000000  0.2334140000000 1.0
C      1  0.3957890000000  0.4481660000000  0.2336190000000 1.0
C      1  0.4754600000000  0.3879880000000  0.2333770000000 1.0
C      1  0.5721300000000  0.4129950000000  0.2329320000000 1.0
C      1  0.6125050000000  0.5043640000000  0.2326790000000 1.0
C      1  0.5665990000000  0.5930570000000  0.2327990000000 1.0
C      1  0.4687130000000  0.6126780000000  0.2330760000000 1.0
C      1  0.4992780000000  0.6322000000000  0.3404540000000 1.0
C      1  0.3965500000000  0.5839150000000  0.3408460000000 1.0
C      1  0.3705920000000  0.4733920000000  0.3411050000000 1.0
C      1  0.4402840000000  0.3837610000000  0.3409740000000 1.0
C      1  0.5537890000000  0.3825060000000  0.3405530000000 1.0
C      1  0.6252080000000  0.4707660000000  0.3401390000000 1.0
C      1  0.6009630000000  0.5816890000000  0.3400960000000 1.0
C      1  0.4980760000000  0.5010580000000  0.3728950000000 1.0
C      1  0.4787400000000  0.4979490000000  0.6425550000000 1.0
C      1  0.4993360000000  0.5014490000000  0.5553390000000 1.0
C      1  0.4987380000000  0.5012580000000  0.4603120000000 1.0
END
