TITL C-3036486-2224-779 -0.138226206869451 3375 -343.770277376113 0 0 60 (C2v) n - 1
REM
REM in /home/bkarasulu/work/CARBON/AIRSS/Generating-Clusters/REBO/Higher-Symm/Only-C60
REM
REM
REM
REM
REM
REM ./C.cell (a2850807a9bf4ad07a5b6933b78d9264)
REM AIRSS Version 0.9.1 bugfix July 2018 build 013d7b7c2542+ Fri, 06 Jul 2018 19:26:36 +0100
REM compiler GCC version 9.2.1 20190827 (Red Hat 9.2.1-1)
REM options -cpp -mtune=generic -march=x86-64 -g -O0 -fpre-include=/usr/include/finclude/math-vector-fortran.h
REM seed -1097568561 -305222878 -741893969 -1394979596 -1224383224 -1215195780 -1443601073 -1756497614 -718578169 1191326247 -808219619 -760125297 -826075561 -2104109012 -669793750 -810398196 -754080352 -456242173 1810891126 -1291790151 1062939622 398970585 -1129079483 1832216724 -5663505 -367573724 -1366371684 958252263 -98039930 499209106 521483632 -711715977 -1106269194
REM
CELL 1.54180   15.00000   15.00000   15.00000   90.00000   90.00000   90.00000
LATT -1
SFAC C  
C      1  0.2962870000000  0.4369810000000  0.6034340000000 1.0
C      1  0.7022420000000  0.4368730000000  0.3954860000000 1.0
C      1  0.7022730000000  0.4368790000000  0.6033760000000 1.0
C      1  0.2962930000000  0.4369550000000  0.3954950000000 1.0
C      1  0.4508900000000  0.6802410000000  0.6371650000000 1.0
C      1  0.5476300000000  0.6804220000000  0.3618250000000 1.0
C      1  0.5475940000000  0.6803160000000  0.6371160000000 1.0
C      1  0.4508840000000  0.6803280000000  0.3617760000000 1.0
C      1  0.5809300000000  0.4882200000000  0.4115410000000 1.0
C      1  0.4179060000000  0.4878720000000  0.5873740000000 1.0
C      1  0.4178920000000  0.4878950000000  0.4115290000000 1.0
C      1  0.5809080000000  0.4882740000000  0.5872130000000 1.0
C      1  0.5564060000000  0.4202880000000  0.2961260000000 1.0
C      1  0.4420130000000  0.4203710000000  0.7024270000000 1.0
C      1  0.4420470000000  0.4203400000000  0.2965180000000 1.0
C      1  0.5563650000000  0.4202590000000  0.7028460000000 1.0
C      1  0.3842820000000  0.7024760000000  0.4401190000000 1.0
C      1  0.6142910000000  0.7025770000000  0.5587820000000 1.0
C      1  0.6143160000000  0.7025590000000  0.4400860000000 1.0
C      1  0.3842890000000  0.7024620000000  0.5587360000000 1.0
C      1  0.6829600000000  0.5384280000000  0.5962130000000 1.0
C      1  0.3157250000000  0.5384200000000  0.4027810000000 1.0
C      1  0.3157180000000  0.5383990000000  0.5961270000000 1.0
C      1  0.6829320000000  0.5384250000000  0.4027110000000 1.0
C      1  0.3956460000000  0.3121880000000  0.4114700000000 1.0
C      1  0.6024180000000  0.3125670000000  0.5872890000000 1.0
C      1  0.6024140000000  0.3125240000000  0.4116380000000 1.0
C      1  0.3956460000000  0.3121820000000  0.5874320000000 1.0
C      1  0.5675470000000  0.6058870000000  0.3076130000000 1.0
C      1  0.4305050000000  0.6058320000000  0.6913520000000 1.0
C      1  0.4309710000000  0.6058080000000  0.3075530000000 1.0
C      1  0.5680430000000  0.6059300000000  0.6912880000000 1.0
C      1  0.4338790000000  0.5819000000000  0.5506810000000 1.0
C      1  0.5647060000000  0.5820240000000  0.4481990000000 1.0
C      1  0.5647390000000  0.5820010000000  0.5506630000000 1.0
C      1  0.4339030000000  0.5819240000000  0.4482220000000 1.0
C      1  0.3070310000000  0.6209860000000  0.5500100000000 1.0
C      1  0.6916270000000  0.6209740000000  0.4488820000000 1.0
C      1  0.6916280000000  0.6209790000000  0.5500310000000 1.0
C      1  0.3070520000000  0.6210000000000  0.4489090000000 1.0
C      1  0.6313610000000  0.3824090000000  0.3491350000000 1.0
C      1  0.3669040000000  0.3823130000000  0.6497810000000 1.0
C      1  0.3669470000000  0.3823500000000  0.3491190000000 1.0
C      1  0.6313590000000  0.3824170000000  0.6497940000000 1.0
C      1  0.4988860000000  0.3106310000000  0.4089060000000 1.0
C      1  0.4988820000000  0.3106150000000  0.5899900000000 1.0
C      1  0.3778150000000  0.4452900000000  0.4994520000000 1.0
C      1  0.6207910000000  0.4455710000000  0.4994040000000 1.0
C      1  0.4995070000000  0.4288520000000  0.5838890000000 1.0
C      1  0.4994350000000  0.4288740000000  0.4150640000000 1.0
C      1  0.4441520000000  0.7744700000000  0.4994360000000 1.0
C      1  0.5539970000000  0.7741600000000  0.4994310000000 1.0
C      1  0.3547700000000  0.3147990000000  0.4994450000000 1.0
C      1  0.6434580000000  0.3148860000000  0.4994620000000 1.0
C      1  0.4992320000000  0.5183510000000  0.7093490000000 1.0
C      1  0.4992640000000  0.5183270000000  0.2895260000000 1.0
C      1  0.2797480000000  0.3943080000000  0.4994170000000 1.0
C      1  0.7187910000000  0.3942360000000  0.4994270000000 1.0
C      1  0.4993060000000  0.6666160000000  0.4994820000000 1.0
C      1  0.5005350000000  0.3665080000000  0.4994670000000 1.0
END
