TITL C-3036480-97-700 -1.62923819812474e-05 3375 -359.167759525493 0 0 60 (S10) n - 1
REM
REM in /home/bkarasulu/work/CARBON/AIRSS/Generating-Clusters/REBO/Higher-Symm/Only-C60
REM
REM
REM
REM
REM
REM ./C.cell (a2850807a9bf4ad07a5b6933b78d9264)
REM AIRSS Version 0.9.1 bugfix July 2018 build 013d7b7c2542+ Fri, 06 Jul 2018 19:26:36 +0100
REM compiler GCC version 9.2.1 20190827 (Red Hat 9.2.1-1)
REM options -cpp -mtune=generic -march=x86-64 -g -O0 -fpre-include=/usr/include/finclude/math-vector-fortran.h
REM seed -68702231 -647724073 -1966187361 -1718957249 1666960917 1805386813 1568436915 -1020739568 -644666556 1737472194 -1272643740 -355426434 -652369447 1380461125 1381013211 410837326 614318343 -768291609 1879877784 -896673527 -772722321 1831131000 826789816 519383062 -711261214 -283407518 -1911140803 222371170 -845835040 -38265256 -1488827615 1333575108 225587953
REM
CELL 1.54180   15.00000   15.00000   15.00000   90.00000   90.00000   90.00000
LATT -1
SFAC C  
C      1  0.4888600000000  0.7388610000000  0.3835580000000 1.0
C      1  0.5111240000000  0.6248000000000  0.2653970000000 1.0
C      1  0.4888610000000  0.4630690000000  0.2368470000000 1.0
C      1  0.5111300000000  0.3154450000000  0.3088120000000 1.0
C      1  0.4888700000000  0.2383140000000  0.4538050000000 1.0
C      1  0.5111400000000  0.2611390000000  0.6164420000000 1.0
C      1  0.4888760000000  0.3752000000000  0.7346030000000 1.0
C      1  0.5111390000000  0.5369310000000  0.7631530000000 1.0
C      1  0.4888700000000  0.6845550000000  0.6911880000000 1.0
C      1  0.5111300000000  0.7616860000000  0.5461950000000 1.0
C      1  0.2882920000000  0.4698560000000  0.4247440000000 1.0
C      1  0.7117070000000  0.4313810000000  0.4568220000000 1.0
C      1  0.2882950000000  0.4191040000000  0.5054140000000 1.0
C      1  0.7117090000000  0.4377390000000  0.5519170000000 1.0
C      1  0.2882960000000  0.4801430000000  0.5786110000000 1.0
C      1  0.7117080000000  0.5301440000000  0.5752560000000 1.0
C      1  0.2882930000000  0.5686190000000  0.5431780000000 1.0
C      1  0.7117050000000  0.5808960000000  0.4945860000000 1.0
C      1  0.2882910000000  0.5622610000000  0.4480830000000 1.0
C      1  0.7117040000000  0.5198570000000  0.4213890000000 1.0
C      1  0.4751910000000  0.6166530000000  0.5943650000000 1.0
C      1  0.5248080000000  0.6498410000000  0.5077750000000 1.0
C      1  0.4751860000000  0.6257930000000  0.4182170000000 1.0
C      1  0.5248050000000  0.5536990000000  0.3598950000000 1.0
C      1  0.4751870000000  0.4610910000000  0.3550910000000 1.0
C      1  0.5248090000000  0.3833470000000  0.4056350000000 1.0
C      1  0.4751920000000  0.3501590000000  0.4922250000000 1.0
C      1  0.5248140000000  0.3742070000000  0.5817830000000 1.0
C      1  0.4751950000000  0.4463010000000  0.6401050000000 1.0
C      1  0.5248130000000  0.5389090000000  0.6449090000000 1.0
C      1  0.6349400000000  0.5566460000000  0.6400950000000 1.0
C      1  0.3650640000000  0.6281720000000  0.5800510000000 1.0
C      1  0.6349340000000  0.6507480000000  0.4894170000000 1.0
C      1  0.3650590000000  0.6157360000000  0.4028390000000 1.0
C      1  0.6349320000000  0.5365240000000  0.3533590000000 1.0
C      1  0.3650600000000  0.4433540000000  0.3599050000000 1.0
C      1  0.6349360000000  0.3718280000000  0.4199490000000 1.0
C      1  0.3650660000000  0.3492520000000  0.5105830000000 1.0
C      1  0.6349410000000  0.3842640000000  0.5971610000000 1.0
C      1  0.3650680000000  0.4634760000000  0.6466410000000 1.0
C      1  0.6215050000000  0.3163220000000  0.5114620000000 1.0
C      1  0.3785040000000  0.3581370000000  0.6172440000000 1.0
C      1  0.6215070000000  0.4541460000000  0.6782300000000 1.0
C      1  0.3785020000000  0.5676630000000  0.6711500000000 1.0
C      1  0.6215020000000  0.6553410000000  0.5986850000000 1.0
C      1  0.3784950000000  0.6836780000000  0.4885380000000 1.0
C      1  0.6214960000000  0.6418630000000  0.3827560000000 1.0
C      1  0.3784930000000  0.5458540000000  0.3217700000000 1.0
C      1  0.6214980000000  0.4323370000000  0.3288500000000 1.0
C      1  0.3784980000000  0.3446590000000  0.4013150000000 1.0
C      1  0.4446610000000  0.3137900000000  0.6690710000000 1.0
C      1  0.5553540000000  0.4487310000000  0.7462300000000 1.0
C      1  0.4446590000000  0.6032520000000  0.7293430000000 1.0
C      1  0.5553460000000  0.7183380000000  0.6248490000000 1.0
C      1  0.4446490000000  0.7500220000000  0.4726720000000 1.0
C      1  0.5553390000000  0.6862100000000  0.3309290000000 1.0
C      1  0.4446460000000  0.5512690000000  0.2537700000000 1.0
C      1  0.5553410000000  0.3967480000000  0.2706570000000 1.0
C      1  0.4446540000000  0.2816620000000  0.3751510000000 1.0
C      1  0.5553510000000  0.2499780000000  0.5273280000000 1.0
END
