TITL C-3036479-9801-528 -2.25437925365764e-07 3375 -346.807424836687 0 0 60 (D5) n - 1
REM
REM in /home/bkarasulu/work/CARBON/AIRSS/Generating-Clusters/REBO/Higher-Symm/Only-C60
REM
REM
REM
REM
REM
REM ./C.cell (a2850807a9bf4ad07a5b6933b78d9264)
REM AIRSS Version 0.9.1 bugfix July 2018 build 013d7b7c2542+ Fri, 06 Jul 2018 19:26:36 +0100
REM compiler GCC version 9.2.1 20190827 (Red Hat 9.2.1-1)
REM options -cpp -mtune=generic -march=x86-64 -g -O0 -fpre-include=/usr/include/finclude/math-vector-fortran.h
REM seed 783762328 311505962 226356182 1993932938 -606675765 1740118138 1689164335 -525380016 824010128 771453318 89510136 666072558 636149268 -1582930748 2120083141 884728056 1507127602 655419400 1841274877 -1245398685 1960874795 1855140709 -826850221 48822742 1031838786 -963187451 1031405753 4429499 -1074006458 -1627858553 -21656517 1030528140 1478689072
REM
CELL 1.54180   15.00000   15.00000   15.00000   90.00000   90.00000   90.00000
LATT -1
SFAC C  
C      1  0.5219630000000  0.6192500000000  0.5901470000000 1.0
C      1  0.5925350000000  0.6192400000000  0.5069770000000 1.0
C      1  0.5352440000000  0.6192420000000  0.4141590000000 1.0
C      1  0.4292640000000  0.6192540000000  0.4399630000000 1.0
C      1  0.4210560000000  0.6192590000000  0.5487300000000 1.0
C      1  0.5219420000000  0.3807460000000  0.4098540000000 1.0
C      1  0.5925100000000  0.3807420000000  0.4930260000000 1.0
C      1  0.5352160000000  0.3807510000000  0.5858430000000 1.0
C      1  0.4292370000000  0.3807610000000  0.5600340000000 1.0
C      1  0.4210330000000  0.3807570000000  0.4512670000000 1.0
C      1  0.5752520000000  0.5522090000000  0.3402930000000 1.0
C      1  0.3713690000000  0.5522320000000  0.3790830000000 1.0
C      1  0.3452570000000  0.5522430000000  0.5849730000000 1.0
C      1  0.5330020000000  0.5522270000000  0.6734310000000 1.0
C      1  0.6751470000000  0.5522060000000  0.5222100000000 1.0
C      1  0.5752350000000  0.4477750000000  0.6597100000000 1.0
C      1  0.3713540000000  0.4477940000000  0.6209120000000 1.0
C      1  0.3452500000000  0.4477890000000  0.4150210000000 1.0
C      1  0.5329980000000  0.4477660000000  0.3265710000000 1.0
C      1  0.6751360000000  0.4477580000000  0.4777970000000 1.0
C      1  0.4951740000000  0.5986150000000  0.2834680000000 1.0
C      1  0.2925850000000  0.5986420000000  0.4376850000000 1.0
C      1  0.3766500000000  0.5986430000000  0.6780140000000 1.0
C      1  0.6311950000000  0.5986170000000  0.6723290000000 1.0
C      1  0.7044470000000  0.5985990000000  0.4284850000000 1.0
C      1  0.4951450000000  0.4013860000000  0.7165320000000 1.0
C      1  0.2925620000000  0.4014010000000  0.5623070000000 1.0
C      1  0.3766370000000  0.4013830000000  0.3219810000000 1.0
C      1  0.6311810000000  0.4013560000000  0.3276770000000 1.0
C      1  0.7044240000000  0.4013590000000  0.5715230000000 1.0
C      1  0.5499750000000  0.2820380000000  0.6244180000000 1.0
C      1  0.6337480000000  0.2820240000000  0.4909030000000 1.0
C      1  0.5326540000000  0.2820290000000  0.3699720000000 1.0
C      1  0.3864020000000  0.2820470000000  0.4287470000000 1.0
C      1  0.3971070000000  0.2820520000000  0.5860040000000 1.0
C      1  0.5500250000000  0.7179520000000  0.3755840000000 1.0
C      1  0.6337930000000  0.7179490000000  0.5091030000000 1.0
C      1  0.5326940000000  0.7179640000000  0.6300300000000 1.0
C      1  0.3864450000000  0.7179770000000  0.5712480000000 1.0
C      1  0.3971560000000  0.7179690000000  0.4139920000000 1.0
C      1  0.4650750000000  0.2417140000000  0.6389900000000 1.0
C      1  0.6213670000000  0.2416950000000  0.5761470000000 1.0
C      1  0.6098970000000  0.2416900000000  0.4080860000000 1.0
C      1  0.4465160000000  0.2417050000000  0.3670610000000 1.0
C      1  0.3570120000000  0.2417200000000  0.5097670000000 1.0
C      1  0.4651340000000  0.7582930000000  0.3610090000000 1.0
C      1  0.6214230000000  0.7582800000000  0.4238570000000 1.0
C      1  0.6099470000000  0.7582880000000  0.5919180000000 1.0
C      1  0.4465650000000  0.7583060000000  0.6329370000000 1.0
C      1  0.3570660000000  0.7583100000000  0.4902270000000 1.0
C      1  0.6898570000000  0.5467690000000  0.6231930000000 1.0
C      1  0.6758370000000  0.5467600000000  0.3575070000000 1.0
C      1  0.4188230000000  0.5467840000000  0.2887400000000 1.0
C      1  0.2740000000000  0.5468070000000  0.5119240000000 1.0
C      1  0.4415070000000  0.5467980000000  0.7186270000000 1.0
C      1  0.6898520000000  0.4531920000000  0.3768150000000 1.0
C      1  0.6758220000000  0.4532040000000  0.6425000000000 1.0
C      1  0.4188050000000  0.4532330000000  0.7112570000000 1.0
C      1  0.2739900000000  0.4532390000000  0.4880670000000 1.0
C      1  0.4415060000000  0.4532140000000  0.2813700000000 1.0
END
