TITL C-3036482-790-132 -0.021187061792674 3375 -352.011486120418 0 0 60 (C1) n - 1
REM
REM in /home/bkarasulu/work/CARBON/AIRSS/Generating-Clusters/REBO/Higher-Symm/Only-C60
REM
REM
REM
REM
REM
REM ./C.cell (a2850807a9bf4ad07a5b6933b78d9264)
REM AIRSS Version 0.9.1 bugfix July 2018 build 013d7b7c2542+ Fri, 06 Jul 2018 19:26:36 +0100
REM compiler GCC version 9.2.1 20190827 (Red Hat 9.2.1-1)
REM options -cpp -mtune=generic -march=x86-64 -g -O0 -fpre-include=/usr/include/finclude/math-vector-fortran.h
REM seed 1371031397 1144392348 1125888480 -1632149973 -1772206921 -585440857 -972284831 -290866860 -261758889 2124515244 -2102665125 -100086339 2010138677 -1922699952 1010393798 189992395 2130409500 -42306887 329018603 318780847 -915872195 -315712383 -18692245 1225780832 1015052967 -1520168135 2065362487 -1851208991 -229176823 474874211 -73948045 -1312138084 806248458
REM
CELL 1.54180   15.00000   15.00000   15.00000   90.00000   90.00000   90.00000
LATT -1
SFAC C  
C      1  0.5148770000000  0.4407020000000  0.4321230000000 1.0
C      1  0.5147170000000  0.4815440000000  0.5587410000000 1.0
C      1  0.5071290000000  0.5555270000000  0.4989400000000 1.0
C      1  0.3827750000000  0.5711790000000  0.2677940000000 1.0
C      1  0.3831790000000  0.2657500000000  0.5545660000000 1.0
C      1  0.3864780000000  0.6618220000000  0.6739980000000 1.0
C      1  0.3591740000000  0.3200130000000  0.4570640000000 1.0
C      1  0.3718020000000  0.5485290000000  0.6718340000000 1.0
C      1  0.3667850000000  0.6288080000000  0.3654990000000 1.0
C      1  0.4532890000000  0.2800010000000  0.6408250000000 1.0
C      1  0.4570810000000  0.7265470000000  0.6174140000000 1.0
C      1  0.4523700000000  0.4854850000000  0.2451710000000 1.0
C      1  0.3369040000000  0.5288320000000  0.3846010000000 1.0
C      1  0.3386710000000  0.3889910000000  0.5350340000000 1.0
C      1  0.3422840000000  0.5838970000000  0.5765580000000 1.0
C      1  0.4600580000000  0.6457370000000  0.3029840000000 1.0
C      1  0.4612290000000  0.2715140000000  0.4730160000000 1.0
C      1  0.4631580000000  0.5934460000000  0.7220210000000 1.0
C      1  0.6002220000000  0.6253630000000  0.3757870000000 1.0
C      1  0.6130160000000  0.3238700000000  0.4555780000000 1.0
C      1  0.6082050000000  0.5381200000000  0.6797120000000 1.0
C      1  0.6893240000000  0.4772590000000  0.4383000000000 1.0
C      1  0.6951080000000  0.4586260000000  0.5496760000000 1.0
C      1  0.6851420000000  0.5632790000000  0.5088450000000 1.0
C      1  0.5921710000000  0.5709070000000  0.4579920000000 1.0
C      1  0.6023970000000  0.4241200000000  0.4599630000000 1.0
C      1  0.6038540000000  0.4860540000000  0.5938400000000 1.0
C      1  0.3829300000000  0.6872060000000  0.4567960000000 1.0
C      1  0.3679420000000  0.3748910000000  0.3618200000000 1.0
C      1  0.3885040000000  0.4420750000000  0.6756880000000 1.0
C      1  0.3631960000000  0.3437740000000  0.6362590000000 1.0
C      1  0.3652870000000  0.6943740000000  0.5656530000000 1.0
C      1  0.3543940000000  0.4630260000000  0.2932660000000 1.0
C      1  0.4340940000000  0.4359810000000  0.5743410000000 1.0
C      1  0.4237940000000  0.5946070000000  0.5020330000000 1.0
C      1  0.4235010000000  0.4641380000000  0.4050800000000 1.0
C      1  0.7475780000000  0.3160500000000  0.6244370000000 1.0
C      1  0.7517980000000  0.6926100000000  0.5937710000000 1.0
C      1  0.7515160000000  0.5099430000000  0.2849700000000 1.0
C      1  0.5544660000000  0.6186580000000  0.6801110000000 1.0
C      1  0.5496110000000  0.5950120000000  0.3014640000000 1.0
C      1  0.5532230000000  0.2812460000000  0.5184670000000 1.0
C      1  0.5415150000000  0.3011870000000  0.6134730000000 1.0
C      1  0.5440750000000  0.6899510000000  0.6143220000000 1.0
C      1  0.5407660000000  0.5022910000000  0.2743830000000 1.0
C      1  0.5740820000000  0.3521220000000  0.3523460000000 1.0
C      1  0.5585410000000  0.4480760000000  0.7123570000000 1.0
C      1  0.5572630000000  0.6979620000000  0.4397610000000 1.0
C      1  0.4692230000000  0.7073180000000  0.3965120000000 1.0
C      1  0.4709270000000  0.3414200000000  0.3892810000000 1.0
C      1  0.4690330000000  0.4822560000000  0.7331500000000 1.0
C      1  0.5956170000000  0.6957570000000  0.5322530000000 1.0
C      1  0.6027220000000  0.4356380000000  0.3093330000000 1.0
C      1  0.5937910000000  0.3700450000000  0.6583710000000 1.0
C      1  0.2585020000000  0.5467590000000  0.5416480000000 1.0
C      1  0.2575750000000  0.5150370000000  0.4408060000000 1.0
C      1  0.2588110000000  0.4437920000000  0.5197270000000 1.0
C      1  0.6876550000000  0.4721870000000  0.3390080000000 1.0
C      1  0.6824420000000  0.3812680000000  0.6187600000000 1.0
C      1  0.6842280000000  0.6574170000000  0.5424790000000 1.0
END
