TITL C-3036479-9801-593 1.54852739939726e-07 3375 -321.485347374371 0 0 60 (Th) n - 1
REM
REM in /home/bkarasulu/work/CARBON/AIRSS/Generating-Clusters/REBO/Higher-Symm/Only-C60
REM
REM
REM
REM
REM
REM ./C.cell (a2850807a9bf4ad07a5b6933b78d9264)
REM AIRSS Version 0.9.1 bugfix July 2018 build 013d7b7c2542+ Fri, 06 Jul 2018 19:26:36 +0100
REM compiler GCC version 9.2.1 20190827 (Red Hat 9.2.1-1)
REM options -cpp -mtune=generic -march=x86-64 -g -O0 -fpre-include=/usr/include/finclude/math-vector-fortran.h
REM seed 2084939392 1360200687 -1862015057 -1510298261 -1785691777 -1585628851 -1531476255 -1743428743 700586942 283522913 -1206579490 1582725702 -838348617 785777515 -725660654 -353118382 -2093329768 125387582 -283550831 591151977 1019729223 998329540 1399342804 -1961160516 -646055732 -526689412 1724183464 1654655715 1063579225 -1358730404 -1351219758 574756307 -1846367720
REM
CELL 1.54180   15.00000   15.00000   15.00000   90.00000   90.00000   90.00000
LATT -1
SFAC C  
C      1  0.6089150000000  0.4425320000000  0.2991890000000 1.0
C      1  0.4425320000000  0.2991890000000  0.6089150000000 1.0
C      1  0.2991890000000  0.6089150000000  0.4425320000000 1.0
C      1  0.6089150000000  0.5574680000000  0.7008110000000 1.0
C      1  0.3910850000000  0.4425320000000  0.7008110000000 1.0
C      1  0.3910850000000  0.5574680000000  0.2991890000000 1.0
C      1  0.4425320000000  0.7008110000000  0.3910850000000 1.0
C      1  0.5574680000000  0.2991890000000  0.3910850000000 1.0
C      1  0.5574680000000  0.7008110000000  0.6089150000000 1.0
C      1  0.2991890000000  0.3910850000000  0.5574680000000 1.0
C      1  0.7008110000000  0.6089150000000  0.5574680000000 1.0
C      1  0.7008110000000  0.3910850000000  0.4425320000000 1.0
C      1  0.3910850000000  0.4425320000000  0.2991890000000 1.0
C      1  0.5574680000000  0.2991890000000  0.6089150000000 1.0
C      1  0.7008110000000  0.6089150000000  0.4425320000000 1.0
C      1  0.3910850000000  0.5574680000000  0.7008110000000 1.0
C      1  0.6089150000000  0.4425320000000  0.7008110000000 1.0
C      1  0.6089150000000  0.5574680000000  0.2991890000000 1.0
C      1  0.5574680000000  0.7008110000000  0.3910850000000 1.0
C      1  0.4425320000000  0.2991890000000  0.3910850000000 1.0
C      1  0.4425320000000  0.7008110000000  0.6089150000000 1.0
C      1  0.7008110000000  0.3910850000000  0.5574680000000 1.0
C      1  0.2991890000000  0.6089150000000  0.5574680000000 1.0
C      1  0.2991890000000  0.3910850000000  0.4425320000000 1.0
C      1  0.7017020000000  0.5525180000000  0.3575160000000 1.0
C      1  0.5525180000000  0.3575160000000  0.7017020000000 1.0
C      1  0.3575160000000  0.7017020000000  0.5525180000000 1.0
C      1  0.7017020000000  0.4474820000000  0.6424840000000 1.0
C      1  0.2982980000000  0.5525180000000  0.6424840000000 1.0
C      1  0.2982980000000  0.4474820000000  0.3575160000000 1.0
C      1  0.5525180000000  0.6424840000000  0.2982980000000 1.0
C      1  0.4474820000000  0.3575160000000  0.2982980000000 1.0
C      1  0.4474820000000  0.6424840000000  0.7017020000000 1.0
C      1  0.3575160000000  0.2982980000000  0.4474820000000 1.0
C      1  0.6424840000000  0.7017020000000  0.4474820000000 1.0
C      1  0.6424840000000  0.2982980000000  0.5525180000000 1.0
C      1  0.2982980000000  0.5525180000000  0.3575160000000 1.0
C      1  0.4474820000000  0.3575160000000  0.7017020000000 1.0
C      1  0.6424840000000  0.7017020000000  0.5525180000000 1.0
C      1  0.2982980000000  0.4474820000000  0.6424840000000 1.0
C      1  0.7017020000000  0.5525180000000  0.6424840000000 1.0
C      1  0.7017020000000  0.4474820000000  0.3575160000000 1.0
C      1  0.4474820000000  0.6424840000000  0.2982980000000 1.0
C      1  0.5525180000000  0.3575160000000  0.2982980000000 1.0
C      1  0.5525180000000  0.6424840000000  0.7017020000000 1.0
C      1  0.6424840000000  0.2982980000000  0.4474820000000 1.0
C      1  0.3575160000000  0.7017020000000  0.4474820000000 1.0
C      1  0.3575160000000  0.2982980000000  0.5525180000000 1.0
C      1  0.6280480000000  0.4530130000000  0.5000000000000 1.0
C      1  0.4530130000000  0.5000000000000  0.6280480000000 1.0
C      1  0.5000000000000  0.3719520000000  0.5469870000000 1.0
C      1  0.5000000000000  0.6280480000000  0.5469870000000 1.0
C      1  0.6280480000000  0.5469870000000  0.5000000000000 1.0
C      1  0.3719520000000  0.4530130000000  0.5000000000000 1.0
C      1  0.3719520000000  0.5469870000000  0.5000000000000 1.0
C      1  0.5469870000000  0.5000000000000  0.3719520000000 1.0
C      1  0.5000000000000  0.6280480000000  0.4530130000000 1.0
C      1  0.5000000000000  0.3719520000000  0.4530130000000 1.0
C      1  0.4530130000000  0.5000000000000  0.3719520000000 1.0
C      1  0.5469870000000  0.5000000000000  0.6280480000000 1.0
END
