TITL C-3036480-97-677 0.011452180880812 3375 -344.17223817563 0 0 60 (C1) n - 1
REM
REM in /home/bkarasulu/work/CARBON/AIRSS/Generating-Clusters/REBO/Higher-Symm/Only-C60
REM
REM
REM
REM
REM
REM ./C.cell (a2850807a9bf4ad07a5b6933b78d9264)
REM AIRSS Version 0.9.1 bugfix July 2018 build 013d7b7c2542+ Fri, 06 Jul 2018 19:26:36 +0100
REM compiler GCC version 9.2.1 20190827 (Red Hat 9.2.1-1)
REM options -cpp -mtune=generic -march=x86-64 -g -O0 -fpre-include=/usr/include/finclude/math-vector-fortran.h
REM seed 763367897 -1520165779 41135066 1658838942 1968154055 -1787534858 -1663559617 1427879845 438936642 -1557884898 1698840610 -1189011206 -735301224 -1520461803 -2089785742 -1743253214 -1230345357 2115645239 -345888780 1267596870 1403047130 -2105503729 1581578837 1371904270 -1618138313 825201120 1497050038 688479396 -1723225392 -2074504838 479189911 976516591 -18716699
REM
CELL 1.54180   15.00000   15.00000   15.00000   90.00000   90.00000   90.00000
LATT -1
SFAC C  
C      1  0.4529920000000  0.6505430000000  0.6678690000000 1.0
C      1  0.4490200000000  0.2756630000000  0.5420180000000 1.0
C      1  0.4600820000000  0.5741490000000  0.2917190000000 1.0
C      1  0.3847720000000  0.6987950000000  0.5102560000000 1.0
C      1  0.3820270000000  0.3866790000000  0.6657860000000 1.0
C      1  0.3894620000000  0.4159920000000  0.3206000000000 1.0
C      1  0.4086080000000  0.7452340000000  0.4304190000000 1.0
C      1  0.4102760000000  0.4384260000000  0.7413980000000 1.0
C      1  0.4117540000000  0.3226630000000  0.3230200000000 1.0
C      1  0.6441170000000  0.3059980000000  0.5541530000000 1.0
C      1  0.6212080000000  0.5538000000000  0.3096280000000 1.0
C      1  0.6460700000000  0.6504430000000  0.6429280000000 1.0
C      1  0.4816740000000  0.5170960000000  0.5644820000000 1.0
C      1  0.4791130000000  0.4337400000000  0.4936640000000 1.0
C      1  0.4882140000000  0.5391450000000  0.4559370000000 1.0
C      1  0.5038830000000  0.4421520000000  0.7568540000000 1.0
C      1  0.5038320000000  0.3011020000000  0.3178000000000 1.0
C      1  0.5020750000000  0.7609380000000  0.4193060000000 1.0
C      1  0.6996200000000  0.4956890000000  0.4384450000000 1.0
C      1  0.7084710000000  0.5608500000000  0.5251180000000 1.0
C      1  0.7089740000000  0.4523990000000  0.5383370000000 1.0
C      1  0.6921220000000  0.6469180000000  0.5599500000000 1.0
C      1  0.6927330000000  0.3773460000000  0.5933200000000 1.0
C      1  0.6734310000000  0.4850510000000  0.3488300000000 1.0
C      1  0.3193120000000  0.4425420000000  0.5902440000000 1.0
C      1  0.3223980000000  0.4505680000000  0.4023790000000 1.0
C      1  0.3245190000000  0.6077020000000  0.5026660000000 1.0
C      1  0.6090980000000  0.7461400000000  0.4402210000000 1.0
C      1  0.6120430000000  0.4282240000000  0.7422420000000 1.0
C      1  0.6102030000000  0.3243740000000  0.3156210000000 1.0
C      1  0.4135130000000  0.5954930000000  0.4317550000000 1.0
C      1  0.4056410000000  0.5094620000000  0.6221470000000 1.0
C      1  0.4062450000000  0.3901710000000  0.4496870000000 1.0
C      1  0.5468370000000  0.6130850000000  0.3107520000000 1.0
C      1  0.5545240000000  0.6069820000000  0.6771330000000 1.0
C      1  0.5525040000000  0.2875450000000  0.5006470000000 1.0
C      1  0.3665570000000  0.5936540000000  0.6819600000000 1.0
C      1  0.3626200000000  0.2947810000000  0.4852350000000 1.0
C      1  0.3713770000000  0.6155000000000  0.3296210000000 1.0
C      1  0.3627880000000  0.7183610000000  0.3507770000000 1.0
C      1  0.3626040000000  0.5194470000000  0.7584720000000 1.0
C      1  0.3604510000000  0.2676840000000  0.3822200000000 1.0
C      1  0.5861480000000  0.6224900000000  0.4834700000000 1.0
C      1  0.5829220000000  0.4498360000000  0.6140620000000 1.0
C      1  0.5827200000000  0.4112220000000  0.4126460000000 1.0
C      1  0.3093460000000  0.3946780000000  0.5014680000000 1.0
C      1  0.3155960000000  0.5503580000000  0.4047030000000 1.0
C      1  0.3121360000000  0.5567520000000  0.5884400000000 1.0
C      1  0.5286030000000  0.6119860000000  0.5662160000000 1.0
C      1  0.5291720000000  0.3781260000000  0.5657110000000 1.0
C      1  0.5287480000000  0.4775820000000  0.3788490000000 1.0
C      1  0.4473150000000  0.3322390000000  0.6269520000000 1.0
C      1  0.4624120000000  0.4776600000000  0.3060700000000 1.0
C      1  0.4510220000000  0.6916980000000  0.5751710000000 1.0
C      1  0.6758660000000  0.7191370000000  0.4993970000000 1.0
C      1  0.6779930000000  0.3911770000000  0.6869440000000 1.0
C      1  0.6674740000000  0.3978700000000  0.3108320000000 1.0
C      1  0.5633470000000  0.2804390000000  0.4036690000000 1.0
C      1  0.5570530000000  0.6899190000000  0.3622080000000 1.0
C      1  0.5643610000000  0.5243050000000  0.7275760000000 1.0
END
