TITL C-3036483-1610-278 -2.44117815381467e-05 3375 -333.147631941919 0 0 60 (C10) n - 1
REM
REM in /home/bkarasulu/work/CARBON/AIRSS/Generating-Clusters/REBO/Higher-Symm/Only-C60
REM
REM
REM
REM
REM
REM ./C.cell (a2850807a9bf4ad07a5b6933b78d9264)
REM AIRSS Version 0.9.1 bugfix July 2018 build 013d7b7c2542+ Fri, 06 Jul 2018 19:26:36 +0100
REM compiler GCC version 9.2.1 20190827 (Red Hat 9.2.1-1)
REM options -cpp -mtune=generic -march=x86-64 -g -O0 -fpre-include=/usr/include/finclude/math-vector-fortran.h
REM seed 767984722 412172114 -310035503 -2107000101 -813021478 -1688792998 -2129358098 -1517939183 971454747 -1531044132 526222752 -665364581 -734186776 -884178072 -653167397 -1932689662 507494254 830855266 699844232 -411253836 1522320251 1332016148 -2071913917 1218236551 -2001416487 -1389629963 1321759696 -1703664535 1385996311 1573262849 -653665187 -1427277472 1905916812
REM
CELL 1.54180   15.00000   15.00000   15.00000   90.00000   90.00000   90.00000
LATT -1
SFAC C  
C      1  0.5169830000000  0.5063370000000  0.3513090000000 1.0
C      1  0.5169830000000  0.5925240000000  0.3834330000000 1.0
C      1  0.5169830000000  0.6433710000000  0.4600800000000 1.0
C      1  0.5169830000000  0.6394560000000  0.5519760000000 1.0
C      1  0.5169840000000  0.5822720000000  0.6240200000000 1.0
C      1  0.5169830000000  0.4936630000000  0.6486910000000 1.0
C      1  0.5169830000000  0.4074760000000  0.6165670000000 1.0
C      1  0.5169830000000  0.3566290000000  0.5399200000000 1.0
C      1  0.5169830000000  0.3605440000000  0.4480240000000 1.0
C      1  0.5169840000000  0.4177280000000  0.3759800000000 1.0
C      1  0.6515410000000  0.4507230000000  0.3233180000000 1.0
C      1  0.6515410000000  0.5639860000000  0.3280980000000 1.0
C      1  0.6515410000000  0.6528070000000  0.3985370000000 1.0
C      1  0.6515410000000  0.6832620000000  0.5077340000000 1.0
C      1  0.6515410000000  0.6437170000000  0.6139740000000 1.0
C      1  0.6515410000000  0.5492770000000  0.6766820000000 1.0
C      1  0.6515410000000  0.4360140000000  0.6719020000000 1.0
C      1  0.6515410000000  0.3471930000000  0.6014630000000 1.0
C      1  0.6515410000000  0.3167380000000  0.4922660000000 1.0
C      1  0.6515410000000  0.3562830000000  0.3860260000000 1.0
C      1  0.4004710000000  0.3605840000000  0.2896630000000 1.0
C      1  0.4004710000000  0.5108440000000  0.2478890000000 1.0
C      1  0.4004690000000  0.6569580000000  0.3024140000000 1.0
C      1  0.4004690000000  0.7431200000000  0.4324060000000 1.0
C      1  0.4004710000000  0.7364220000000  0.5882190000000 1.0
C      1  0.4004710000000  0.6394160000000  0.7103370000000 1.0
C      1  0.4004710000000  0.4891560000000  0.7521110000000 1.0
C      1  0.4004690000000  0.3430420000000  0.6975860000000 1.0
C      1  0.4004690000000  0.2568800000000  0.5675940000000 1.0
C      1  0.4004710000000  0.2635780000000  0.4117810000000 1.0
C      1  0.3406010000000  0.5640370000000  0.3283850000000 1.0
C      1  0.3406000000000  0.6526790000000  0.3988030000000 1.0
C      1  0.3406010000000  0.6830050000000  0.5078740000000 1.0
C      1  0.3406020000000  0.6434280000000  0.6139390000000 1.0
C      1  0.3406020000000  0.5490660000000  0.6764830000000 1.0
C      1  0.3406010000000  0.4359630000000  0.6716150000000 1.0
C      1  0.3406000000000  0.3473210000000  0.6011970000000 1.0
C      1  0.3406010000000  0.3169950000000  0.4921260000000 1.0
C      1  0.3406020000000  0.3565720000000  0.3860610000000 1.0
C      1  0.3406020000000  0.4509340000000  0.3235170000000 1.0
C      1  0.4946610000000  0.3608430000000  0.2902300000000 1.0
C      1  0.4946600000000  0.5107200000000  0.2485000000000 1.0
C      1  0.4946590000000  0.6564990000000  0.3028340000000 1.0
C      1  0.4946590000000  0.7425020000000  0.4324770000000 1.0
C      1  0.4946610000000  0.7358790000000  0.5879120000000 1.0
C      1  0.4946610000000  0.6391570000000  0.7097700000000 1.0
C      1  0.4946600000000  0.4892800000000  0.7515000000000 1.0
C      1  0.4946590000000  0.3435010000000  0.6971660000000 1.0
C      1  0.4946590000000  0.2574980000000  0.5675230000000 1.0
C      1  0.4946610000000  0.2641210000000  0.4120880000000 1.0
C      1  0.5957430000000  0.6587270000000  0.2998570000000 1.0
C      1  0.5957430000000  0.7460540000000  0.4313780000000 1.0
C      1  0.5957450000000  0.7393980000000  0.5891110000000 1.0
C      1  0.5957460000000  0.6412990000000  0.7128070000000 1.0
C      1  0.5957450000000  0.4892290000000  0.7552170000000 1.0
C      1  0.5957430000000  0.3412730000000  0.7001430000000 1.0
C      1  0.5957430000000  0.2539460000000  0.5686220000000 1.0
C      1  0.5957450000000  0.2606020000000  0.4108890000000 1.0
C      1  0.5957460000000  0.3587010000000  0.2871930000000 1.0
C      1  0.5957450000000  0.5107710000000  0.2447830000000 1.0
END
