TITL C-3036479-9801-311 0.0459914390525016 3375 -355.579717882974 0 0 60 (Ci) n - 1
REM
REM in /home/bkarasulu/work/CARBON/AIRSS/Generating-Clusters/REBO/Higher-Symm/Only-C60
REM
REM
REM
REM
REM
REM ./C.cell (a2850807a9bf4ad07a5b6933b78d9264)
REM AIRSS Version 0.9.1 bugfix July 2018 build 013d7b7c2542+ Fri, 06 Jul 2018 19:26:36 +0100
REM compiler GCC version 9.2.1 20190827 (Red Hat 9.2.1-1)
REM options -cpp -mtune=generic -march=x86-64 -g -O0 -fpre-include=/usr/include/finclude/math-vector-fortran.h
REM seed -308809693 871727846 101237734 -808324060 1453267821 69924575 -1406268687 -92381340 322290424 -1496629160 -239116578 836072517 -654850020 -1165106920 -828838061 435539269 402631850 -1771228361 -1538589313 -214886637 -2017484594 1635300231 -562539242 2042066678 -814412735 -714536627 1190894241 -201184583 1653101324 1531694294 -933543600 1842048589 1136365221
REM
CELL 1.54180   15.00000   15.00000   15.00000   90.00000   90.00000   90.00000
LATT -1
SFAC C  
C      1  0.6345030000000  0.4218870000000  0.5104150000000 1.0
C      1  0.3655170000000  0.5782180000000  0.4895790000000 1.0
C      1  0.3745240000000  0.5689550000000  0.6946320000000 1.0
C      1  0.6255010000000  0.4310110000000  0.3053640000000 1.0
C      1  0.4820150000000  0.3792830000000  0.2986000000000 1.0
C      1  0.5179930000000  0.6206960000000  0.7013890000000 1.0
C      1  0.5717490000000  0.3216780000000  0.7432690000000 1.0
C      1  0.4282260000000  0.6782620000000  0.2567360000000 1.0
C      1  0.2831350000000  0.4201770000000  0.6410460000000 1.0
C      1  0.7168620000000  0.5798170000000  0.3589130000000 1.0
C      1  0.5198940000000  0.4694300000000  0.6705180000000 1.0
C      1  0.4801420000000  0.5305640000000  0.3294550000000 1.0
C      1  0.3846410000000  0.5217770000000  0.3339390000000 1.0
C      1  0.6153450000000  0.4782610000000  0.6660840000000 1.0
C      1  0.4077370000000  0.5716790000000  0.5837400000000 1.0
C      1  0.5922670000000  0.4283220000000  0.4162390000000 1.0
C      1  0.3667190000000  0.3816890000000  0.6254190000000 1.0
C      1  0.6332830000000  0.6183070000000  0.3745720000000 1.0
C      1  0.6068920000000  0.6383580000000  0.6595930000000 1.0
C      1  0.3931220000000  0.3616530000000  0.3404090000000 1.0
C      1  0.4857570000000  0.7171450000000  0.4485200000000 1.0
C      1  0.5142510000000  0.2828570000000  0.5514660000000 1.0
C      1  0.3956800000000  0.6754740000000  0.4367670000000 1.0
C      1  0.6043240000000  0.3244930000000  0.5632430000000 1.0
C      1  0.2895210000000  0.5820760000000  0.6443170000000 1.0
C      1  0.7104990000000  0.4179010000000  0.3556480000000 1.0
C      1  0.6002050000000  0.7075530000000  0.5942170000000 1.0
C      1  0.3998190000000  0.2924670000000  0.4057890000000 1.0
C      1  0.5443950000000  0.4394770000000  0.2564880000000 1.0
C      1  0.4555630000000  0.5605610000000  0.7435580000000 1.0
C      1  0.5153330000000  0.6370350000000  0.2532180000000 1.0
C      1  0.4846320000000  0.3628940000000  0.7468140000000 1.0
C      1  0.6296020000000  0.3128200000000  0.6734330000000 1.0
C      1  0.3703680000000  0.6871780000000  0.3265570000000 1.0
C      1  0.3813260000000  0.7019790000000  0.5913700000000 1.0
C      1  0.6186800000000  0.2980870000000  0.4086480000000 1.0
C      1  0.6445430000000  0.5576670000000  0.6242150000000 1.0
C      1  0.3554680000000  0.4423440000000  0.3757970000000 1.0
C      1  0.2975590000000  0.6644330000000  0.5972320000000 1.0
C      1  0.7024690000000  0.3355830000000  0.4027790000000 1.0
C      1  0.5207920000000  0.3478000000000  0.3983880000000 1.0
C      1  0.4792080000000  0.6522140000000  0.6016060000000 1.0
C      1  0.5191770000000  0.5364720000000  0.2329930000000 1.0
C      1  0.4808050000000  0.4634460000000  0.7670460000000 1.0
C      1  0.5741050000000  0.6724770000000  0.3216680000000 1.0
C      1  0.4258800000000  0.3274940000000  0.6783210000000 1.0
C      1  0.2415720000000  0.5014260000000  0.6360430000000 1.0
C      1  0.7584440000000  0.4985880000000  0.3639000000000 1.0
C      1  0.3555320000000  0.4669850000000  0.4687580000000 1.0
C      1  0.6444850000000  0.5329500000000  0.5312340000000 1.0
C      1  0.5897760000000  0.5922630000000  0.4683300000000 1.0
C      1  0.4102500000000  0.4077560000000  0.5316800000000 1.0
C      1  0.4685080000000  0.2584600000000  0.6269060000000 1.0
C      1  0.5314930000000  0.7415300000000  0.3730700000000 1.0
C      1  0.4559770000000  0.4774030000000  0.5990300000000 1.0
C      1  0.5440010000000  0.5226300000000  0.4010100000000 1.0
C      1  0.3400480000000  0.5977660000000  0.3803150000000 1.0
C      1  0.6598720000000  0.4022670000000  0.6197190000000 1.0
C      1  0.4592560000000  0.3309340000000  0.4850960000000 1.0
C      1  0.5407610000000  0.6690890000000  0.5149000000000 1.0
END
