TITL C-3036479-9801-1074 1.0895445653518e-06 3375 -364.87202632244 0 0 60 (D5h) n - 1
REM
REM in /home/bkarasulu/work/CARBON/AIRSS/Generating-Clusters/REBO/Higher-Symm/Only-C60
REM
REM
REM
REM
REM
REM ./C.cell (a2850807a9bf4ad07a5b6933b78d9264)
REM AIRSS Version 0.9.1 bugfix July 2018 build 013d7b7c2542+ Fri, 06 Jul 2018 19:26:36 +0100
REM compiler GCC version 9.2.1 20190827 (Red Hat 9.2.1-1)
REM options -cpp -mtune=generic -march=x86-64 -g -O0 -fpre-include=/usr/include/finclude/math-vector-fortran.h
REM seed -648333943 1886443696 -1477055506 -758406097 178325757 -178008107 -1609019480 -1799218630 639043258 1792692408 -1297685429 561795635 -1300214589 234949419 -1320355356 464436719 579849693 -1768112626 -96821764 1227799053 1836207137 -792413604 278725091 -1927844190 -1512070785 -821449215 1122854208 -327582756 -1621451357 65873327 -1390089410 -1172623377 -331928114
REM
CELL 1.54180   15.00000   15.00000   15.00000   90.00000   90.00000   90.00000
LATT -1
SFAC C  
C      1  0.5825420000000  0.3539410000000  0.6273180000000 1.0
C      1  0.6644170000000  0.5333670000000  0.6273180000000 1.0
C      1  0.5190740000000  0.6666810000000  0.6273180000000 1.0
C      1  0.3473710000000  0.5696480000000  0.6273180000000 1.0
C      1  0.3865960000000  0.3763640000000  0.6273180000000 1.0
C      1  0.5825420000000  0.3539410000000  0.3726820000000 1.0
C      1  0.6644170000000  0.5333670000000  0.3726820000000 1.0
C      1  0.5190740000000  0.6666810000000  0.3726820000000 1.0
C      1  0.3473710000000  0.5696480000000  0.3726820000000 1.0
C      1  0.3865960000000  0.3763640000000  0.3726820000000 1.0
C      1  0.4168410000000  0.5379470000000  0.4445580000000 1.0
C      1  0.4382130000000  0.4326380000000  0.4445580000000 1.0
C      1  0.5449720000000  0.4204210000000  0.4445580000000 1.0
C      1  0.5895820000000  0.5181800000000  0.4445580000000 1.0
C      1  0.5103920000000  0.5908150000000  0.4445580000000 1.0
C      1  0.4168410000000  0.5379470000000  0.5554420000000 1.0
C      1  0.4382130000000  0.4326380000000  0.5554420000000 1.0
C      1  0.5449720000000  0.4204210000000  0.5554420000000 1.0
C      1  0.5895820000000  0.5181800000000  0.5554420000000 1.0
C      1  0.5103920000000  0.5908150000000  0.5554420000000 1.0
C      1  0.3424260000000  0.6695350000000  0.6255380000000 1.0
C      1  0.2900700000000  0.4025270000000  0.6255380000000 1.0
C      1  0.5278300000000  0.2702240000000  0.6255380000000 1.0
C      1  0.7271300000000  0.4554630000000  0.6255380000000 1.0
C      1  0.6125440000000  0.7022510000000  0.6255380000000 1.0
C      1  0.3424260000000  0.6695350000000  0.3744620000000 1.0
C      1  0.2900700000000  0.4025270000000  0.3744620000000 1.0
C      1  0.5278300000000  0.2702240000000  0.3744620000000 1.0
C      1  0.7271300000000  0.4554630000000  0.3744620000000 1.0
C      1  0.6125440000000  0.7022510000000  0.3744620000000 1.0
C      1  0.3650290000000  0.7388350000000  0.4540100000000 1.0
C      1  0.2311460000000  0.4454390000000  0.4540100000000 1.0
C      1  0.4688110000000  0.2274440000000  0.4540100000000 1.0
C      1  0.7495780000000  0.3861130000000  0.4540100000000 1.0
C      1  0.6854370000000  0.7021690000000  0.4540100000000 1.0
C      1  0.3650290000000  0.7388350000000  0.5459900000000 1.0
C      1  0.2311460000000  0.4454390000000  0.5459900000000 1.0
C      1  0.4688110000000  0.2274440000000  0.5459900000000 1.0
C      1  0.7495780000000  0.3861130000000  0.5459900000000 1.0
C      1  0.6854370000000  0.7021690000000  0.5459900000000 1.0
C      1  0.5796030000000  0.5161550000000  0.6882110000000 1.0
C      1  0.5092350000000  0.5806990000000  0.6882110000000 1.0
C      1  0.4261050000000  0.5337200000000  0.6882110000000 1.0
C      1  0.4450960000000  0.4401410000000  0.6882110000000 1.0
C      1  0.5399620000000  0.4292860000000  0.6882110000000 1.0
C      1  0.5796030000000  0.5161550000000  0.3117890000000 1.0
C      1  0.5092350000000  0.5806990000000  0.3117890000000 1.0
C      1  0.4261050000000  0.5337200000000  0.3117890000000 1.0
C      1  0.4450960000000  0.4401410000000  0.3117890000000 1.0
C      1  0.5399620000000  0.4292860000000  0.3117890000000 1.0
C      1  0.6824830000000  0.3576220000000  0.6255380000000 1.0
C      1  0.6918000000000  0.6295550000000  0.6255380000000 1.0
C      1  0.4360560000000  0.7224470000000  0.6255380000000 1.0
C      1  0.2686810000000  0.5079250000000  0.6255380000000 1.0
C      1  0.4209810000000  0.2824510000000  0.6255380000000 1.0
C      1  0.6824830000000  0.3576220000000  0.3744620000000 1.0
C      1  0.6918000000000  0.6295550000000  0.3744620000000 1.0
C      1  0.4360560000000  0.7224470000000  0.3744620000000 1.0
C      1  0.2686810000000  0.5079250000000  0.3744620000000 1.0
C      1  0.4209810000000  0.2824510000000  0.3744620000000 1.0
END
