TITL C-3036484-3770-172 3.44005309432225e-06 3375 -352.059385293481 0 0 60 (T23) n - 1
REM
REM in /home/bkarasulu/work/CARBON/AIRSS/Generating-Clusters/REBO/Higher-Symm/Only-C60
REM
REM
REM
REM
REM
REM ./C.cell (a2850807a9bf4ad07a5b6933b78d9264)
REM AIRSS Version 0.9.1 bugfix July 2018 build 013d7b7c2542+ Fri, 06 Jul 2018 19:26:36 +0100
REM compiler GCC version 9.2.1 20190827 (Red Hat 9.2.1-1)
REM options -cpp -mtune=generic -march=x86-64 -g -O0 -fpre-include=/usr/include/finclude/math-vector-fortran.h
REM seed -1899006789 1593090299 61680396 1533141075 1557964689 -483484527 1386548377 -810795553 -1885673277 -1759157730 -2017072214 -1259718883 -528307697 96792638 -603701553 -917441793 -1675906944 1860698446 2122161856 -1151324232 1427566595 -1123717517 -1306721822 105331624 -93770261 -384126097 -985459051 -1129696246 -972012956 655216127 360186194 -594016915 1511433388
REM
CELL 1.54180   15.00000   15.00000   15.00000   90.00000   90.00000   90.00000
LATT -1
SFAC C  
C      1  0.6817960000000  0.4918450000000  0.3784490000000 1.0
C      1  0.3784490000000  0.6817960000000  0.4918450000000 1.0
C      1  0.4918450000000  0.3784490000000  0.6817960000000 1.0
C      1  0.6817960000000  0.5081550000000  0.6215510000000 1.0
C      1  0.3182040000000  0.5081550000000  0.3784490000000 1.0
C      1  0.3182040000000  0.4918450000000  0.6215510000000 1.0
C      1  0.3784490000000  0.3182040000000  0.5081550000000 1.0
C      1  0.6215510000000  0.3182040000000  0.4918450000000 1.0
C      1  0.6215510000000  0.6817960000000  0.5081550000000 1.0
C      1  0.4918450000000  0.6215510000000  0.3182040000000 1.0
C      1  0.5081550000000  0.6215510000000  0.6817960000000 1.0
C      1  0.5081550000000  0.3784490000000  0.3182040000000 1.0
C      1  0.5148690000000  0.7198880000000  0.6267820000000 1.0
C      1  0.6267820000000  0.5148690000000  0.7198880000000 1.0
C      1  0.7198880000000  0.6267820000000  0.5148690000000 1.0
C      1  0.5148690000000  0.2801120000000  0.3732180000000 1.0
C      1  0.4851310000000  0.2801120000000  0.6267820000000 1.0
C      1  0.4851310000000  0.7198880000000  0.3732180000000 1.0
C      1  0.6267820000000  0.4851310000000  0.2801120000000 1.0
C      1  0.3732180000000  0.4851310000000  0.7198880000000 1.0
C      1  0.3732180000000  0.5148690000000  0.2801120000000 1.0
C      1  0.7198880000000  0.3732180000000  0.4851310000000 1.0
C      1  0.2801120000000  0.3732180000000  0.5148690000000 1.0
C      1  0.2801120000000  0.6267820000000  0.4851310000000 1.0
C      1  0.3968760000000  0.6823990000000  0.3190000000000 1.0
C      1  0.3190000000000  0.3968760000000  0.6823990000000 1.0
C      1  0.6823990000000  0.3190000000000  0.3968760000000 1.0
C      1  0.3968760000000  0.3176010000000  0.6810000000000 1.0
C      1  0.6031240000000  0.3176010000000  0.3190000000000 1.0
C      1  0.6031240000000  0.6823990000000  0.6810000000000 1.0
C      1  0.3190000000000  0.6031240000000  0.3176010000000 1.0
C      1  0.6810000000000  0.6031240000000  0.6823990000000 1.0
C      1  0.6810000000000  0.3968760000000  0.3176010000000 1.0
C      1  0.6823990000000  0.6810000000000  0.6031240000000 1.0
C      1  0.3176010000000  0.6810000000000  0.3968760000000 1.0
C      1  0.3176010000000  0.3190000000000  0.6031240000000 1.0
C      1  0.4664990000000  0.4683010000000  0.7308650000000 1.0
C      1  0.7308650000000  0.4664990000000  0.4683010000000 1.0
C      1  0.4683010000000  0.7308650000000  0.4664990000000 1.0
C      1  0.4664990000000  0.5316990000000  0.2691350000000 1.0
C      1  0.5335010000000  0.5316990000000  0.7308650000000 1.0
C      1  0.5335010000000  0.4683010000000  0.2691350000000 1.0
C      1  0.7308650000000  0.5335010000000  0.5316990000000 1.0
C      1  0.2691350000000  0.5335010000000  0.4683010000000 1.0
C      1  0.2691350000000  0.4664990000000  0.5316990000000 1.0
C      1  0.4683010000000  0.2691350000000  0.5335010000000 1.0
C      1  0.5316990000000  0.2691350000000  0.4664990000000 1.0
C      1  0.5316990000000  0.7308650000000  0.5335010000000 1.0
C      1  0.5266010000000  0.5438110000000  0.3872990000000 1.0
C      1  0.3872990000000  0.5266010000000  0.5438110000000 1.0
C      1  0.5438110000000  0.3872990000000  0.5266010000000 1.0
C      1  0.5266010000000  0.4561890000000  0.6127010000000 1.0
C      1  0.4733990000000  0.4561890000000  0.3872990000000 1.0
C      1  0.4733990000000  0.5438110000000  0.6127010000000 1.0
C      1  0.3872990000000  0.4733990000000  0.4561890000000 1.0
C      1  0.6127010000000  0.4733990000000  0.5438110000000 1.0
C      1  0.6127010000000  0.5266010000000  0.4561890000000 1.0
C      1  0.5438110000000  0.6127010000000  0.4733990000000 1.0
C      1  0.4561890000000  0.6127010000000  0.5266010000000 1.0
C      1  0.4561890000000  0.3872990000000  0.4733990000000 1.0
END
