TITL C-3036485-3770-342 0.00652696894705551 3375 -364.647994923363 0 0 60 (C1) n - 1
REM
REM in /home/bkarasulu/work/CARBON/AIRSS/Generating-Clusters/REBO/Higher-Symm/Only-C60
REM
REM
REM
REM
REM
REM ./C.cell (a2850807a9bf4ad07a5b6933b78d9264)
REM AIRSS Version 0.9.1 bugfix July 2018 build 013d7b7c2542+ Fri, 06 Jul 2018 19:26:36 +0100
REM compiler GCC version 9.2.1 20190827 (Red Hat 9.2.1-1)
REM options -cpp -mtune=generic -march=x86-64 -g -O0 -fpre-include=/usr/include/finclude/math-vector-fortran.h
REM seed 1941662838 1865893233 382777602 54150336 -1692285288 -2118502534 -1825308366 1193691686 72857471 -1305190116 -408603454 -2046181612 1667777705 1518680971 -209520633 558386443 456965842 -747962405 -1010027406 617765992 -329067751 794151773 1791317776 2002733217 -837431479 -121315788 1856784980 -1154054532 352650108 1260153414 46299055 1679317278 1454531668
REM
CELL 1.54180   15.00000   15.00000   15.00000   90.00000   90.00000   90.00000
LATT -1
SFAC C  
C      1  0.4547070000000  0.6566140000000  0.3024360000000 1.0
C      1  0.4516890000000  0.2562210000000  0.4646050000000 1.0
C      1  0.4416550000000  0.6004480000000  0.7295320000000 1.0
C      1  0.5598660000000  0.6472000000000  0.3026870000000 1.0
C      1  0.5575830000000  0.2484220000000  0.4703250000000 1.0
C      1  0.5471490000000  0.5906170000000  0.7318460000000 1.0
C      1  0.3942900000000  0.6552230000000  0.6680140000000 1.0
C      1  0.4005700000000  0.5791010000000  0.2842080000000 1.0
C      1  0.4032220000000  0.2823930000000  0.5435380000000 1.0
C      1  0.5997320000000  0.6439690000000  0.6713570000000 1.0
C      1  0.6057360000000  0.5653060000000  0.2873570000000 1.0
C      1  0.6094010000000  0.2740420000000  0.5457530000000 1.0
C      1  0.6462480000000  0.3992590000000  0.6446000000000 1.0
C      1  0.6343090000000  0.6661290000000  0.5121350000000 1.0
C      1  0.6391610000000  0.4175030000000  0.3520050000000 1.0
C      1  0.3632760000000  0.4114950000000  0.6384090000000 1.0
C      1  0.3531660000000  0.6736730000000  0.5099410000000 1.0
C      1  0.3568040000000  0.4320980000000  0.3425730000000 1.0
C      1  0.6014880000000  0.5214110000000  0.2035160000000 1.0
C      1  0.6117550000000  0.2209760000000  0.6242660000000 1.0
C      1  0.6038900000000  0.7383730000000  0.6780360000000 1.0
C      1  0.3972910000000  0.5383490000000  0.1987430000000 1.0
C      1  0.4063180000000  0.2312340000000  0.6231110000000 1.0
C      1  0.3991370000000  0.7497110000000  0.6719850000000 1.0
C      1  0.4022800000000  0.3565430000000  0.3072930000000 1.0
C      1  0.4057020000000  0.4176770000000  0.7232400000000 1.0
C      1  0.3949530000000  0.7439140000000  0.4615870000000 1.0
C      1  0.5935360000000  0.3427230000000  0.3152240000000 1.0
C      1  0.5973510000000  0.4054710000000  0.7257650000000 1.0
C      1  0.5860410000000  0.7340690000000  0.4665000000000 1.0
C      1  0.4475180000000  0.5499580000000  0.5592760000000 1.0
C      1  0.4542890000000  0.5307080000000  0.4276040000000 1.0
C      1  0.4630380000000  0.4268290000000  0.5106490000000 1.0
C      1  0.5385350000000  0.5445140000000  0.5613940000000 1.0
C      1  0.5452940000000  0.5255690000000  0.4296410000000 1.0
C      1  0.5539010000000  0.4214300000000  0.5128390000000 1.0
C      1  0.4401390000000  0.2942160000000  0.3677840000000 1.0
C      1  0.4531240000000  0.4979930000000  0.7451020000000 1.0
C      1  0.4391430000000  0.7218350000000  0.3810170000000 1.0
C      1  0.5443520000000  0.2860160000000  0.3745150000000 1.0
C      1  0.5575710000000  0.4882860000000  0.7480410000000 1.0
C      1  0.5438020000000  0.7129230000000  0.3829810000000 1.0
C      1  0.4503470000000  0.3723350000000  0.2256560000000 1.0
C      1  0.4448660000000  0.3360220000000  0.7546380000000 1.0
C      1  0.4398180000000  0.8088000000000  0.5156160000000 1.0
C      1  0.5537610000000  0.3577700000000  0.2294990000000 1.0
C      1  0.5487330000000  0.3263700000000  0.7503910000000 1.0
C      1  0.5435710000000  0.7991100000000  0.5234030000000 1.0
C      1  0.3955400000000  0.3777860000000  0.5556430000000 1.0
C      1  0.3845410000000  0.6176850000000  0.5797610000000 1.0
C      1  0.3898090000000  0.5195550000000  0.3590830000000 1.0
C      1  0.6173180000000  0.3689510000000  0.5594410000000 1.0
C      1  0.6054480000000  0.6084440000000  0.5819530000000 1.0
C      1  0.6110970000000  0.5074460000000  0.3642510000000 1.0
C      1  0.5474280000000  0.4485130000000  0.1767390000000 1.0
C      1  0.5605780000000  0.2341820000000  0.7019080000000 1.0
C      1  0.5574200000000  0.8024260000000  0.6276660000000 1.0
C      1  0.4428320000000  0.4613180000000  0.1703710000000 1.0
C      1  0.4554490000000  0.2449470000000  0.7028480000000 1.0
C      1  0.4524310000000  0.8078970000000  0.6197040000000 1.0
END
