TITL C-3036482-790-895 4.49129338133807e-06 3375 -343.967938247859 0 0 60 (C2h) n - 1
REM
REM in /home/bkarasulu/work/CARBON/AIRSS/Generating-Clusters/REBO/Higher-Symm/Only-C60
REM
REM
REM
REM
REM
REM ./C.cell (a2850807a9bf4ad07a5b6933b78d9264)
REM AIRSS Version 0.9.1 bugfix July 2018 build 013d7b7c2542+ Fri, 06 Jul 2018 19:26:36 +0100
REM compiler GCC version 9.2.1 20190827 (Red Hat 9.2.1-1)
REM options -cpp -mtune=generic -march=x86-64 -g -O0 -fpre-include=/usr/include/finclude/math-vector-fortran.h
REM seed 242085964 -72897871 204183947 -1452210631 665186679 273787407 -588180015 1875156079 -688851961 -1569926993 -1794530140 -1434907563 -636493552 360388 -2147467189 -631988256 -1034158955 253831238 -2048954203 -1107277551 -558682503 -2139903045 1223058996 1302909306 2141080947 -2133873401 2141137927 -94368219 787917708 -894300972 -414539988 755988592 1262892239
REM
CELL 1.54180   15.00000   15.00000   15.00000   90.00000   90.00000   90.00000
LATT -1
SFAC C  
C      1  0.5969340000000  0.2799510000000  0.5502060000000 1.0
C      1  0.5969340000000  0.7200490000000  0.4497940000000 1.0
C      1  0.4030660000000  0.2799510000000  0.5502060000000 1.0
C      1  0.4030660000000  0.7200490000000  0.4497940000000 1.0
C      1  0.4578080000000  0.8032050000000  0.4224360000000 1.0
C      1  0.4578080000000  0.1967950000000  0.5775640000000 1.0
C      1  0.5421920000000  0.8032050000000  0.4224360000000 1.0
C      1  0.5421920000000  0.1967950000000  0.5775640000000 1.0
C      1  0.6865800000000  0.5423430000000  0.6235960000000 1.0
C      1  0.6865800000000  0.4576570000000  0.3764040000000 1.0
C      1  0.3134200000000  0.5423430000000  0.6235960000000 1.0
C      1  0.3134200000000  0.4576570000000  0.3764040000000 1.0
C      1  0.5457730000000  0.6586930000000  0.5272300000000 1.0
C      1  0.5457730000000  0.3413070000000  0.4727700000000 1.0
C      1  0.4542270000000  0.6586930000000  0.5272300000000 1.0
C      1  0.4542270000000  0.3413070000000  0.4727700000000 1.0
C      1  0.4524390000000  0.6068360000000  0.7080800000000 1.0
C      1  0.4524390000000  0.3931640000000  0.2919200000000 1.0
C      1  0.5475610000000  0.6068360000000  0.7080800000000 1.0
C      1  0.5475610000000  0.3931640000000  0.2919200000000 1.0
C      1  0.5459850000000  0.4463520000000  0.7568790000000 1.0
C      1  0.5459850000000  0.5536480000000  0.2431210000000 1.0
C      1  0.4540150000000  0.4463520000000  0.7568790000000 1.0
C      1  0.4540150000000  0.5536480000000  0.2431210000000 1.0
C      1  0.6401280000000  0.7086510000000  0.5550140000000 1.0
C      1  0.6401280000000  0.2913490000000  0.4449860000000 1.0
C      1  0.3598720000000  0.7086510000000  0.5550140000000 1.0
C      1  0.3598720000000  0.2913490000000  0.4449860000000 1.0
C      1  0.4082700000000  0.4348140000000  0.5139530000000 1.0
C      1  0.4082700000000  0.5651860000000  0.4860470000000 1.0
C      1  0.5917300000000  0.4348140000000  0.5139530000000 1.0
C      1  0.5917300000000  0.5651860000000  0.4860470000000 1.0
C      1  0.5530820000000  0.6281490000000  0.3988460000000 1.0
C      1  0.5530820000000  0.3718510000000  0.6011540000000 1.0
C      1  0.4469180000000  0.6281490000000  0.3988460000000 1.0
C      1  0.4469180000000  0.3718510000000  0.6011540000000 1.0
C      1  0.6791310000000  0.5122230000000  0.4504880000000 1.0
C      1  0.6791310000000  0.4877770000000  0.5495120000000 1.0
C      1  0.3208690000000  0.5122230000000  0.4504880000000 1.0
C      1  0.3208690000000  0.4877770000000  0.5495120000000 1.0
C      1  0.4452750000000  0.4574290000000  0.4084770000000 1.0
C      1  0.4452750000000  0.5425710000000  0.5915230000000 1.0
C      1  0.5547250000000  0.4574290000000  0.4084770000000 1.0
C      1  0.5547250000000  0.5425710000000  0.5915230000000 1.0
C      1  0.3213760000000  0.5023770000000  0.2877060000000 1.0
C      1  0.3213760000000  0.4976230000000  0.7122940000000 1.0
C      1  0.6786240000000  0.5023770000000  0.2877060000000 1.0
C      1  0.6786240000000  0.4976230000000  0.7122940000000 1.0
C      1  0.5882870000000  0.4571110000000  0.6521800000000 1.0
C      1  0.5882870000000  0.5428890000000  0.3478200000000 1.0
C      1  0.4117130000000  0.4571110000000  0.6521800000000 1.0
C      1  0.4117130000000  0.5428890000000  0.3478200000000 1.0
C      1  0.5939970000000  0.5359050000000  0.7594280000000 1.0
C      1  0.5939970000000  0.4640950000000  0.2405720000000 1.0
C      1  0.4060030000000  0.5359050000000  0.7594280000000 1.0
C      1  0.4060030000000  0.4640950000000  0.2405720000000 1.0
C      1  0.6221540000000  0.6277380000000  0.6293790000000 1.0
C      1  0.6221540000000  0.3722620000000  0.3706210000000 1.0
C      1  0.3778460000000  0.6277380000000  0.6293790000000 1.0
C      1  0.3778460000000  0.3722620000000  0.3706210000000 1.0
END
