TITL C-3036486-2224-814 0.0132694257133698 3375 -340.024392170463 0 0 60 (C1) n - 1
REM
REM in /home/bkarasulu/work/CARBON/AIRSS/Generating-Clusters/REBO/Higher-Symm/Only-C60
REM
REM
REM
REM
REM
REM ./C.cell (a2850807a9bf4ad07a5b6933b78d9264)
REM AIRSS Version 0.9.1 bugfix July 2018 build 013d7b7c2542+ Fri, 06 Jul 2018 19:26:36 +0100
REM compiler GCC version 9.2.1 20190827 (Red Hat 9.2.1-1)
REM options -cpp -mtune=generic -march=x86-64 -g -O0 -fpre-include=/usr/include/finclude/math-vector-fortran.h
REM seed -1142055167 1297637704 1441739268 763522674 1687284816 -1680539747 1293545359 -1257806736 -599055177 27869120 1493354379 1863377142 168488604 -401854807 443872202 819561790 323781380 -662019332 -1866350059 -1508972598 -1382520014 -2072740214 -1207824122 -1553576003 -473307110 5701938 -812314106 -378160886 -390615661 -112337752 1937247899 -823164431 138346727
REM
CELL 1.54180   15.00000   15.00000   15.00000   90.00000   90.00000   90.00000
LATT -1
SFAC C  
C      1  0.3887760000000  0.3278050000000  0.4001910000000 1.0
C      1  0.6945120000000  0.4884200000000  0.4209250000000 1.0
C      1  0.4046580000000  0.6910950000000  0.4047870000000 1.0
C      1  0.5135650000000  0.4216700000000  0.4534770000000 1.0
C      1  0.5574730000000  0.5769120000000  0.4345950000000 1.0
C      1  0.3981860000000  0.5240910000000  0.4312360000000 1.0
C      1  0.4074970000000  0.5382690000000  0.5315800000000 1.0
C      1  0.5052800000000  0.3869540000000  0.5396940000000 1.0
C      1  0.5989120000000  0.5415220000000  0.5342280000000 1.0
C      1  0.5986160000000  0.4875900000000  0.6890600000000 1.0
C      1  0.4610210000000  0.6104780000000  0.6777090000000 1.0
C      1  0.4350480000000  0.4422050000000  0.6867250000000 1.0
C      1  0.5548670000000  0.4767260000000  0.2883030000000 1.0
C      1  0.4863130000000  0.5612630000000  0.2777460000000 1.0
C      1  0.4492050000000  0.4600860000000  0.2765070000000 1.0
C      1  0.3294490000000  0.5991510000000  0.6900060000000 1.0
C      1  0.5273820000000  0.3200870000000  0.6798670000000 1.0
C      1  0.6496380000000  0.6103320000000  0.6952850000000 1.0
C      1  0.4596340000000  0.5953170000000  0.4037450000000 1.0
C      1  0.4310500000000  0.4294670000000  0.4049390000000 1.0
C      1  0.5845300000000  0.4797150000000  0.4181660000000 1.0
C      1  0.6299830000000  0.2956110000000  0.5262740000000 1.0
C      1  0.6020840000000  0.7034390000000  0.5243600000000 1.0
C      1  0.2677160000000  0.4810170000000  0.5377240000000 1.0
C      1  0.2845310000000  0.5769420000000  0.3864250000000 1.0
C      1  0.5600890000000  0.2912020000000  0.3748010000000 1.0
C      1  0.6650380000000  0.6376560000000  0.3854940000000 1.0
C      1  0.3970680000000  0.5242820000000  0.7036190000000 1.0
C      1  0.5248910000000  0.4131420000000  0.7059460000000 1.0
C      1  0.5551990000000  0.5909140000000  0.7065140000000 1.0
C      1  0.4114620000000  0.3922590000000  0.5957900000000 1.0
C      1  0.6304100000000  0.4561840000000  0.5910500000000 1.0
C      1  0.4572640000000  0.6170680000000  0.5704580000000 1.0
C      1  0.4724320000000  0.6611420000000  0.3172030000000 1.0
C      1  0.3690890000000  0.4040790000000  0.3175710000000 1.0
C      1  0.6403880000000  0.4348010000000  0.3361580000000 1.0
C      1  0.2492480000000  0.5735570000000  0.5137430000000 1.0
C      1  0.5637080000000  0.2332770000000  0.4943450000000 1.0
C      1  0.6940110000000  0.6830150000000  0.5068480000000 1.0
C      1  0.6899780000000  0.3302510000000  0.4586590000000 1.0
C      1  0.5477900000000  0.7500020000000  0.4569350000000 1.0
C      1  0.2657130000000  0.4180370000000  0.4639310000000 1.0
C      1  0.7177110000000  0.5829930000000  0.4685440000000 1.0
C      1  0.3173550000000  0.6491700000000  0.4638290000000 1.0
C      1  0.4727350000000  0.2721930000000  0.4417420000000 1.0
C      1  0.6404370000000  0.3356720000000  0.3741450000000 1.0
C      1  0.5635170000000  0.6769560000000  0.3828860000000 1.0
C      1  0.3068570000000  0.4715960000000  0.3842780000000 1.0
C      1  0.5559020000000  0.6281980000000  0.5573920000000 1.0
C      1  0.3540810000000  0.4754920000000  0.5787510000000 1.0
C      1  0.5905970000000  0.3681150000000  0.5730810000000 1.0
C      1  0.7013180000000  0.5411160000000  0.6541710000000 1.0
C      1  0.3710480000000  0.6785290000000  0.6473920000000 1.0
C      1  0.4753140000000  0.2777460000000  0.6163180000000 1.0
C      1  0.4058290000000  0.3001390000000  0.5292280000000 1.0
C      1  0.7249250000000  0.5039240000000  0.5494970000000 1.0
C      1  0.3898720000000  0.6960070000000  0.5368310000000 1.0
C      1  0.7335860000000  0.4120750000000  0.4828690000000 1.0
C      1  0.4531670000000  0.7593980000000  0.4716930000000 1.0
C      1  0.3120430000000  0.3336540000000  0.4747370000000 1.0
END
