TITL C-3036479-9801-527 5.2789587867149e-07 3375 -354.5076711624 0 0 60 (Ci) n - 1
REM
REM in /home/bkarasulu/work/CARBON/AIRSS/Generating-Clusters/REBO/Higher-Symm/Only-C60
REM
REM
REM
REM
REM
REM ./C.cell (a2850807a9bf4ad07a5b6933b78d9264)
REM AIRSS Version 0.9.1 bugfix July 2018 build 013d7b7c2542+ Fri, 06 Jul 2018 19:26:36 +0100
REM compiler GCC version 9.2.1 20190827 (Red Hat 9.2.1-1)
REM options -cpp -mtune=generic -march=x86-64 -g -O0 -fpre-include=/usr/include/finclude/math-vector-fortran.h
REM seed -1973828281 555871868 -2100480566 -992761062 -474856869 330661127 1897403505 368888095 -2083854274 -102348409 -326029697 1853743679 1105107681 2145811084 1947847841 1717741551 217871454 -297515786 -321228878 -689642618 -504518386 291098922 -855586434 742794487 -13746244 -130782774 -341039462 -141998124 800510456 -1431393570 -881263202 -2132172569 -1699449850
REM
CELL 1.54180   15.00000   15.00000   15.00000   90.00000   90.00000   90.00000
LATT -1
SFAC C  
C      1  0.3670320000000  0.2898690000000  0.4319360000000 1.0
C      1  0.3690220000000  0.7049200000000  0.5420720000000 1.0
C      1  0.6309780000000  0.2950800000000  0.4579280000000 1.0
C      1  0.6329680000000  0.7101310000000  0.5680640000000 1.0
C      1  0.3659640000000  0.7137590000000  0.4304550000000 1.0
C      1  0.3686640000000  0.2928620000000  0.5440530000000 1.0
C      1  0.6313360000000  0.7071380000000  0.4559470000000 1.0
C      1  0.6340360000000  0.2862410000000  0.5695450000000 1.0
C      1  0.5624330000000  0.4523170000000  0.4818590000000 1.0
C      1  0.5607630000000  0.5486720000000  0.5724670000000 1.0
C      1  0.4392370000000  0.4513280000000  0.4275330000000 1.0
C      1  0.4375670000000  0.5476830000000  0.5181410000000 1.0
C      1  0.5629970000000  0.5499760000000  0.4683860000000 1.0
C      1  0.5595190000000  0.4449920000000  0.5836070000000 1.0
C      1  0.4404810000000  0.5550080000000  0.4163930000000 1.0
C      1  0.4370030000000  0.4500240000000  0.5316140000000 1.0
C      1  0.4491230000000  0.3534430000000  0.3931690000000 1.0
C      1  0.4478990000000  0.6314910000000  0.5666730000000 1.0
C      1  0.5521010000000  0.3685090000000  0.4333270000000 1.0
C      1  0.5508770000000  0.6465570000000  0.6068310000000 1.0
C      1  0.4487250000000  0.6540640000000  0.3874030000000 1.0
C      1  0.4473870000000  0.3639860000000  0.5746020000000 1.0
C      1  0.5526130000000  0.6360140000000  0.4253980000000 1.0
C      1  0.5512750000000  0.3459360000000  0.6125970000000 1.0
C      1  0.7834640000000  0.4029290000000  0.4126530000000 1.0
C      1  0.7763320000000  0.5968060000000  0.5724680000000 1.0
C      1  0.2236680000000  0.4031940000000  0.4275320000000 1.0
C      1  0.2165360000000  0.5970710000000  0.5873470000000 1.0
C      1  0.7838480000000  0.5971600000000  0.4118110000000 1.0
C      1  0.7766150000000  0.4035680000000  0.5734100000000 1.0
C      1  0.2233850000000  0.5964320000000  0.4265900000000 1.0
C      1  0.2161520000000  0.4028400000000  0.5881890000000 1.0
C      1  0.7875450000000  0.5458570000000  0.3325080000000 1.0
C      1  0.7746900000000  0.4544440000000  0.6529920000000 1.0
C      1  0.2253100000000  0.5455560000000  0.3470080000000 1.0
C      1  0.2124550000000  0.4541430000000  0.6674920000000 1.0
C      1  0.7873690000000  0.4536930000000  0.3330310000000 1.0
C      1  0.7745500000000  0.5465550000000  0.6524320000000 1.0
C      1  0.2254500000000  0.4534450000000  0.3475680000000 1.0
C      1  0.2126310000000  0.5463070000000  0.6669690000000 1.0
C      1  0.2729080000000  0.6723120000000  0.4567780000000 1.0
C      1  0.2675570000000  0.3267130000000  0.5609840000000 1.0
C      1  0.7324430000000  0.6732870000000  0.4390160000000 1.0
C      1  0.7270920000000  0.3276880000000  0.5432220000000 1.0
C      1  0.2735160000000  0.3280130000000  0.4585280000000 1.0
C      1  0.2679480000000  0.6728220000000  0.5596990000000 1.0
C      1  0.7320520000000  0.3271780000000  0.4403010000000 1.0
C      1  0.7264840000000  0.6719870000000  0.5414720000000 1.0
C      1  0.5393990000000  0.2571450000000  0.4099460000000 1.0
C      1  0.5511920000000  0.7608530000000  0.6219960000000 1.0
C      1  0.4488080000000  0.2391470000000  0.3780040000000 1.0
C      1  0.4606010000000  0.7428550000000  0.5900540000000 1.0
C      1  0.5392020000000  0.7487410000000  0.4110270000000 1.0
C      1  0.5517780000000  0.2310990000000  0.6191030000000 1.0
C      1  0.4482220000000  0.7689010000000  0.3808970000000 1.0
C      1  0.4607980000000  0.2512590000000  0.5889730000000 1.0
C      1  0.1930240000000  0.4522140000000  0.5065830000000 1.0
C      1  0.1931280000000  0.5475880000000  0.5060360000000 1.0
C      1  0.8068720000000  0.4524120000000  0.4939640000000 1.0
C      1  0.8069760000000  0.5477860000000  0.4934170000000 1.0
END
