TITL C-3036479-9801-823 4.88754466706341e-06 3375 -357.532933735535 0 0 60 (C1) n - 1
REM
REM in /home/bkarasulu/work/CARBON/AIRSS/Generating-Clusters/REBO/Higher-Symm/Only-C60
REM
REM
REM
REM
REM
REM ./C.cell (a2850807a9bf4ad07a5b6933b78d9264)
REM AIRSS Version 0.9.1 bugfix July 2018 build 013d7b7c2542+ Fri, 06 Jul 2018 19:26:36 +0100
REM compiler GCC version 9.2.1 20190827 (Red Hat 9.2.1-1)
REM options -cpp -mtune=generic -march=x86-64 -g -O0 -fpre-include=/usr/include/finclude/math-vector-fortran.h
REM seed -328804385 -1416588909 -1763761340 496717964 832197821 -363631616 -1041130797 180277455 792723267 499123873 -2002232444 -1835054579 -982049175 1032890232 1516777235 483219511 -47228397 218089546 -1643512221 2002050243 1276216017 826121115 -2073077900 113767010 -1276253394 -1700489414 -1122511104 -915561352 -1670443590 -693553445 1882987016 708083935 778723719
REM
CELL 1.54180   15.00000   15.00000   15.00000   90.00000   90.00000   90.00000
LATT -1
SFAC C  
C      1  0.4645340000000  0.2758010000000  0.4659250000000 1.0
C      1  0.4648250000000  0.7248740000000  0.4650230000000 1.0
C      1  0.5231330000000  0.5542890000000  0.7207270000000 1.0
C      1  0.5352130000000  0.4409080000000  0.7213240000000 1.0
C      1  0.4436650000000  0.4202630000000  0.5238830000000 1.0
C      1  0.4456070000000  0.5777300000000  0.5244130000000 1.0
C      1  0.6011000000000  0.4539370000000  0.3007470000000 1.0
C      1  0.6017220000000  0.5476740000000  0.3019140000000 1.0
C      1  0.4351100000000  0.4550030000000  0.7284870000000 1.0
C      1  0.4204400000000  0.5590050000000  0.7332120000000 1.0
C      1  0.5382010000000  0.7259060000000  0.5254220000000 1.0
C      1  0.5396840000000  0.2737640000000  0.5237190000000 1.0
C      1  0.6258080000000  0.5920310000000  0.5995500000000 1.0
C      1  0.6283470000000  0.4059120000000  0.5954870000000 1.0
C      1  0.5086970000000  0.3040690000000  0.6152440000000 1.0
C      1  0.5042720000000  0.6939680000000  0.6153770000000 1.0
C      1  0.6366920000000  0.3563640000000  0.3104480000000 1.0
C      1  0.6383810000000  0.6445360000000  0.3141110000000 1.0
C      1  0.4787080000000  0.3224960000000  0.3709780000000 1.0
C      1  0.4833120000000  0.6812090000000  0.3695850000000 1.0
C      1  0.5391780000000  0.5922860000000  0.3852760000000 1.0
C      1  0.5397480000000  0.4086670000000  0.3845990000000 1.0
C      1  0.5258330000000  0.4508330000000  0.5735810000000 1.0
C      1  0.5254910000000  0.5445250000000  0.5742790000000 1.0
C      1  0.6976160000000  0.5407620000000  0.6501640000000 1.0
C      1  0.7000430000000  0.4576690000000  0.6462660000000 1.0
C      1  0.3384770000000  0.4530760000000  0.3709240000000 1.0
C      1  0.3490400000000  0.5520570000000  0.3562120000000 1.0
C      1  0.5179870000000  0.7389110000000  0.3049110000000 1.0
C      1  0.5070850000000  0.2653270000000  0.3026400000000 1.0
C      1  0.3278760000000  0.3434160000000  0.4455470000000 1.0
C      1  0.3303430000000  0.6526510000000  0.4403080000000 1.0
C      1  0.3859820000000  0.6453430000000  0.3527000000000 1.0
C      1  0.3820350000000  0.3611400000000  0.3609330000000 1.0
C      1  0.6191610000000  0.2931070000000  0.4748580000000 1.0
C      1  0.6188370000000  0.7065190000000  0.4789080000000 1.0
C      1  0.2939700000000  0.5461300000000  0.4552560000000 1.0
C      1  0.2811650000000  0.4401680000000  0.4664500000000 1.0
C      1  0.6280630000000  0.2931020000000  0.3785760000000 1.0
C      1  0.6295620000000  0.7070970000000  0.3827940000000 1.0
C      1  0.6617860000000  0.3770230000000  0.5081740000000 1.0
C      1  0.6602260000000  0.6220060000000  0.5125240000000 1.0
C      1  0.3837120000000  0.3016730000000  0.5134210000000 1.0
C      1  0.3833560000000  0.6957650000000  0.5091150000000 1.0
C      1  0.5570710000000  0.6310880000000  0.6686570000000 1.0
C      1  0.5637710000000  0.3652860000000  0.6668510000000 1.0
C      1  0.4629720000000  0.5461640000000  0.4336720000000 1.0
C      1  0.4614880000000  0.4528420000000  0.4330800000000 1.0
C      1  0.7355120000000  0.5862560000000  0.4374490000000 1.0
C      1  0.7356730000000  0.4140590000000  0.4322830000000 1.0
C      1  0.3491740000000  0.4253870000000  0.5476140000000 1.0
C      1  0.3508900000000  0.5712910000000  0.5429130000000 1.0
C      1  0.4111100000000  0.3250910000000  0.6112420000000 1.0
C      1  0.4066750000000  0.6753330000000  0.6064200000000 1.0
C      1  0.3692470000000  0.6097000000000  0.6691980000000 1.0
C      1  0.3800320000000  0.3968610000000  0.6737960000000 1.0
C      1  0.6323220000000  0.4503270000000  0.4298090000000 1.0
C      1  0.6320610000000  0.5505470000000  0.4312380000000 1.0
C      1  0.3022550000000  0.5489540000000  0.6274850000000 1.0
C      1  0.3057210000000  0.4518250000000  0.6342980000000 1.0
END
