TITL C-3036485-3770-1177 -0.0181666328709443 3375 -339.098703724746 0 0 60 (C1) n - 1
REM
REM in /home/bkarasulu/work/CARBON/AIRSS/Generating-Clusters/REBO/Higher-Symm/Only-C60
REM
REM
REM
REM
REM
REM ./C.cell (a2850807a9bf4ad07a5b6933b78d9264)
REM AIRSS Version 0.9.1 bugfix July 2018 build 013d7b7c2542+ Fri, 06 Jul 2018 19:26:36 +0100
REM compiler GCC version 9.2.1 20190827 (Red Hat 9.2.1-1)
REM options -cpp -mtune=generic -march=x86-64 -g -O0 -fpre-include=/usr/include/finclude/math-vector-fortran.h
REM seed -415887639 -1243286015 -2132248912 1877572645 1094402163 828463142 -69386611 1938462104 1111277470 -512226312 -1300552784 -1354965932 1171996264 350778446 -1289813143 -448038413 -1707334257 1313988441 197744801 1209056346 -999735347 -485087873 -332429741 1217698298 -2032829195 679013676 -1231319918 1314620449 -477566276 -1317432331 999107165 -1037547885 -537913309
REM
CELL 1.54180   15.00000   15.00000   15.00000   90.00000   90.00000   90.00000
LATT -1
SFAC C  
C      1  0.3310780000000  0.4535190000000  0.5842790000000 1.0
C      1  0.2453800000000  0.6122680000000  0.4632600000000 1.0
C      1  0.4424930000000  0.4329000000000  0.4179940000000 1.0
C      1  0.4275890000000  0.7155480000000  0.4858510000000 1.0
C      1  0.4896630000000  0.4179480000000  0.6668530000000 1.0
C      1  0.5336910000000  0.6657610000000  0.3609440000000 1.0
C      1  0.5656860000000  0.2839530000000  0.4312730000000 1.0
C      1  0.2871210000000  0.4200090000000  0.4965530000000 1.0
C      1  0.5430600000000  0.5164490000000  0.3934690000000 1.0
C      1  0.3204960000000  0.6533480000000  0.4215170000000 1.0
C      1  0.4550450000000  0.5919910000000  0.3234610000000 1.0
C      1  0.4140210000000  0.5832590000000  0.4843690000000 1.0
C      1  0.5057900000000  0.5666390000000  0.4767520000000 1.0
C      1  0.5280020000000  0.5835750000000  0.7246660000000 1.0
C      1  0.5177490000000  0.7160020000000  0.5169170000000 1.0
C      1  0.7404920000000  0.5039170000000  0.4456950000000 1.0
C      1  0.6526210000000  0.3704870000000  0.6159990000000 1.0
C      1  0.4236540000000  0.6849330000000  0.3840790000000 1.0
C      1  0.6160950000000  0.5883080000000  0.3522890000000 1.0
C      1  0.7162900000000  0.4595960000000  0.6283050000000 1.0
C      1  0.5891930000000  0.4461240000000  0.5209490000000 1.0
C      1  0.5415140000000  0.4223840000000  0.3711300000000 1.0
C      1  0.4404810000000  0.4807810000000  0.5880240000000 1.0
C      1  0.5796240000000  0.7283880000000  0.4379140000000 1.0
C      1  0.6392600000000  0.6169860000000  0.5942570000000 1.0
C      1  0.3795400000000  0.4069220000000  0.6800020000000 1.0
C      1  0.4384660000000  0.3312490000000  0.5031890000000 1.0
C      1  0.6925010000000  0.3838510000000  0.4780490000000 1.0
C      1  0.2395340000000  0.5150290000000  0.4558500000000 1.0
C      1  0.3728720000000  0.5630510000000  0.3861980000000 1.0
C      1  0.3849590000000  0.5828280000000  0.6730600000000 1.0
C      1  0.6048050000000  0.3213080000000  0.5241080000000 1.0
C      1  0.4694220000000  0.2859140000000  0.4252570000000 1.0
C      1  0.7541790000000  0.4113270000000  0.5403750000000 1.0
C      1  0.4829240000000  0.5054740000000  0.2751670000000 1.0
C      1  0.5776860000000  0.4946250000000  0.2654550000000 1.0
C      1  0.3461760000000  0.3311250000000  0.5352950000000 1.0
C      1  0.4698840000000  0.5814570000000  0.6050490000000 1.0
C      1  0.7297550000000  0.5693210000000  0.6370240000000 1.0
C      1  0.5473940000000  0.5046600000000  0.6827440000000 1.0
C      1  0.4172350000000  0.3233880000000  0.3482040000000 1.0
C      1  0.3777180000000  0.3167370000000  0.6273920000000 1.0
C      1  0.5461520000000  0.3380030000000  0.6222410000000 1.0
C      1  0.3340920000000  0.5071040000000  0.6799060000000 1.0
C      1  0.5981880000000  0.3420440000000  0.3617900000000 1.0
C      1  0.6566560000000  0.4863950000000  0.3305780000000 1.0
C      1  0.4841570000000  0.6637780000000  0.7089140000000 1.0
C      1  0.3071950000000  0.4872600000000  0.3843990000000 1.0
C      1  0.3416200000000  0.3891650000000  0.4012280000000 1.0
C      1  0.6588150000000  0.5126510000000  0.4792930000000 1.0
C      1  0.5363190000000  0.6456180000000  0.5807200000000 1.0
C      1  0.4281840000000  0.4274750000000  0.3042820000000 1.0
C      1  0.4886720000000  0.4280040000000  0.5147420000000 1.0
C      1  0.6485890000000  0.6910110000000  0.5112920000000 1.0
C      1  0.6122660000000  0.6026820000000  0.4648660000000 1.0
C      1  0.6730940000000  0.4070100000000  0.3834570000000 1.0
C      1  0.4005590000000  0.6853860000000  0.6500660000000 1.0
C      1  0.3768080000000  0.6602760000000  0.5512370000000 1.0
C      1  0.6168420000000  0.5075860000000  0.6077910000000 1.0
C      1  0.4606550000000  0.2752150000000  0.6339790000000 1.0
END
