TITL C-3036485-3770-925 -0.0121085693523504 3375 -348.752513524736 0 0 60 (C3) n - 1
REM
REM in /home/bkarasulu/work/CARBON/AIRSS/Generating-Clusters/REBO/Higher-Symm/Only-C60
REM
REM
REM
REM
REM
REM ./C.cell (a2850807a9bf4ad07a5b6933b78d9264)
REM AIRSS Version 0.9.1 bugfix July 2018 build 013d7b7c2542+ Fri, 06 Jul 2018 19:26:36 +0100
REM compiler GCC version 9.2.1 20190827 (Red Hat 9.2.1-1)
REM options -cpp -mtune=generic -march=x86-64 -g -O0 -fpre-include=/usr/include/finclude/math-vector-fortran.h
REM seed 1216964650 -150607575 -676112205 -1425426699 39644581 2056487590 1330402252 1416194999 -801562054 238942258 -1813948175 1317300202 263697224 739298631 604628760 1361472577 1567061267 -1934136437 1092561468 912418044 289590489 1353983746 31569071 1729994035 1786122621 -1576232181 -1398634332 303794479 -1051757219 337069163 -523785997 1358398996 1304484335
REM
CELL 1.54180   15.00000   15.00000   15.00000   90.00000   90.00000   90.00000
LATT -1
SFAC C  
C      1  0.4294290000000  0.5014740000000  0.6196240000000 1.0
C      1  0.6386480000000  0.5013970000000  0.5014780000000 1.0
C      1  0.4319150000000  0.5014470000000  0.3790940000000 1.0
C      1  0.3441260000000  0.4268920000000  0.6293030000000 1.0
C      1  0.6898280000000  0.4268820000000  0.5704670000000 1.0
C      1  0.4660360000000  0.4268920000000  0.3002930000000 1.0
C      1  0.6082080000000  0.2923970000000  0.4907320000000 1.0
C      1  0.4378940000000  0.2925270000000  0.4108700000000 1.0
C      1  0.4538700000000  0.2924570000000  0.5982160000000 1.0
C      1  0.6529490000000  0.5772270000000  0.6595850000000 1.0
C      1  0.5617180000000  0.5771230000000  0.2876760000000 1.0
C      1  0.2853400000000  0.5771600000000  0.5527380000000 1.0
C      1  0.5102350000000  0.5664470000000  0.7464300000000 1.0
C      1  0.7082310000000  0.5663370000000  0.3679760000000 1.0
C      1  0.2815110000000  0.5662860000000  0.3856370000000 1.0
C      1  0.3910580000000  0.6851480000000  0.3654700000000 1.0
C      1  0.4379180000000  0.6852820000000  0.6616800000000 1.0
C      1  0.6709700000000  0.6852110000000  0.4728740000000 1.0
C      1  0.4704030000000  0.6332400000000  0.3056460000000 1.0
C      1  0.3464860000000  0.6333250000000  0.6228370000000 1.0
C      1  0.6829500000000  0.6333000000000  0.5715060000000 1.0
C      1  0.5545380000000  0.4839190000000  0.3095510000000 1.0
C      1  0.3079230000000  0.4839500000000  0.5480660000000 1.0
C      1  0.6376500000000  0.4839610000000  0.6425290000000 1.0
C      1  0.6381390000000  0.6203130000000  0.3285680000000 1.0
C      1  0.2824920000000  0.6202280000000  0.4660620000000 1.0
C      1  0.5793580000000  0.6203950000000  0.7054200000000 1.0
C      1  0.5184950000000  0.5407080000000  0.4231610000000 1.0
C      1  0.4243860000000  0.5407060000000  0.5225730000000 1.0
C      1  0.5571850000000  0.5405730000000  0.5544750000000 1.0
C      1  0.3739430000000  0.5792620000000  0.3322410000000 1.0
C      1  0.4177000000000  0.5793780000000  0.6931550000000 1.0
C      1  0.7081650000000  0.5792630000000  0.4747160000000 1.0
C      1  0.5313620000000  0.6913700000000  0.6481080000000 1.0
C      1  0.6125690000000  0.6913200000000  0.3986700000000 1.0
C      1  0.3560180000000  0.6912390000000  0.4531530000000 1.0
C      1  0.4007180000000  0.6369270000000  0.5250240000000 1.0
C      1  0.5711380000000  0.6368450000000  0.5735010000000 1.0
C      1  0.5280290000000  0.6369870000000  0.4015280000000 1.0
C      1  0.4852660000000  0.3299280000000  0.3191740000000 1.0
C      1  0.3508130000000  0.3299610000000  0.6031420000000 1.0
C      1  0.6638890000000  0.3299090000000  0.5776170000000 1.0
C      1  0.5623340000000  0.2920330000000  0.5916570000000 1.0
C      1  0.5482530000000  0.2921010000000  0.4000970000000 1.0
C      1  0.3893110000000  0.2922220000000  0.5080610000000 1.0
C      1  0.3539710000000  0.3616380000000  0.4316440000000 1.0
C      1  0.5139440000000  0.3613640000000  0.6606090000000 1.0
C      1  0.6321550000000  0.3614560000000  0.4076430000000 1.0
C      1  0.3058600000000  0.4108110000000  0.3530010000000 1.0
C      1  0.4700650000000  0.4109140000000  0.7414740000000 1.0
C      1  0.7242090000000  0.4108410000000  0.4053420000000 1.0
C      1  0.5279590000000  0.4619730000000  0.6312130000000 1.0
C      1  0.5994740000000  0.4619800000000  0.4102870000000 1.0
C      1  0.3727090000000  0.4620830000000  0.4587770000000 1.0
C      1  0.7580770000000  0.4286290000000  0.4888990000000 1.0
C      1  0.3612840000000  0.4285530000000  0.2818670000000 1.0
C      1  0.3807510000000  0.4286710000000  0.7291550000000 1.0
C      1  0.2458200000000  0.4796770000000  0.3764720000000 1.0
C      1  0.5204820000000  0.4797640000000  0.7816290000000 1.0
C      1  0.7338440000000  0.4796990000000  0.3416050000000 1.0
END
