TITL C-3036480-97-938 -3.81630691988352e-07 3375 -355.259040577171 0 0 60 (D2d) n - 1
REM
REM in /home/bkarasulu/work/CARBON/AIRSS/Generating-Clusters/REBO/Higher-Symm/Only-C60
REM
REM
REM
REM
REM
REM ./C.cell (a2850807a9bf4ad07a5b6933b78d9264)
REM AIRSS Version 0.9.1 bugfix July 2018 build 013d7b7c2542+ Fri, 06 Jul 2018 19:26:36 +0100
REM compiler GCC version 9.2.1 20190827 (Red Hat 9.2.1-1)
REM options -cpp -mtune=generic -march=x86-64 -g -O0 -fpre-include=/usr/include/finclude/math-vector-fortran.h
REM seed -1060597717 -1539797683 -545600143 500417580 863811268 1397070102 1803782212 -2068688227 -282838528 614174267 325515634 409021143 -1648604297 -1778923932 -596266675 1839041010 185239868 -116642660 2085662016 -855647943 -2109978403 -478757336 1952126329 -1567307980 -3184655 127502443 1020550298 -1903696415 1352406596 1411912198 426527835 -1365300812 -642759027
REM
CELL 1.54180   15.00000   15.00000   15.00000   90.00000   90.00000   90.00000
LATT -1
SFAC C  
C      1  0.5376600000000  0.6379360000000  0.3931510000000 1.0
C      1  0.4623400000000  0.6379360000000  0.6068490000000 1.0
C      1  0.5376600000000  0.3620640000000  0.6068490000000 1.0
C      1  0.4623400000000  0.3620640000000  0.3931510000000 1.0
C      1  0.3931510000000  0.6379360000000  0.5376600000000 1.0
C      1  0.6068490000000  0.6379360000000  0.4623400000000 1.0
C      1  0.6068490000000  0.3620640000000  0.5376600000000 1.0
C      1  0.3931510000000  0.3620640000000  0.4623400000000 1.0
C      1  0.4997370000000  0.5466000000000  0.7361170000000 1.0
C      1  0.5002630000000  0.5466000000000  0.2638830000000 1.0
C      1  0.4997370000000  0.4534000000000  0.2638830000000 1.0
C      1  0.5002630000000  0.4534000000000  0.7361170000000 1.0
C      1  0.7361170000000  0.5466000000000  0.4997370000000 1.0
C      1  0.2638830000000  0.5466000000000  0.5002630000000 1.0
C      1  0.2638830000000  0.4534000000000  0.4997370000000 1.0
C      1  0.7361170000000  0.4534000000000  0.5002630000000 1.0
C      1  0.6050180000000  0.6774930000000  0.6721720000000 1.0
C      1  0.3949820000000  0.6774930000000  0.3278280000000 1.0
C      1  0.6050180000000  0.3225070000000  0.3278280000000 1.0
C      1  0.3949820000000  0.3225070000000  0.6721720000000 1.0
C      1  0.6721720000000  0.6774930000000  0.6050180000000 1.0
C      1  0.3278280000000  0.6774930000000  0.3949820000000 1.0
C      1  0.3278280000000  0.3225070000000  0.6050180000000 1.0
C      1  0.6721720000000  0.3225070000000  0.3949820000000 1.0
C      1  0.6846930000000  0.5778300000000  0.4261500000000 1.0
C      1  0.3153070000000  0.5778300000000  0.5738500000000 1.0
C      1  0.6846930000000  0.4221700000000  0.5738500000000 1.0
C      1  0.3153070000000  0.4221700000000  0.4261500000000 1.0
C      1  0.4261500000000  0.5778300000000  0.6846930000000 1.0
C      1  0.5738500000000  0.5778300000000  0.3153070000000 1.0
C      1  0.5738500000000  0.4221700000000  0.6846930000000 1.0
C      1  0.4261500000000  0.4221700000000  0.3153070000000 1.0
C      1  0.6953230000000  0.5785690000000  0.5904330000000 1.0
C      1  0.3046770000000  0.5785690000000  0.4095670000000 1.0
C      1  0.6953230000000  0.4214310000000  0.4095670000000 1.0
C      1  0.3046770000000  0.4214310000000  0.5904330000000 1.0
C      1  0.5904330000000  0.5785690000000  0.6953230000000 1.0
C      1  0.4095670000000  0.5785690000000  0.3046770000000 1.0
C      1  0.4095670000000  0.4214310000000  0.6953230000000 1.0
C      1  0.5904330000000  0.4214310000000  0.3046770000000 1.0
C      1  0.3956370000000  0.4555860000000  0.5271760000000 1.0
C      1  0.6043630000000  0.4555860000000  0.4728240000000 1.0
C      1  0.3956370000000  0.5444140000000  0.4728240000000 1.0
C      1  0.6043630000000  0.5444140000000  0.5271760000000 1.0
C      1  0.5271760000000  0.4555860000000  0.3956370000000 1.0
C      1  0.4728240000000  0.4555860000000  0.6043630000000 1.0
C      1  0.4728240000000  0.5444140000000  0.3956370000000 1.0
C      1  0.5271760000000  0.5444140000000  0.6043630000000 1.0
C      1  0.5233730000000  0.7129260000000  0.6447950000000 1.0
C      1  0.4766270000000  0.7129260000000  0.3552050000000 1.0
C      1  0.5233730000000  0.2870740000000  0.3552050000000 1.0
C      1  0.4766270000000  0.2870740000000  0.6447950000000 1.0
C      1  0.6447950000000  0.7129260000000  0.5233730000000 1.0
C      1  0.3552050000000  0.7129260000000  0.4766270000000 1.0
C      1  0.3552050000000  0.2870740000000  0.5233730000000 1.0
C      1  0.6447950000000  0.2870740000000  0.4766270000000 1.0
C      1  0.3494690000000  0.4932040000000  0.3494690000000 1.0
C      1  0.3494690000000  0.5067960000000  0.6505310000000 1.0
C      1  0.6505310000000  0.5067960000000  0.3494690000000 1.0
C      1  0.6505310000000  0.4932040000000  0.6505310000000 1.0
END
