TITL C-3036485-3770-573 0.00716846733263368 3375 -336.548228611733 0 0 60 (C1) n - 1
REM
REM in /home/bkarasulu/work/CARBON/AIRSS/Generating-Clusters/REBO/Higher-Symm/Only-C60
REM
REM
REM
REM
REM
REM ./C.cell (a2850807a9bf4ad07a5b6933b78d9264)
REM AIRSS Version 0.9.1 bugfix July 2018 build 013d7b7c2542+ Fri, 06 Jul 2018 19:26:36 +0100
REM compiler GCC version 9.2.1 20190827 (Red Hat 9.2.1-1)
REM options -cpp -mtune=generic -march=x86-64 -g -O0 -fpre-include=/usr/include/finclude/math-vector-fortran.h
REM seed 1933021344 1131359144 -1340752207 -149774817 -1137787967 -1559337065 117979923 -1401614187 2057102197 -1139458244 -718874961 -668502039 -597473044 1516502628 -721387199 563332509 110199881 1338062723 799162556 1098726985 604291368 -1938378692 -1764385070 1326283298 -565284065 178204215 -960115267 -1791575965 546685303 -1122346551 -782795633 1551782878 1199802331
REM
CELL 1.54180   15.00000   15.00000   15.00000   90.00000   90.00000   90.00000
LATT -1
SFAC C  
C      1  0.4341440000000  0.6566370000000  0.6554640000000 1.0
C      1  0.4382350000000  0.5593500000000  0.2876710000000 1.0
C      1  0.4250700000000  0.2845370000000  0.5552720000000 1.0
C      1  0.4341850000000  0.3432630000000  0.6554400000000 1.0
C      1  0.4382440000000  0.4406630000000  0.2876730000000 1.0
C      1  0.4250510000000  0.7154200000000  0.5553000000000 1.0
C      1  0.3579380000000  0.4503930000000  0.4077940000000 1.0
C      1  0.3525380000000  0.4433040000000  0.5840600000000 1.0
C      1  0.3299590000000  0.6091570000000  0.4983950000000 1.0
C      1  0.3578640000000  0.5496270000000  0.4077810000000 1.0
C      1  0.3524260000000  0.5565920000000  0.5840760000000 1.0
C      1  0.3299980000000  0.3908340000000  0.4983870000000 1.0
C      1  0.4424940000000  0.4003010000000  0.4969630000000 1.0
C      1  0.4670930000000  0.5512400000000  0.5860680000000 1.0
C      1  0.4731130000000  0.5534900000000  0.4112810000000 1.0
C      1  0.4424100000000  0.5996410000000  0.4970050000000 1.0
C      1  0.4671790000000  0.4486890000000  0.5860560000000 1.0
C      1  0.4731830000000  0.4464920000000  0.4112650000000 1.0
C      1  0.7088830000000  0.5421800000000  0.2932270000000 1.0
C      1  0.6923940000000  0.3005980000000  0.5597250000000 1.0
C      1  0.7033760000000  0.6586780000000  0.6323950000000 1.0
C      1  0.7088960000000  0.4578250000000  0.2932210000000 1.0
C      1  0.6923680000000  0.6993910000000  0.5597270000000 1.0
C      1  0.7033960000000  0.3413090000000  0.6323970000000 1.0
C      1  0.5401520000000  0.5488350000000  0.2815310000000 1.0
C      1  0.5240760000000  0.2885160000000  0.5744160000000 1.0
C      1  0.5387340000000  0.6654550000000  0.6616160000000 1.0
C      1  0.5401750000000  0.4511410000000  0.2815260000000 1.0
C      1  0.5240340000000  0.7114490000000  0.5744620000000 1.0
C      1  0.5387700000000  0.3344990000000  0.6615930000000 1.0
C      1  0.6179190000000  0.7364830000000  0.4100600000000 1.0
C      1  0.6315540000000  0.3034880000000  0.3383500000000 1.0
C      1  0.6444400000000  0.4583740000000  0.7491300000000 1.0
C      1  0.6179410000000  0.2635020000000  0.4100470000000 1.0
C      1  0.6315420000000  0.6965040000000  0.3383610000000 1.0
C      1  0.6444380000000  0.5416150000000  0.7491320000000 1.0
C      1  0.6243040000000  0.6063760000000  0.6728300000000 1.0
C      1  0.6253570000000  0.5959710000000  0.3223020000000 1.0
C      1  0.6036410000000  0.2978060000000  0.5052120000000 1.0
C      1  0.6243200000000  0.3936050000000  0.6728300000000 1.0
C      1  0.6253820000000  0.4040230000000  0.3222930000000 1.0
C      1  0.6036010000000  0.7021790000000  0.5052300000000 1.0
C      1  0.3000840000000  0.5526650000000  0.6835640000000 1.0
C      1  0.3083150000000  0.6445700000000  0.3725180000000 1.0
C      1  0.2854320000000  0.2965530000000  0.4571930000000 1.0
C      1  0.3004990000000  0.4480800000000  0.6834400000000 1.0
C      1  0.3083320000000  0.3554500000000  0.3725100000000 1.0
C      1  0.2854280000000  0.7034590000000  0.4572060000000 1.0
C      1  0.4073460000000  0.5575530000000  0.7040470000000 1.0
C      1  0.4127800000000  0.6527980000000  0.3469920000000 1.0
C      1  0.3969520000000  0.2892400000000  0.4452880000000 1.0
C      1  0.4074790000000  0.4423260000000  0.7040550000000 1.0
C      1  0.4127940000000  0.3472100000000  0.3469820000000 1.0
C      1  0.3969480000000  0.7107400000000  0.4453150000000 1.0
C      1  0.5818680000000  0.4470100000000  0.4080380000000 1.0
C      1  0.5755180000000  0.4461300000000  0.5964630000000 1.0
C      1  0.5560170000000  0.6043450000000  0.5021660000000 1.0
C      1  0.5818210000000  0.5529700000000  0.4080440000000 1.0
C      1  0.5754700000000  0.5538410000000  0.5964770000000 1.0
C      1  0.5560950000000  0.3956270000000  0.5021360000000 1.0
END
