TITL C-3036480-97-948 -4.3913328169061e-06 3375 -349.846787285952 0 0 60 (D3) n - 1
REM
REM in /home/bkarasulu/work/CARBON/AIRSS/Generating-Clusters/REBO/Higher-Symm/Only-C60
REM
REM
REM
REM
REM
REM ./C.cell (a2850807a9bf4ad07a5b6933b78d9264)
REM AIRSS Version 0.9.1 bugfix July 2018 build 013d7b7c2542+ Fri, 06 Jul 2018 19:26:36 +0100
REM compiler GCC version 9.2.1 20190827 (Red Hat 9.2.1-1)
REM options -cpp -mtune=generic -march=x86-64 -g -O0 -fpre-include=/usr/include/finclude/math-vector-fortran.h
REM seed -467079345 -347519277 -360811220 -1201254696 48386281 1187933939 -1600200207 1412408208 -1803841517 -903180671 -1133941301 -767694584 -955395320 -453022312 570407712 -1301021105 -1338741041 -643551295 -1005946303 -795628343 779369787 -576768325 982698216 -1117921990 1096229181 -1173636143 -1992081898 -402507650 -795130633 1387108090 1659337536 -672065251 -999595405
REM
CELL 1.54180   15.00000   15.00000   15.00000   90.00000   90.00000   90.00000
LATT -1
SFAC C  
C      1  0.3395260000000  0.3524580000000  0.4680190000000 1.0
C      1  0.7080120000000  0.4347970000000  0.4680200000000 1.0
C      1  0.4524620000000  0.7127460000000  0.4680200000000 1.0
C      1  0.6604740000000  0.3524580000000  0.5319810000000 1.0
C      1  0.2919880000000  0.4347970000000  0.5319800000000 1.0
C      1  0.5475380000000  0.7127460000000  0.5319800000000 1.0
C      1  0.5372100000000  0.7006700000000  0.3933590000000 1.0
C      1  0.3076100000000  0.4318900000000  0.3933580000000 1.0
C      1  0.6551810000000  0.3674400000000  0.3933590000000 1.0
C      1  0.4627900000000  0.7006700000000  0.6066410000000 1.0
C      1  0.6923900000000  0.4318900000000  0.6066420000000 1.0
C      1  0.3448190000000  0.3674400000000  0.6066410000000 1.0
C      1  0.4040620000000  0.5123740000000  0.2835180000000 1.0
C      1  0.5372540000000  0.4107270000000  0.2835190000000 1.0
C      1  0.5586860000000  0.5768980000000  0.2835190000000 1.0
C      1  0.5959380000000  0.5123740000000  0.7164820000000 1.0
C      1  0.4627460000000  0.4107270000000  0.7164820000000 1.0
C      1  0.4413140000000  0.5768980000000  0.7164820000000 1.0
C      1  0.5565210000000  0.4243430000000  0.7083520000000 1.0
C      1  0.5372600000000  0.5867780000000  0.7083520000000 1.0
C      1  0.4062180000000  0.4888800000000  0.7083520000000 1.0
C      1  0.4434790000000  0.4243430000000  0.2916480000000 1.0
C      1  0.4627400000000  0.5867780000000  0.2916480000000 1.0
C      1  0.5937820000000  0.4888800000000  0.2916480000000 1.0
C      1  0.6904760000000  0.5624620000000  0.5819260000000 1.0
C      1  0.3506680000000  0.6337260000000  0.5819250000000 1.0
C      1  0.4588550000000  0.3038120000000  0.5819250000000 1.0
C      1  0.3095240000000  0.5624620000000  0.4180740000000 1.0
C      1  0.6493320000000  0.6337260000000  0.4180750000000 1.0
C      1  0.5411450000000  0.3038120000000  0.4180750000000 1.0
C      1  0.3994650000000  0.4696530000000  0.4500350000000 1.0
C      1  0.5765490000000  0.4281080000000  0.4500360000000 1.0
C      1  0.5239860000000  0.6022390000000  0.4500360000000 1.0
C      1  0.6005350000000  0.4696530000000  0.5499640000000 1.0
C      1  0.4234510000000  0.4281080000000  0.5499640000000 1.0
C      1  0.4760140000000  0.6022390000000  0.5499640000000 1.0
C      1  0.3311170000000  0.4737530000000  0.6334070000000 1.0
C      1  0.6071720000000  0.3668670000000  0.6334080000000 1.0
C      1  0.5617100000000  0.6593800000000  0.6334080000000 1.0
C      1  0.6688830000000  0.4737530000000  0.3665930000000 1.0
C      1  0.3928280000000  0.3668670000000  0.3665920000000 1.0
C      1  0.4382900000000  0.6593800000000  0.3665920000000 1.0
C      1  0.5764730000000  0.3330310000000  0.3264520000000 1.0
C      1  0.6063630000000  0.6497120000000  0.3264520000000 1.0
C      1  0.3171650000000  0.5172570000000  0.3264510000000 1.0
C      1  0.4235270000000  0.3330310000000  0.6735480000000 1.0
C      1  0.3936370000000  0.6497120000000  0.6735480000000 1.0
C      1  0.6828350000000  0.5172570000000  0.6735490000000 1.0
C      1  0.6029950000000  0.2830930000000  0.4819990000000 1.0
C      1  0.6363500000000  0.6976500000000  0.4819990000000 1.0
C      1  0.2606560000000  0.5192570000000  0.4819980000000 1.0
C      1  0.3970050000000  0.2830930000000  0.5180010000000 1.0
C      1  0.3636500000000  0.6976500000000  0.5180010000000 1.0
C      1  0.7393440000000  0.5192570000000  0.5180020000000 1.0
C      1  0.3943380000000  0.5366450000000  0.5648710000000 1.0
C      1  0.5210950000000  0.3901720000000  0.5648720000000 1.0
C      1  0.5845660000000  0.5731830000000  0.5648720000000 1.0
C      1  0.6056620000000  0.5366450000000  0.4351280000000 1.0
C      1  0.4789050000000  0.3901720000000  0.4351280000000 1.0
C      1  0.4154340000000  0.5731830000000  0.4351280000000 1.0
END
