TITL C-3036479-9801-951 -4.96930891542246e-05 3375 -344.42207522122 0 0 60 (C1) n - 1
REM
REM in /home/bkarasulu/work/CARBON/AIRSS/Generating-Clusters/REBO/Higher-Symm/Only-C60
REM
REM
REM
REM
REM
REM ./C.cell (a2850807a9bf4ad07a5b6933b78d9264)
REM AIRSS Version 0.9.1 bugfix July 2018 build 013d7b7c2542+ Fri, 06 Jul 2018 19:26:36 +0100
REM compiler GCC version 9.2.1 20190827 (Red Hat 9.2.1-1)
REM options -cpp -mtune=generic -march=x86-64 -g -O0 -fpre-include=/usr/include/finclude/math-vector-fortran.h
REM seed 415795614 664747016 1035293596 -812486733 -2132910665 -309576920 -1210487665 7300726 -1759163469 -1994947057 1157136500 1429937318 -1463776969 1846512131 -2019476337 -706727982 -1798369130 -865051152 1238357161 151205132 21207789 -258365342 907955200 1672772453 504268522 -829217675 1498337970 1976116910 -166170731 1385550247 -609490540 -1481330825 428145772
REM
CELL 1.54180   15.00000   15.00000   15.00000   90.00000   90.00000   90.00000
LATT -1
SFAC C  
C      1  0.7166450000000  0.5861320000000  0.4500470000000 1.0
C      1  0.5642550000000  0.5162460000000  0.4750250000000 1.0
C      1  0.5559430000000  0.4109000000000  0.6071320000000 1.0
C      1  0.5896080000000  0.6856540000000  0.5035210000000 1.0
C      1  0.5260770000000  0.6052240000000  0.2711070000000 1.0
C      1  0.3210090000000  0.5283760000000  0.5931850000000 1.0
C      1  0.3688990000000  0.5452100000000  0.3097820000000 1.0
C      1  0.3536800000000  0.6297420000000  0.7088250000000 1.0
C      1  0.6236880000000  0.4263170000000  0.3195490000000 1.0
C      1  0.4382330000000  0.6212440000000  0.6653700000000 1.0
C      1  0.3942260000000  0.3718950000000  0.6233450000000 1.0
C      1  0.7230110000000  0.4907070000000  0.4600190000000 1.0
C      1  0.2862480000000  0.4570120000000  0.5421140000000 1.0
C      1  0.4587430000000  0.5599630000000  0.4831570000000 1.0
C      1  0.6959810000000  0.6256620000000  0.3612570000000 1.0
C      1  0.4654010000000  0.4297470000000  0.4555230000000 1.0
C      1  0.5075940000000  0.4427120000000  0.7268740000000 1.0
C      1  0.6041270000000  0.4068330000000  0.7303630000000 1.0
C      1  0.3676490000000  0.5438600000000  0.4240950000000 1.0
C      1  0.5864270000000  0.5352870000000  0.5720540000000 1.0
C      1  0.4482670000000  0.7695460000000  0.5292120000000 1.0
C      1  0.5717140000000  0.4089170000000  0.4748360000000 1.0
C      1  0.5354460000000  0.3295210000000  0.4024340000000 1.0
C      1  0.5539820000000  0.3241890000000  0.6801150000000 1.0
C      1  0.7219970000000  0.4648210000000  0.5612580000000 1.0
C      1  0.5923080000000  0.5175620000000  0.2952420000000 1.0
C      1  0.5538210000000  0.7934920000000  0.5036130000000 1.0
C      1  0.5020590000000  0.5070680000000  0.6395530000000 1.0
C      1  0.5951540000000  0.5999230000000  0.6630160000000 1.0
C      1  0.3776580000000  0.7248580000000  0.4901290000000 1.0
C      1  0.4242790000000  0.5515000000000  0.5816890000000 1.0
C      1  0.3033430000000  0.4078220000000  0.3454540000000 1.0
C      1  0.6216720000000  0.3277470000000  0.5268690000000 1.0
C      1  0.6905210000000  0.4335430000000  0.3894490000000 1.0
C      1  0.4524380000000  0.3984320000000  0.2648720000000 1.0
C      1  0.5230790000000  0.6615000000000  0.6645560000000 1.0
C      1  0.3113960000000  0.4608020000000  0.4439250000000 1.0
C      1  0.5320950000000  0.7264900000000  0.5925330000000 1.0
C      1  0.3898180000000  0.6432340000000  0.3398400000000 1.0
C      1  0.3601180000000  0.3100720000000  0.5105700000000 1.0
C      1  0.2876600000000  0.5778950000000  0.6678910000000 1.0
C      1  0.6558870000000  0.4458520000000  0.6476700000000 1.0
C      1  0.3425610000000  0.3521750000000  0.4266240000000 1.0
C      1  0.4851430000000  0.6580590000000  0.3389620000000 1.0
C      1  0.5271910000000  0.6365700000000  0.4346190000000 1.0
C      1  0.5475020000000  0.3659690000000  0.3178010000000 1.0
C      1  0.7003110000000  0.3551230000000  0.5629420000000 1.0
C      1  0.6879870000000  0.5628450000000  0.6090110000000 1.0
C      1  0.4517370000000  0.4502990000000  0.3674790000000 1.0
C      1  0.3049790000000  0.3698100000000  0.5765920000000 1.0
C      1  0.4443080000000  0.2758490000000  0.5462560000000 1.0
C      1  0.6749120000000  0.6300480000000  0.5238590000000 1.0
C      1  0.4884030000000  0.5019210000000  0.2724980000000 1.0
C      1  0.4569150000000  0.2838400000000  0.6557970000000 1.0
C      1  0.4390430000000  0.3752480000000  0.7225460000000 1.0
C      1  0.4644140000000  0.4084680000000  0.5537760000000 1.0
C      1  0.6018350000000  0.5726980000000  0.3839500000000 1.0
C      1  0.3541680000000  0.4541880000000  0.2788710000000 1.0
C      1  0.5250140000000  0.2869510000000  0.4977090000000 1.0
C      1  0.3514250000000  0.6564280000000  0.4336390000000 1.0
END
