TITL C-3036481-494-654 9.04696713717022e-06 3375 -355.492387078272 0 0 60 (C4) n - 1
REM
REM in /home/bkarasulu/work/CARBON/AIRSS/Generating-Clusters/REBO/Higher-Symm/Only-C60
REM
REM
REM
REM
REM
REM ./C.cell (a2850807a9bf4ad07a5b6933b78d9264)
REM AIRSS Version 0.9.1 bugfix July 2018 build 013d7b7c2542+ Fri, 06 Jul 2018 19:26:36 +0100
REM compiler GCC version 9.2.1 20190827 (Red Hat 9.2.1-1)
REM options -cpp -mtune=generic -march=x86-64 -g -O0 -fpre-include=/usr/include/finclude/math-vector-fortran.h
REM seed -92740388 -184559063 843021854 -344267748 -1185227221 1535476265 -2131530278 1374080026 597835587 -888949489 4456020 -775444570 1084909203 1580470495 -1058475461 -868666873 -329502005 -536324004 311374333 1081578276 2053916967 -826464378 -672536525 -1211310660 668972407 933584026 1625548737 -586253870 -2011101137 1875822971 -189013975 -1560984546 -1661186795
REM
CELL 1.54180   15.00000   15.00000   15.00000   90.00000   90.00000   90.00000
LATT -1
SFAC C  
C      1  0.5145860000000  0.5420110000000  0.3792250000000 1.0
C      1  0.5145720000000  0.3790500000000  0.4578860000000 1.0
C      1  0.5145900000000  0.4579890000000  0.6207750000000 1.0
C      1  0.5145760000000  0.6209500000000  0.5421130000000 1.0
C      1  0.5088910000000  0.4452320000000  0.3950320000000 1.0
C      1  0.5088960000000  0.6049210000000  0.4453530000000 1.0
C      1  0.5088960000000  0.5547680000000  0.6049670000000 1.0
C      1  0.5088960000000  0.3950790000000  0.5546470000000 1.0
C      1  0.5203690000000  0.3599910000000  0.7104550000000 1.0
C      1  0.5206740000000  0.7107290000000  0.6400090000000 1.0
C      1  0.5203640000000  0.6400080000000  0.2895450000000 1.0
C      1  0.5206650000000  0.2892710000000  0.3599910000000 1.0
C      1  0.5270100000000  0.6261740000000  0.7155500000000 1.0
C      1  0.5267360000000  0.2843910000000  0.6259600000000 1.0
C      1  0.5270000000000  0.3738250000000  0.2844490000000 1.0
C      1  0.5267350000000  0.7156080000000  0.3740390000000 1.0
C      1  0.5089460000000  0.5322510000000  0.7730140000000 1.0
C      1  0.5092230000000  0.7732890000000  0.4678470000000 1.0
C      1  0.5089350000000  0.4677490000000  0.2269860000000 1.0
C      1  0.5092190000000  0.2267110000000  0.5321530000000 1.0
C      1  0.4975660000000  0.4505700000000  0.7754400000000 1.0
C      1  0.4979110000000  0.2241530000000  0.4504680000000 1.0
C      1  0.4975570000000  0.5494300000000  0.2245600000000 1.0
C      1  0.4979180000000  0.7758470000000  0.5495320000000 1.0
C      1  0.5972760000000  0.5472230000000  0.6745140000000 1.0
C      1  0.5972370000000  0.6745270000000  0.4527650000000 1.0
C      1  0.5972680000000  0.4527750000000  0.3254820000000 1.0
C      1  0.5972360000000  0.3254710000000  0.5472320000000 1.0
C      1  0.5995190000000  0.4364640000000  0.6915590000000 1.0
C      1  0.5996310000000  0.3083460000000  0.4364950000000 1.0
C      1  0.5995130000000  0.5635340000000  0.3084380000000 1.0
C      1  0.5996360000000  0.6916530000000  0.5635010000000 1.0
C      1  0.6792170000000  0.5437610000000  0.3778580000000 1.0
C      1  0.6792270000000  0.3778530000000  0.4562770000000 1.0
C      1  0.6792200000000  0.4562360000000  0.6221360000000 1.0
C      1  0.6792310000000  0.6221440000000  0.5437160000000 1.0
C      1  0.6837820000000  0.4443360000000  0.3918910000000 1.0
C      1  0.6837930000000  0.6081680000000  0.4443070000000 1.0
C      1  0.6837870000000  0.5556610000000  0.6081020000000 1.0
C      1  0.6837940000000  0.3918280000000  0.5556860000000 1.0
C      1  0.3729360000000  0.4449850000000  0.3353430000000 1.0
C      1  0.3711850000000  0.3330910000000  0.5559880000000 1.0
C      1  0.3729430000000  0.5550170000000  0.6646620000000 1.0
C      1  0.3711860000000  0.6669110000000  0.4440170000000 1.0
C      1  0.3619760000000  0.5410280000000  0.3453940000000 1.0
C      1  0.3625870000000  0.6547860000000  0.5404080000000 1.0
C      1  0.3619810000000  0.4589750000000  0.6546120000000 1.0
C      1  0.3625830000000  0.3452160000000  0.4595980000000 1.0
C      1  0.4126770000000  0.3910370000000  0.6934060000000 1.0
C      1  0.4131860000000  0.6931540000000  0.6084790000000 1.0
C      1  0.4126720000000  0.6089650000000  0.3065970000000 1.0
C      1  0.4131780000000  0.3068480000000  0.3915240000000 1.0
C      1  0.4247760000000  0.6288260000000  0.6820670000000 1.0
C      1  0.4241170000000  0.3166480000000  0.6296240000000 1.0
C      1  0.4247670000000  0.3711760000000  0.3179360000000 1.0
C      1  0.4241150000000  0.6833530000000  0.3703790000000 1.0
C      1  0.3304880000000  0.5488220000000  0.5614520000000 1.0
C      1  0.3288890000000  0.5642260000000  0.4489430000000 1.0
C      1  0.3304850000000  0.4511810000000  0.4385540000000 1.0
C      1  0.3288900000000  0.4357770000000  0.5510630000000 1.0
END
