TITL C-3036484-3770-554 1.15803714710765e-06 3375 -379.410267820104 0 0 60 (Td) n - 1
REM
REM in /home/bkarasulu/work/CARBON/AIRSS/Generating-Clusters/REBO/Higher-Symm/Only-C60
REM
REM
REM
REM
REM
REM ./C.cell (a2850807a9bf4ad07a5b6933b78d9264)
REM AIRSS Version 0.9.1 bugfix July 2018 build 013d7b7c2542+ Fri, 06 Jul 2018 19:26:36 +0100
REM compiler GCC version 9.2.1 20190827 (Red Hat 9.2.1-1)
REM options -cpp -mtune=generic -march=x86-64 -g -O0 -fpre-include=/usr/include/finclude/math-vector-fortran.h
REM seed -411139848 -385814648 640366190 381546545 866703473 688540942 1898543587 1262762592 1954469125 -1724819492 588606572 -2144590012 920956289 1997993187 444000164 -1885649917 1529065094 -641895238 531632460 1023365967 1289420603 639468605 -1671684761 1283434293 273602772 1028877611 -949095940 -1976875690 665504791 249820818 768885621 430162456 -1843107195
REM
CELL 1.54180   15.00000   15.00000   15.00000   90.00000   90.00000   90.00000
LATT -1
SFAC C  
C      1  0.5379530000000  0.6079140000000  0.7224180000000 1.0
C      1  0.7224180000000  0.5379530000000  0.6079140000000 1.0
C      1  0.6079140000000  0.7224180000000  0.5379530000000 1.0
C      1  0.4620470000000  0.6079140000000  0.2775820000000 1.0
C      1  0.5379530000000  0.3920860000000  0.2775820000000 1.0
C      1  0.4620470000000  0.3920860000000  0.7224180000000 1.0
C      1  0.2775820000000  0.5379530000000  0.3920860000000 1.0
C      1  0.7224180000000  0.4620470000000  0.3920860000000 1.0
C      1  0.2775820000000  0.4620470000000  0.6079140000000 1.0
C      1  0.3920860000000  0.7224180000000  0.4620470000000 1.0
C      1  0.6079140000000  0.2775820000000  0.4620470000000 1.0
C      1  0.3920860000000  0.2775820000000  0.5379530000000 1.0
C      1  0.7224180000000  0.6079140000000  0.5379530000000 1.0
C      1  0.6079140000000  0.5379530000000  0.7224180000000 1.0
C      1  0.5379530000000  0.7224180000000  0.6079140000000 1.0
C      1  0.2775820000000  0.6079140000000  0.4620470000000 1.0
C      1  0.2775820000000  0.3920860000000  0.5379530000000 1.0
C      1  0.7224180000000  0.3920860000000  0.4620470000000 1.0
C      1  0.3920860000000  0.5379530000000  0.2775820000000 1.0
C      1  0.3920860000000  0.4620470000000  0.7224180000000 1.0
C      1  0.6079140000000  0.4620470000000  0.2775820000000 1.0
C      1  0.4620470000000  0.7224180000000  0.3920860000000 1.0
C      1  0.4620470000000  0.2775820000000  0.6079140000000 1.0
C      1  0.5379530000000  0.2775820000000  0.3920860000000 1.0
C      1  0.5480560000000  0.3854150000000  0.6829340000000 1.0
C      1  0.6829340000000  0.5480560000000  0.3854150000000 1.0
C      1  0.3854150000000  0.6829340000000  0.5480560000000 1.0
C      1  0.4519440000000  0.3854150000000  0.3170660000000 1.0
C      1  0.5480560000000  0.6145850000000  0.3170660000000 1.0
C      1  0.4519440000000  0.6145850000000  0.6829340000000 1.0
C      1  0.3170660000000  0.5480560000000  0.6145850000000 1.0
C      1  0.6829340000000  0.4519440000000  0.6145850000000 1.0
C      1  0.3170660000000  0.4519440000000  0.3854150000000 1.0
C      1  0.6145850000000  0.6829340000000  0.4519440000000 1.0
C      1  0.3854150000000  0.3170660000000  0.4519440000000 1.0
C      1  0.6145850000000  0.3170660000000  0.5480560000000 1.0
C      1  0.6829340000000  0.3854150000000  0.5480560000000 1.0
C      1  0.3854150000000  0.5480560000000  0.6829340000000 1.0
C      1  0.5480560000000  0.6829340000000  0.3854150000000 1.0
C      1  0.3170660000000  0.3854150000000  0.4519440000000 1.0
C      1  0.3170660000000  0.6145850000000  0.5480560000000 1.0
C      1  0.6829340000000  0.6145850000000  0.4519440000000 1.0
C      1  0.6145850000000  0.5480560000000  0.3170660000000 1.0
C      1  0.6145850000000  0.4519440000000  0.6829340000000 1.0
C      1  0.3854150000000  0.4519440000000  0.3170660000000 1.0
C      1  0.4519440000000  0.6829340000000  0.6145850000000 1.0
C      1  0.4519440000000  0.3170660000000  0.3854150000000 1.0
C      1  0.5480560000000  0.3170660000000  0.6145850000000 1.0
C      1  0.3944090000000  0.3134560000000  0.6865440000000 1.0
C      1  0.3134560000000  0.3944090000000  0.6865440000000 1.0
C      1  0.6865440000000  0.3134560000000  0.3944090000000 1.0
C      1  0.3944090000000  0.6865440000000  0.3134560000000 1.0
C      1  0.3134560000000  0.6055910000000  0.3134560000000 1.0
C      1  0.3134560000000  0.3134560000000  0.6055910000000 1.0
C      1  0.3134560000000  0.6865440000000  0.3944090000000 1.0
C      1  0.6865440000000  0.3944090000000  0.3134560000000 1.0
C      1  0.6055910000000  0.3134560000000  0.3134560000000 1.0
C      1  0.6865440000000  0.6865440000000  0.6055910000000 1.0
C      1  0.6865440000000  0.6055910000000  0.6865440000000 1.0
C      1  0.6055910000000  0.6865440000000  0.6865440000000 1.0
END
