TITL C-3036481-494-951 -8.98338108786501e-06 3375 -343.14668765872 0 0 60 (C1) n - 1
REM
REM in /home/bkarasulu/work/CARBON/AIRSS/Generating-Clusters/REBO/Higher-Symm/Only-C60
REM
REM
REM
REM
REM
REM ./C.cell (a2850807a9bf4ad07a5b6933b78d9264)
REM AIRSS Version 0.9.1 bugfix July 2018 build 013d7b7c2542+ Fri, 06 Jul 2018 19:26:36 +0100
REM compiler GCC version 9.2.1 20190827 (Red Hat 9.2.1-1)
REM options -cpp -mtune=generic -march=x86-64 -g -O0 -fpre-include=/usr/include/finclude/math-vector-fortran.h
REM seed 1570557126 -1920434530 -784087995 -115645994 2031941054 -612909606 659339774 -1296157564 1562929236 2144177287 4691584 1925443047 1543382701 1090347197 -470946953 1082254439 -116407243 -979064415 -666724153 1620310428 -192311019 1757902053 2120450811 -515478979 -445331476 1217887725 -1746592143 -663312468 570458145 1448359812 -1218046338 -23554810 342087619
REM
CELL 1.54180   15.00000   15.00000   15.00000   90.00000   90.00000   90.00000
LATT -1
SFAC C  
C      1  0.6819280000000  0.5544030000000  0.3508530000000 1.0
C      1  0.2658480000000  0.5424370000000  0.4227530000000 1.0
C      1  0.5393820000000  0.5582390000000  0.7342910000000 1.0
C      1  0.3255120000000  0.5577010000000  0.3422390000000 1.0
C      1  0.7404120000000  0.5397240000000  0.4320930000000 1.0
C      1  0.4395610000000  0.5502870000000  0.7359780000000 1.0
C      1  0.6179640000000  0.3227500000000  0.3718270000000 1.0
C      1  0.3278600000000  0.3229340000000  0.4630590000000 1.0
C      1  0.5566560000000  0.3168030000000  0.6724410000000 1.0
C      1  0.3608200000000  0.3266110000000  0.3881440000000 1.0
C      1  0.6655420000000  0.3231870000000  0.4388380000000 1.0
C      1  0.4744180000000  0.3189240000000  0.6769100000000 1.0
C      1  0.5868440000000  0.4828410000000  0.6780640000000 1.0
C      1  0.6000700000000  0.4929720000000  0.3486630000000 1.0
C      1  0.3114550000000  0.4893330000000  0.4964850000000 1.0
C      1  0.4031120000000  0.4839410000000  0.6670350000000 1.0
C      1  0.4113160000000  0.4983660000000  0.3417770000000 1.0
C      1  0.6912150000000  0.4879200000000  0.5057540000000 1.0
C      1  0.6986930000000  0.3587780000000  0.5346320000000 1.0
C      1  0.4273160000000  0.3689160000000  0.3168290000000 1.0
C      1  0.3748590000000  0.3549770000000  0.6555450000000 1.0
C      1  0.3246440000000  0.3728680000000  0.5591960000000 1.0
C      1  0.5366760000000  0.3788350000000  0.3234730000000 1.0
C      1  0.6408050000000  0.3729680000000  0.6265850000000 1.0
C      1  0.4540410000000  0.5527230000000  0.5939420000000 1.0
C      1  0.6068680000000  0.5572800000000  0.5148320000000 1.0
C      1  0.4541700000000  0.5676400000000  0.4185260000000 1.0
C      1  0.5500070000000  0.5556160000000  0.6015020000000 1.0
C      1  0.3995840000000  0.5607280000000  0.5042390000000 1.0
C      1  0.5576010000000  0.5601680000000  0.4304620000000 1.0
C      1  0.6531640000000  0.6553130000000  0.3513680000000 1.0
C      1  0.2805900000000  0.6512310000000  0.4243810000000 1.0
C      1  0.5570530000000  0.6512760000000  0.6934900000000 1.0
C      1  0.3388890000000  0.6655920000000  0.3406370000000 1.0
C      1  0.7212610000000  0.6505480000000  0.4321290000000 1.0
C      1  0.4504750000000  0.6455730000000  0.6894930000000 1.0
C      1  0.6898690000000  0.4560830000000  0.6856840000000 1.0
C      1  0.5654320000000  0.4586720000000  0.2519730000000 1.0
C      1  0.2439180000000  0.4487640000000  0.5740360000000 1.0
C      1  0.3042280000000  0.4438480000000  0.6698610000000 1.0
C      1  0.4520970000000  0.4563550000000  0.2483310000000 1.0
C      1  0.7482480000000  0.4461130000000  0.5890200000000 1.0
C      1  0.7102920000000  0.5577810000000  0.6501810000000 1.0
C      1  0.5318000000000  0.5621720000000  0.2574470000000 1.0
C      1  0.2196720000000  0.5588670000000  0.5627400000000 1.0
C      1  0.2928620000000  0.5528410000000  0.6393200000000 1.0
C      1  0.4304350000000  0.5665020000000  0.2296580000000 1.0
C      1  0.7837810000000  0.5535140000000  0.5740560000000 1.0
C      1  0.3042200000000  0.6193110000000  0.5245950000000 1.0
C      1  0.6334800000000  0.6305020000000  0.6225220000000 1.0
C      1  0.5496420000000  0.6253870000000  0.3411390000000 1.0
C      1  0.7013620000000  0.6180750000000  0.5322870000000 1.0
C      1  0.3707700000000  0.6253640000000  0.6167480000000 1.0
C      1  0.4370580000000  0.6277770000000  0.3233680000000 1.0
C      1  0.5436670000000  0.4230300000000  0.5935820000000 1.0
C      1  0.5551190000000  0.4272620000000  0.4249110000000 1.0
C      1  0.4025980000000  0.4277470000000  0.4969170000000 1.0
C      1  0.4476500000000  0.4183850000000  0.5916910000000 1.0
C      1  0.4508350000000  0.4253420000000  0.4142360000000 1.0
C      1  0.6043520000000  0.4199020000000  0.5072310000000 1.0
END
