TITL C-3036479-9801-727 -1.56858570866566e-06 3375 -344.201750983741 0 0 60 (C2) n - 1
REM
REM in /home/bkarasulu/work/CARBON/AIRSS/Generating-Clusters/REBO/Higher-Symm/Only-C60
REM
REM
REM
REM
REM
REM ./C.cell (a2850807a9bf4ad07a5b6933b78d9264)
REM AIRSS Version 0.9.1 bugfix July 2018 build 013d7b7c2542+ Fri, 06 Jul 2018 19:26:36 +0100
REM compiler GCC version 9.2.1 20190827 (Red Hat 9.2.1-1)
REM options -cpp -mtune=generic -march=x86-64 -g -O0 -fpre-include=/usr/include/finclude/math-vector-fortran.h
REM seed -712649446 1378439738 -1469643386 -710324229 238806757 -10438568 -1044982359 473469409 -257040565 867081317 1019376173 628795720 -1463214617 266510514 1252246725 -88520006 -642467748 -758597120 770323044 -1178394948 -865321160 -1511684746 656514116 -1688739200 845545680 286215929 -265412692 -588472996 -1098019042 426156186 -1785828792 159323984 1776886940
REM
CELL 1.54180   15.00000   15.00000   15.00000   90.00000   90.00000   90.00000
LATT -1
SFAC C  
C      1  0.5688310000000  0.7260310000000  0.5197720000000 1.0
C      1  0.5464500000000  0.4122960000000  0.3112260000000 1.0
C      1  0.5412300000000  0.4148720000000  0.6797180000000 1.0
C      1  0.4615970000000  0.7010530000000  0.5179970000000 1.0
C      1  0.4479840000000  0.3827880000000  0.3017860000000 1.0
C      1  0.4418960000000  0.3884000000000  0.6853420000000 1.0
C      1  0.5384020000000  0.2989540000000  0.5180690000000 1.0
C      1  0.5520240000000  0.6171410000000  0.3017450000000 1.0
C      1  0.5580960000000  0.6116670000000  0.6853040000000 1.0
C      1  0.4311680000000  0.2739770000000  0.5198500000000 1.0
C      1  0.4535580000000  0.5876360000000  0.3111910000000 1.0
C      1  0.4587620000000  0.5851930000000  0.6796860000000 1.0
C      1  0.5466580000000  0.4109420000000  0.4958070000000 1.0
C      1  0.5507930000000  0.5708710000000  0.5844960000000 1.0
C      1  0.5482640000000  0.5726140000000  0.4037150000000 1.0
C      1  0.4368830000000  0.3801760000000  0.4935360000000 1.0
C      1  0.4419850000000  0.5322530000000  0.5825970000000 1.0
C      1  0.4416240000000  0.5316660000000  0.4083320000000 1.0
C      1  0.5631170000000  0.6198220000000  0.4934960000000 1.0
C      1  0.5580110000000  0.4677770000000  0.5826110000000 1.0
C      1  0.5583810000000  0.4683010000000  0.4083450000000 1.0
C      1  0.4533420000000  0.5890580000000  0.4957730000000 1.0
C      1  0.4492030000000  0.4291600000000  0.5845200000000 1.0
C      1  0.4517390000000  0.4273520000000  0.4037390000000 1.0
C      1  0.3613990000000  0.4448410000000  0.7365680000000 1.0
C      1  0.3767820000000  0.6905790000000  0.4432250000000 1.0
C      1  0.3619740000000  0.3309880000000  0.3549690000000 1.0
C      1  0.6280990000000  0.4580900000000  0.7378930000000 1.0
C      1  0.6481620000000  0.7079880000000  0.4410250000000 1.0
C      1  0.6287110000000  0.3537610000000  0.3595850000000 1.0
C      1  0.3718910000000  0.5419950000000  0.7378730000000 1.0
C      1  0.3518400000000  0.2919910000000  0.4410940000000 1.0
C      1  0.3712960000000  0.6461880000000  0.3595280000000 1.0
C      1  0.6385910000000  0.5552440000000  0.7365540000000 1.0
C      1  0.6232210000000  0.3094000000000  0.4432980000000 1.0
C      1  0.6380320000000  0.6689600000000  0.3549140000000 1.0
C      1  0.3534030000000  0.6072080000000  0.6468710000000 1.0
C      1  0.3485470000000  0.5429310000000  0.3145690000000 1.0
C      1  0.3317160000000  0.3231910000000  0.5496460000000 1.0
C      1  0.6617570000000  0.6157910000000  0.6430190000000 1.0
C      1  0.6519960000000  0.5656910000000  0.3092080000000 1.0
C      1  0.6404210000000  0.3354910000000  0.5531850000000 1.0
C      1  0.3382370000000  0.3842600000000  0.6430540000000 1.0
C      1  0.3480120000000  0.4342400000000  0.3092260000000 1.0
C      1  0.3595760000000  0.6645280000000  0.5531210000000 1.0
C      1  0.6465900000000  0.3928450000000  0.6469150000000 1.0
C      1  0.6514610000000  0.4570030000000  0.3145910000000 1.0
C      1  0.6682820000000  0.6768270000000  0.5495900000000 1.0
C      1  0.3007930000000  0.4084500000000  0.4804640000000 1.0
C      1  0.3063930000000  0.5446230000000  0.5738500000000 1.0
C      1  0.2883910000000  0.5550870000000  0.4098230000000 1.0
C      1  0.7052130000000  0.4035420000000  0.4897430000000 1.0
C      1  0.6941760000000  0.5477490000000  0.5691660000000 1.0
C      1  0.7009970000000  0.5434850000000  0.4028650000000 1.0
C      1  0.2947870000000  0.5964540000000  0.4897000000000 1.0
C      1  0.3058210000000  0.4522760000000  0.5691750000000 1.0
C      1  0.2990080000000  0.4564800000000  0.4028730000000 1.0
C      1  0.6992080000000  0.5915430000000  0.4804390000000 1.0
C      1  0.6936030000000  0.4554040000000  0.5738730000000 1.0
C      1  0.7116130000000  0.4448800000000  0.4098520000000 1.0
END
