TITL C-3036479-9801-93 0.000132070017430062 3375 -365.948548220043 0 0 60 (C6) n - 1
REM
REM in /home/bkarasulu/work/CARBON/AIRSS/Generating-Clusters/REBO/Higher-Symm/Only-C60
REM
REM
REM
REM
REM
REM ./C.cell (a2850807a9bf4ad07a5b6933b78d9264)
REM AIRSS Version 0.9.1 bugfix July 2018 build 013d7b7c2542+ Fri, 06 Jul 2018 19:26:36 +0100
REM compiler GCC version 9.2.1 20190827 (Red Hat 9.2.1-1)
REM options -cpp -mtune=generic -march=x86-64 -g -O0 -fpre-include=/usr/include/finclude/math-vector-fortran.h
REM seed -959880071 -941704176 -1304317585 -2083616903 1768591966 1423382130 1610593622 525897169 -1784729054 -1203295901 -1329505192 -932821320 641156693 1809771383 -1403574351 679344622 -1650722742 1131113185 1726367963 1172195590 396173163 1913973175 -606162083 -1752942501 179469174 2010449255 763648224 1255237275 -508655622 -2001314697 353043767 -288840821 -317735534
REM
CELL 1.54180   15.00000   15.00000   15.00000   90.00000   90.00000   90.00000
LATT -1
SFAC C  
C      1  0.4051950000000  0.4740020000000  0.6986330000000 1.0
C      1  0.4300820000000  0.5691030000000  0.6986330000000 1.0
C      1  0.5248860000000  0.5951010000000  0.6986340000000 1.0
C      1  0.5948030000000  0.5259970000000  0.6986340000000 1.0
C      1  0.5699150000000  0.4308950000000  0.6986340000000 1.0
C      1  0.4751110000000  0.4048980000000  0.6986330000000 1.0
C      1  0.7536880000000  0.5176610000000  0.4934730000000 1.0
C      1  0.6421390000000  0.2891310000000  0.4934720000000 1.0
C      1  0.3884510000000  0.2714700000000  0.4934700000000 1.0
C      1  0.2463120000000  0.4823390000000  0.4934700000000 1.0
C      1  0.3578610000000  0.7108690000000  0.4934710000000 1.0
C      1  0.6115490000000  0.7285300000000  0.4934730000000 1.0
C      1  0.7561490000000  0.5402770000000  0.5869200000000 1.0
C      1  0.6629550000000  0.2983060000000  0.5869180000000 1.0
C      1  0.4068050000000  0.2580300000000  0.5869170000000 1.0
C      1  0.2438500000000  0.4597230000000  0.5869160000000 1.0
C      1  0.3370440000000  0.7016930000000  0.5869170000000 1.0
C      1  0.5931930000000  0.7419700000000  0.5869190000000 1.0
C      1  0.5934600000000  0.5221270000000  0.3216550000000 1.0
C      1  0.5658920000000  0.4301260000000  0.3216550000000 1.0
C      1  0.4724330000000  0.4080000000000  0.3216540000000 1.0
C      1  0.4065420000000  0.4778750000000  0.3216540000000 1.0
C      1  0.4341100000000  0.5698760000000  0.3216540000000 1.0
C      1  0.5275690000000  0.5920020000000  0.3216550000000 1.0
C      1  0.7167000000000  0.4348470000000  0.4638040000000 1.0
C      1  0.5519260000000  0.2797560000000  0.4638020000000 1.0
C      1  0.3352260000000  0.3449090000000  0.4638010000000 1.0
C      1  0.2833000000000  0.5651530000000  0.4638010000000 1.0
C      1  0.4480750000000  0.7202450000000  0.4638030000000 1.0
C      1  0.6647750000000  0.6550910000000  0.4638040000000 1.0
C      1  0.4240280000000  0.5681680000000  0.5657500000000 1.0
C      1  0.5210490000000  0.5998770000000  0.5657510000000 1.0
C      1  0.5970200000000  0.5317090000000  0.5657510000000 1.0
C      1  0.5759710000000  0.4318320000000  0.5657510000000 1.0
C      1  0.4789500000000  0.4001230000000  0.5657500000000 1.0
C      1  0.4029790000000  0.4682900000000  0.5657500000000 1.0
C      1  0.3715310000000  0.6273940000000  0.6340220000000 1.0
C      1  0.5460920000000  0.6749530000000  0.6340230000000 1.0
C      1  0.6745600000000  0.5475590000000  0.6340240000000 1.0
C      1  0.6284670000000  0.3726050000000  0.6340230000000 1.0
C      1  0.4539060000000  0.3250460000000  0.6340220000000 1.0
C      1  0.3254380000000  0.4524400000000  0.6340210000000 1.0
C      1  0.5525390000000  0.6799470000000  0.3490010000000 1.0
C      1  0.6821080000000  0.5444750000000  0.3490020000000 1.0
C      1  0.6295700000000  0.3645280000000  0.3490010000000 1.0
C      1  0.4474630000000  0.3200540000000  0.3489990000000 1.0
C      1  0.3178940000000  0.4555260000000  0.3489990000000 1.0
C      1  0.3704320000000  0.6354730000000  0.3490000000000 1.0
C      1  0.4865640000000  0.6129220000000  0.4579350000000 1.0
C      1  0.5910750000000  0.5680970000000  0.4579360000000 1.0
C      1  0.6045110000000  0.4551750000000  0.4579350000000 1.0
C      1  0.5134370000000  0.3870790000000  0.4579350000000 1.0
C      1  0.4089250000000  0.4319030000000  0.4579340000000 1.0
C      1  0.3954890000000  0.5448250000000  0.4579340000000 1.0
C      1  0.4603680000000  0.2684700000000  0.4288110000000 1.0
C      1  0.2796740000000  0.4185580000000  0.4288100000000 1.0
C      1  0.3193060000000  0.6500880000000  0.4288110000000 1.0
C      1  0.5396330000000  0.7315300000000  0.4288130000000 1.0
C      1  0.7203280000000  0.5814430000000  0.4288130000000 1.0
C      1  0.6806950000000  0.3499130000000  0.4288120000000 1.0
END
