TITL C-3036479-9801-26 0.00239756859385636 3375 -326.624558436603 0 0 60 (C1) n - 1
REM
REM in /home/bkarasulu/work/CARBON/AIRSS/Generating-Clusters/REBO/Higher-Symm/Only-C60
REM
REM
REM
REM
REM
REM ./C.cell (a2850807a9bf4ad07a5b6933b78d9264)
REM AIRSS Version 0.9.1 bugfix July 2018 build 013d7b7c2542+ Fri, 06 Jul 2018 19:26:36 +0100
REM compiler GCC version 9.2.1 20190827 (Red Hat 9.2.1-1)
REM options -cpp -mtune=generic -march=x86-64 -g -O0 -fpre-include=/usr/include/finclude/math-vector-fortran.h
REM seed -868182170 -653846291 -2056432741 1439778241 130292919 1273150703 -1649103843 48058872 -811252265 1656496953 -361614344 -1172259751 404670981 -199575597 -500706550 1680710448 -1079567692 -1974885345 715811451 -383977730 1115075042 -531553524 2100447788 1455901678 -1029513405 -189150417 1136947883 -44734386 -1003431583 -773540528 1738461938 -8271264 549809873
REM
CELL 1.54180   15.00000   15.00000   15.00000   90.00000   90.00000   90.00000
LATT -1
SFAC C  
C      1  0.7069940000000  0.4891260000000  0.3513530000000 1.0
C      1  0.2991780000000  0.4873380000000  0.6408110000000 1.0
C      1  0.2998570000000  0.4835870000000  0.3608580000000 1.0
C      1  0.7064010000000  0.4803830000000  0.6352220000000 1.0
C      1  0.3891990000000  0.6534500000000  0.3671820000000 1.0
C      1  0.6126460000000  0.6431740000000  0.6207020000000 1.0
C      1  0.6181050000000  0.6422980000000  0.3696750000000 1.0
C      1  0.3880370000000  0.6505970000000  0.6202210000000 1.0
C      1  0.7364950000000  0.4038670000000  0.5739470000000 1.0
C      1  0.2725720000000  0.4036990000000  0.4219240000000 1.0
C      1  0.2708050000000  0.3967120000000  0.5839090000000 1.0
C      1  0.7360740000000  0.3995000000000  0.4103360000000 1.0
C      1  0.3047160000000  0.5767750000000  0.5993440000000 1.0
C      1  0.6939190000000  0.5784420000000  0.3897240000000 1.0
C      1  0.6908630000000  0.5742750000000  0.6012300000000 1.0
C      1  0.3072370000000  0.5916750000000  0.3848360000000 1.0
C      1  0.5754240000000  0.5200480000000  0.3997640000000 1.0
C      1  0.4259800000000  0.5277940000000  0.5870220000000 1.0
C      1  0.4197210000000  0.5282430000000  0.3983190000000 1.0
C      1  0.5703290000000  0.5212870000000  0.5887240000000 1.0
C      1  0.6581730000000  0.3343750000000  0.5560710000000 1.0
C      1  0.3531860000000  0.3356720000000  0.4399540000000 1.0
C      1  0.3547680000000  0.3340440000000  0.5553200000000 1.0
C      1  0.6569390000000  0.3310730000000  0.4408220000000 1.0
C      1  0.5398200000000  0.4393540000000  0.3414640000000 1.0
C      1  0.4397080000000  0.4579820000000  0.6596750000000 1.0
C      1  0.4417800000000  0.4550570000000  0.3333070000000 1.0
C      1  0.5379980000000  0.4436210000000  0.6526260000000 1.0
C      1  0.6416780000000  0.4045630000000  0.3313500000000 1.0
C      1  0.3551590000000  0.3940150000000  0.6733970000000 1.0
C      1  0.3554420000000  0.3927100000000  0.3217490000000 1.0
C      1  0.6398420000000  0.4105650000000  0.6649860000000 1.0
C      1  0.5481460000000  0.5881430000000  0.6827010000000 1.0
C      1  0.4536280000000  0.5988520000000  0.3088140000000 1.0
C      1  0.4498700000000  0.5924930000000  0.6832490000000 1.0
C      1  0.5509060000000  0.5925690000000  0.3107400000000 1.0
C      1  0.4482050000000  0.3508830000000  0.6195860000000 1.0
C      1  0.5610180000000  0.3372740000000  0.3790140000000 1.0
C      1  0.5620110000000  0.3406860000000  0.6175120000000 1.0
C      1  0.4473400000000  0.3490640000000  0.3760420000000 1.0
C      1  0.5566170000000  0.7215020000000  0.5605990000000 1.0
C      1  0.4490520000000  0.7124070000000  0.4450480000000 1.0
C      1  0.4498260000000  0.7248640000000  0.5607910000000 1.0
C      1  0.5626850000000  0.7086230000000  0.4448540000000 1.0
C      1  0.6156490000000  0.4872090000000  0.4972410000000 1.0
C      1  0.3900230000000  0.4902900000000  0.4972730000000 1.0
C      1  0.5890430000000  0.3915390000000  0.4974130000000 1.0
C      1  0.4199350000000  0.3963860000000  0.4975250000000 1.0
C      1  0.3139720000000  0.6630810000000  0.4998700000000 1.0
C      1  0.6778350000000  0.6666810000000  0.5068070000000 1.0
C      1  0.4988930000000  0.6018240000000  0.5617280000000 1.0
C      1  0.4991710000000  0.5898680000000  0.4317590000000 1.0
C      1  0.5856070000000  0.6134200000000  0.4943580000000 1.0
C      1  0.4101360000000  0.6207180000000  0.4933130000000 1.0
C      1  0.2216850000000  0.4143350000000  0.4986840000000 1.0
C      1  0.7852450000000  0.4181550000000  0.4960170000000 1.0
C      1  0.7053320000000  0.5571620000000  0.4940770000000 1.0
C      1  0.2970160000000  0.5514740000000  0.4893200000000 1.0
C      1  0.5010050000000  0.2603260000000  0.4994570000000 1.0
C      1  0.5035420000000  0.3489210000000  0.4983580000000 1.0
END
