TITL C-3036479-9801-76 3.42795208840762e-06 3375 -344.806724540076 0 0 60 (C2) n - 1
REM
REM in /home/bkarasulu/work/CARBON/AIRSS/Generating-Clusters/REBO/Higher-Symm/Only-C60
REM
REM
REM
REM
REM
REM ./C.cell (a2850807a9bf4ad07a5b6933b78d9264)
REM AIRSS Version 0.9.1 bugfix July 2018 build 013d7b7c2542+ Fri, 06 Jul 2018 19:26:36 +0100
REM compiler GCC version 9.2.1 20190827 (Red Hat 9.2.1-1)
REM options -cpp -mtune=generic -march=x86-64 -g -O0 -fpre-include=/usr/include/finclude/math-vector-fortran.h
REM seed 241176754 -1163297506 -1089483515 -1013065035 -762280275 1691896619 1654326198 507281715 -798761293 1487364978 1855676043 182661058 2269343 1088569714 -2091877917 1111419168 25164716 1390402273 1512272153 -630907561 -1650615593 -1996103542 1504434515 2049652479 -1530622191 -886881288 990725716 -1014560837 -924224044 -172334089 -1150461376 -281758589 -2015402630
REM
CELL 1.54180   15.00000   15.00000   15.00000   90.00000   90.00000   90.00000
LATT -1
SFAC C  
C      1  0.5770800000000  0.5600570000000  0.5483560000000 1.0
C      1  0.4229200000000  0.4399430000000  0.5483560000000 1.0
C      1  0.5850610000000  0.3923170000000  0.3045620000000 1.0
C      1  0.4149400000000  0.6076830000000  0.3045620000000 1.0
C      1  0.5256150000000  0.2455810000000  0.5590000000000 1.0
C      1  0.4743840000000  0.7544180000000  0.5590000000000 1.0
C      1  0.4118500000000  0.4127080000000  0.3679680000000 1.0
C      1  0.5881510000000  0.5872920000000  0.3679690000000 1.0
C      1  0.6152520000000  0.3826020000000  0.4635600000000 1.0
C      1  0.3847480000000  0.6173980000000  0.4635600000000 1.0
C      1  0.6196560000000  0.4921020000000  0.6278680000000 1.0
C      1  0.3803430000000  0.5078980000000  0.6278670000000 1.0
C      1  0.5430680000000  0.5252000000000  0.4544130000000 1.0
C      1  0.4569320000000  0.4748000000000  0.4544130000000 1.0
C      1  0.4804100000000  0.7700750000000  0.6668120000000 1.0
C      1  0.5195890000000  0.2299240000000  0.6668120000000 1.0
C      1  0.7031800000000  0.3508210000000  0.5010280000000 1.0
C      1  0.2968200000000  0.6491790000000  0.5010270000000 1.0
C      1  0.3627410000000  0.6698320000000  0.6149150000000 1.0
C      1  0.6372580000000  0.3301680000000  0.6149160000000 1.0
C      1  0.3249130000000  0.5815120000000  0.6119500000000 1.0
C      1  0.6750860000000  0.4184880000000  0.6119510000000 1.0
C      1  0.7355580000000  0.6911370000000  0.5344950000000 1.0
C      1  0.2644420000000  0.3088620000000  0.5344930000000 1.0
C      1  0.5262160000000  0.3512410000000  0.5131090000000 1.0
C      1  0.4737840000000  0.6487590000000  0.5131100000000 1.0
C      1  0.4448130000000  0.6780410000000  0.6635550000000 1.0
C      1  0.5551860000000  0.3219580000000  0.6635540000000 1.0
C      1  0.2238800000000  0.3923810000000  0.5443440000000 1.0
C      1  0.7761200000000  0.6076190000000  0.5443450000000 1.0
C      1  0.5612840000000  0.2507100000000  0.4335060000000 1.0
C      1  0.4387160000000  0.7492900000000  0.4335060000000 1.0
C      1  0.5462940000000  0.7525630000000  0.4738160000000 1.0
C      1  0.4537060000000  0.2474370000000  0.4738160000000 1.0
C      1  0.6848270000000  0.6110000000000  0.3452720000000 1.0
C      1  0.3151740000000  0.3890010000000  0.3452710000000 1.0
C      1  0.2417470000000  0.4788650000000  0.5069580000000 1.0
C      1  0.7582530000000  0.5211350000000  0.5069600000000 1.0
C      1  0.6439640000000  0.6075340000000  0.4868300000000 1.0
C      1  0.3560360000000  0.3924660000000  0.4868290000000 1.0
C      1  0.6963670000000  0.5347070000000  0.4249330000000 1.0
C      1  0.3036340000000  0.4652930000000  0.4249310000000 1.0
C      1  0.3685070000000  0.7347430000000  0.5217090000000 1.0
C      1  0.6314920000000  0.2652570000000  0.5217100000000 1.0
C      1  0.4499810000000  0.5054750000000  0.3249810000000 1.0
C      1  0.5500200000000  0.4945260000000  0.3249810000000 1.0
C      1  0.3564630000000  0.2910710000000  0.4933910000000 1.0
C      1  0.6435370000000  0.7089290000000  0.4933920000000 1.0
C      1  0.7492790000000  0.4325520000000  0.5435180000000 1.0
C      1  0.2507200000000  0.5674480000000  0.5435160000000 1.0
C      1  0.6204320000000  0.4653780000000  0.4099780000000 1.0
C      1  0.3795680000000  0.5346220000000  0.4099770000000 1.0
C      1  0.5359980000000  0.5298970000000  0.6704110000000 1.0
C      1  0.4640010000000  0.4701020000000  0.6704110000000 1.0
C      1  0.4695000000000  0.3436920000000  0.4156160000000 1.0
C      1  0.5305010000000  0.6563080000000  0.4156160000000 1.0
C      1  0.4395410000000  0.6766380000000  0.3576270000000 1.0
C      1  0.5604600000000  0.3233620000000  0.3576270000000 1.0
C      1  0.5102850000000  0.6166530000000  0.6155200000000 1.0
C      1  0.4897150000000  0.3833460000000  0.6155200000000 1.0
END
