TITL C-3036484-3770-103 -4.26464173573773e-07 3375 -357.635717877606 0 0 60 (C1) n - 1
REM
REM in /home/bkarasulu/work/CARBON/AIRSS/Generating-Clusters/REBO/Higher-Symm/Only-C60
REM
REM
REM
REM
REM
REM ./C.cell (a2850807a9bf4ad07a5b6933b78d9264)
REM AIRSS Version 0.9.1 bugfix July 2018 build 013d7b7c2542+ Fri, 06 Jul 2018 19:26:36 +0100
REM compiler GCC version 9.2.1 20190827 (Red Hat 9.2.1-1)
REM options -cpp -mtune=generic -march=x86-64 -g -O0 -fpre-include=/usr/include/finclude/math-vector-fortran.h
REM seed -1564155900 2079199563 -494554206 438845712 550980830 775713071 101030233 -1254985250 -126102666 1506249408 -1528983993 1651514107 458465913 1900885866 1731200202 -1755401565 -353007920 -1396132401 1267996652 -1063581879 -1001049477 666521452 717515700 -21110092 1854272067 143117933 -880784795 -1258855251 -662513174 64470246 1970398652 1455594935 -1323470108
REM
CELL 1.54180   15.00000   15.00000   15.00000   90.00000   90.00000   90.00000
LATT -1
SFAC C  
C      1  0.5648770000000  0.5131110000000  0.7144820000000 1.0
C      1  0.7065740000000  0.5623430000000  0.4934760000000 1.0
C      1  0.5017580000000  0.7136070000000  0.5698430000000 1.0
C      1  0.4055530000000  0.5065970000000  0.2783790000000 1.0
C      1  0.5867360000000  0.5013360000000  0.2973170000000 1.0
C      1  0.4292020000000  0.4926490000000  0.7093450000000 1.0
C      1  0.2819570000000  0.5657450000000  0.4884480000000 1.0
C      1  0.7211130000000  0.4270210000000  0.5021790000000 1.0
C      1  0.2846850000000  0.4313680000000  0.5087460000000 1.0
C      1  0.5103320000000  0.6873730000000  0.4331630000000 1.0
C      1  0.5118880000000  0.3004490000000  0.4349870000000 1.0
C      1  0.4923840000000  0.2941290000000  0.5678260000000 1.0
C      1  0.7009320000000  0.4981700000000  0.5869580000000 1.0
C      1  0.4844130000000  0.5914970000000  0.7011100000000 1.0
C      1  0.5945470000000  0.7099770000000  0.5047680000000 1.0
C      1  0.2854110000000  0.4858650000000  0.4091690000000 1.0
C      1  0.2870880000000  0.5122150000000  0.5872750000000 1.0
C      1  0.7301490000000  0.4915980000000  0.4093340000000 1.0
C      1  0.4985130000000  0.5709960000000  0.2875810000000 1.0
C      1  0.5111570000000  0.4148960000000  0.7098170000000 1.0
C      1  0.4915330000000  0.4393870000000  0.3045970000000 1.0
C      1  0.4176080000000  0.6942830000000  0.4985800000000 1.0
C      1  0.4137370000000  0.2988890000000  0.4867600000000 1.0
C      1  0.5919360000000  0.3013270000000  0.5137810000000 1.0
C      1  0.2713550000000  0.5783150000000  0.3565160000000 1.0
C      1  0.3591700000000  0.2875430000000  0.5761380000000 1.0
C      1  0.5733250000000  0.3697670000000  0.2856030000000 1.0
C      1  0.7216590000000  0.5720560000000  0.6643430000000 1.0
C      1  0.2830580000000  0.4220410000000  0.6417320000000 1.0
C      1  0.7295430000000  0.4139340000000  0.3321660000000 1.0
C      1  0.6439780000000  0.2993690000000  0.4205400000000 1.0
C      1  0.3404980000000  0.7150180000000  0.4234410000000 1.0
C      1  0.6706140000000  0.7061500000000  0.5817000000000 1.0
C      1  0.4215980000000  0.3596380000000  0.7144820000000 1.0
C      1  0.5769490000000  0.6450870000000  0.7063460000000 1.0
C      1  0.4159170000000  0.6379260000000  0.2956200000000 1.0
C      1  0.3310620000000  0.5861570000000  0.2837760000000 1.0
C      1  0.5774410000000  0.2980670000000  0.3458320000000 1.0
C      1  0.2845760000000  0.3448050000000  0.5791720000000 1.0
C      1  0.6521690000000  0.5818740000000  0.7266950000000 1.0
C      1  0.6580860000000  0.4218020000000  0.2713360000000 1.0
C      1  0.3436120000000  0.4211050000000  0.7134880000000 1.0
C      1  0.4211850000000  0.2879780000000  0.6536580000000 1.0
C      1  0.4223710000000  0.6991580000000  0.3663150000000 1.0
C      1  0.5868580000000  0.7079070000000  0.6371830000000 1.0
C      1  0.7155620000000  0.3600700000000  0.4163000000000 1.0
C      1  0.7240590000000  0.6286160000000  0.5808610000000 1.0
C      1  0.2692010000000  0.6539580000000  0.4221810000000 1.0
C      1  0.3735580000000  0.5539210000000  0.6388320000000 1.0
C      1  0.6483560000000  0.3785640000000  0.5638690000000 1.0
C      1  0.5554470000000  0.6102750000000  0.3665150000000 1.0
C      1  0.6489870000000  0.5484900000000  0.3744970000000 1.0
C      1  0.3674150000000  0.4415560000000  0.3521930000000 1.0
C      1  0.6150240000000  0.4561900000000  0.6385530000000 1.0
C      1  0.3615330000000  0.6125820000000  0.5432960000000 1.0
C      1  0.5547230000000  0.3621760000000  0.6254390000000 1.0
C      1  0.4538940000000  0.3779970000000  0.3880400000000 1.0
C      1  0.4371770000000  0.6453290000000  0.6203380000000 1.0
C      1  0.3572900000000  0.3809290000000  0.4461980000000 1.0
C      1  0.6286650000000  0.6288200000000  0.4488860000000 1.0
END
