TITL C-3036483-1610-969 -0.0156339744176901 3375 -334.20656916526 0 0 60 (C1) n - 1
REM
REM in /home/bkarasulu/work/CARBON/AIRSS/Generating-Clusters/REBO/Higher-Symm/Only-C60
REM
REM
REM
REM
REM
REM ./C.cell (a2850807a9bf4ad07a5b6933b78d9264)
REM AIRSS Version 0.9.1 bugfix July 2018 build 013d7b7c2542+ Fri, 06 Jul 2018 19:26:36 +0100
REM compiler GCC version 9.2.1 20190827 (Red Hat 9.2.1-1)
REM options -cpp -mtune=generic -march=x86-64 -g -O0 -fpre-include=/usr/include/finclude/math-vector-fortran.h
REM seed 1731148686 -2111686394 -1629372861 -1752545042 -1073158077 -2117443689 -1708403673 -1547881734 -1135696615 126682223 1319288070 -344736360 -1220739083 508981882 998656815 1373556587 2010643739 108436860 -503143405 1491474736 41407063 -1150683638 -1579340643 -733523782 511159916 -189082548 14996194 1528587597 1193113781 -891376687 -1139186631 -1579921383 728637389
REM
CELL 1.54180   15.00000   15.00000   15.00000   90.00000   90.00000   90.00000
LATT -1
SFAC C  
C      1  0.1716670000000  0.5060920000000  0.4134750000000 1.0
C      1  0.1689720000000  0.5716430000000  0.5556690000000 1.0
C      1  0.1725720000000  0.4157510000000  0.5413720000000 1.0
C      1  0.3219640000000  0.6446130000000  0.5754070000000 1.0
C      1  0.3191960000000  0.3638280000000  0.5796540000000 1.0
C      1  0.3221810000000  0.5003230000000  0.3342660000000 1.0
C      1  0.6327830000000  0.6900030000000  0.6024120000000 1.0
C      1  0.6293860000000  0.3145970000000  0.6112220000000 1.0
C      1  0.6330060000000  0.4952860000000  0.2817160000000 1.0
C      1  0.4639290000000  0.5407270000000  0.2196090000000 1.0
C      1  0.4626990000000  0.7225810000000  0.6702000000000 1.0
C      1  0.4584600000000  0.2414550000000  0.6019080000000 1.0
C      1  0.4815800000000  0.3882130000000  0.5026310000000 1.0
C      1  0.4837270000000  0.5540580000000  0.3967780000000 1.0
C      1  0.4826340000000  0.5624520000000  0.5934230000000 1.0
C      1  0.4928830000000  0.5023700000000  0.6703250000000 1.0
C      1  0.4932240000000  0.3512150000000  0.4124290000000 1.0
C      1  0.4957800000000  0.6505500000000  0.4100810000000 1.0
C      1  0.6916580000000  0.6956240000000  0.6929910000000 1.0
C      1  0.6887910000000  0.2331700000000  0.5719130000000 1.0
C      1  0.6929260000000  0.5698910000000  0.2312420000000 1.0
C      1  0.5659650000000  0.7096290000000  0.5389610000000 1.0
C      1  0.5619420000000  0.3604980000000  0.6583430000000 1.0
C      1  0.5650660000000  0.4317760000000  0.2967310000000 1.0
C      1  0.5759600000000  0.6762800000000  0.4503330000000 1.0
C      1  0.5725520000000  0.4538780000000  0.6737030000000 1.0
C      1  0.5738810000000  0.3717890000000  0.3701720000000 1.0
C      1  0.3338460000000  0.4693070000000  0.5903330000000 1.0
C      1  0.3346950000000  0.4383850000000  0.4206140000000 1.0
C      1  0.3357330000000  0.6008620000000  0.4786900000000 1.0
C      1  0.6516410000000  0.6404910000000  0.4068770000000 1.0
C      1  0.6488950000000  0.5086760000000  0.6655390000000 1.0
C      1  0.6490980000000  0.3507480000000  0.4230670000000 1.0
C      1  0.3963830000000  0.4770910000000  0.6863270000000 1.0
C      1  0.3973320000000  0.3507610000000  0.3806770000000 1.0
C      1  0.3997870000000  0.6788690000000  0.4239220000000 1.0
C      1  0.4169780000000  0.5552310000000  0.3165580000000 1.0
C      1  0.4156830000000  0.6317490000000  0.6334150000000 1.0
C      1  0.4132430000000  0.3193040000000  0.5410240000000 1.0
C      1  0.6687530000000  0.5849670000000  0.3354650000000 1.0
C      1  0.6669900000000  0.5981390000000  0.6534700000000 1.0
C      1  0.6655550000000  0.3161930000000  0.5067980000000 1.0
C      1  0.3950310000000  0.7110710000000  0.5234600000000 1.0
C      1  0.3909960000000  0.3748360000000  0.6643440000000 1.0
C      1  0.3938910000000  0.4207720000000  0.3029170000000 1.0
C      1  0.4766100000000  0.7314640000000  0.5697110000000 1.0
C      1  0.4721630000000  0.3238100000000  0.6602110000000 1.0
C      1  0.4760650000000  0.4490760000000  0.2622770000000 1.0
C      1  0.3279610000000  0.3380950000000  0.4695900000000 1.0
C      1  0.3312640000000  0.6084300000000  0.3671840000000 1.0
C      1  0.3291050000000  0.5620270000000  0.6526700000000 1.0
C      1  0.4809490000000  0.5016360000000  0.4975070000000 1.0
C      1  0.1407550000000  0.4971460000000  0.5032420000000 1.0
C      1  0.7714100000000  0.4971570000000  0.4993820000000 1.0
C      1  0.6824670000000  0.4987500000000  0.4987390000000 1.0
C      1  0.8603350000000  0.4958150000000  0.5001740000000 1.0
C      1  0.9492360000000  0.4949400000000  0.5012060000000 1.0
C      1  0.3670090000000  0.5025720000000  0.4967500000000 1.0
C      1  0.5943080000000  0.5003620000000  0.4981420000000 1.0
C      1  0.0373188000000  0.4949850000000  0.5023030000000 1.0
END
