TITL C-3036481-494-828 2.99882007468253e-06 3375 -343.504623158981 0 0 60 (C1) n - 1
REM
REM in /home/bkarasulu/work/CARBON/AIRSS/Generating-Clusters/REBO/Higher-Symm/Only-C60
REM
REM
REM
REM
REM
REM ./C.cell (a2850807a9bf4ad07a5b6933b78d9264)
REM AIRSS Version 0.9.1 bugfix July 2018 build 013d7b7c2542+ Fri, 06 Jul 2018 19:26:36 +0100
REM compiler GCC version 9.2.1 20190827 (Red Hat 9.2.1-1)
REM options -cpp -mtune=generic -march=x86-64 -g -O0 -fpre-include=/usr/include/finclude/math-vector-fortran.h
REM seed -1569915156 1371471643 1722590378 -2619166 -287734046 -307953928 -628861378 1441217442 1763570285 1303090836 -1306138415 -707393010 -1679049588 -872623133 -943601340 -1407541136 -2042695668 653173856 -586877219 1190835495 -977021443 154370085 -597096176 348807084 -1834170564 325517776 -460503834 -1791778696 1630258153 1332699873 206367322 1171354451 -482478032
REM
CELL 1.54180   15.00000   15.00000   15.00000   90.00000   90.00000   90.00000
LATT -1
SFAC C  
C      1  0.5331460000000  0.3758640000000  0.3784100000000 1.0
C      1  0.5239260000000  0.6945670000000  0.4356360000000 1.0
C      1  0.5265880000000  0.4455200000000  0.7116530000000 1.0
C      1  0.4537420000000  0.6788580000000  0.3546180000000 1.0
C      1  0.4580070000000  0.5110870000000  0.7120270000000 1.0
C      1  0.4630150000000  0.3046630000000  0.4199580000000 1.0
C      1  0.5726960000000  0.5432760000000  0.2794760000000 1.0
C      1  0.5614620000000  0.6579710000000  0.6428460000000 1.0
C      1  0.5705790000000  0.2869630000000  0.5775080000000 1.0
C      1  0.4448440000000  0.3551070000000  0.5406980000000 1.0
C      1  0.4447680000000  0.5437820000000  0.3531790000000 1.0
C      1  0.4388730000000  0.5860000000000  0.6035920000000 1.0
C      1  0.4065450000000  0.6163750000000  0.5021680000000 1.0
C      1  0.4416400000000  0.4533280000000  0.5928240000000 1.0
C      1  0.4215680000000  0.4464680000000  0.3921750000000 1.0
C      1  0.4155190000000  0.4534700000000  0.2599690000000 1.0
C      1  0.4245350000000  0.7173400000000  0.5862210000000 1.0
C      1  0.4209730000000  0.3197870000000  0.6658370000000 1.0
C      1  0.5256380000000  0.3551680000000  0.6563420000000 1.0
C      1  0.5196600000000  0.4471330000000  0.3000100000000 1.0
C      1  0.5222820000000  0.6973260000000  0.5436690000000 1.0
C      1  0.6199280000000  0.4729680000000  0.3500380000000 1.0
C      1  0.6234450000000  0.6445290000000  0.5527290000000 1.0
C      1  0.6255570000000  0.3773520000000  0.6041720000000 1.0
C      1  0.2819910000000  0.4793380000000  0.4088760000000 1.0
C      1  0.2773500000000  0.5998260000000  0.5290340000000 1.0
C      1  0.2879610000000  0.4324460000000  0.5730660000000 1.0
C      1  0.6182130000000  0.3068430000000  0.3883030000000 1.0
C      1  0.6189270000000  0.6943210000000  0.3951990000000 1.0
C      1  0.6130130000000  0.4880140000000  0.7173430000000 1.0
C      1  0.4933500000000  0.4247670000000  0.4734110000000 1.0
C      1  0.4935180000000  0.5865460000000  0.4405620000000 1.0
C      1  0.4975130000000  0.5232330000000  0.5282100000000 1.0
C      1  0.3734140000000  0.6187490000000  0.3939390000000 1.0
C      1  0.3674950000000  0.5176760000000  0.6498990000000 1.0
C      1  0.3779880000000  0.3615180000000  0.4538910000000 1.0
C      1  0.6149130000000  0.2523660000000  0.4794580000000 1.0
C      1  0.6160120000000  0.6442480000000  0.3014360000000 1.0
C      1  0.6095860000000  0.5942340000000  0.7230090000000 1.0
C      1  0.6607170000000  0.3529240000000  0.5052410000000 1.0
C      1  0.6614680000000  0.5703100000000  0.3746160000000 1.0
C      1  0.6602940000000  0.5709360000000  0.6246020000000 1.0
C      1  0.4341430000000  0.6739990000000  0.6763920000000 1.0
C      1  0.4440290000000  0.2530940000000  0.5871910000000 1.0
C      1  0.4476610000000  0.5512310000000  0.2402580000000 1.0
C      1  0.2907680000000  0.5705720000000  0.4376310000000 1.0
C      1  0.2783900000000  0.5298430000000  0.5956560000000 1.0
C      1  0.2938380000000  0.4133490000000  0.4789540000000 1.0
C      1  0.6611380000000  0.4039140000000  0.4023240000000 1.0
C      1  0.6705920000000  0.6377820000000  0.4671760000000 1.0
C      1  0.6707420000000  0.4569710000000  0.6384430000000 1.0
C      1  0.3344060000000  0.4521030000000  0.3229810000000 1.0
C      1  0.3341480000000  0.6869240000000  0.5475630000000 1.0
C      1  0.3550610000000  0.3869650000000  0.6332120000000 1.0
C      1  0.7311160000000  0.5082120000000  0.5640570000000 1.0
C      1  0.7292930000000  0.4387990000000  0.4786170000000 1.0
C      1  0.7318630000000  0.5482090000000  0.4605070000000 1.0
C      1  0.5059740000000  0.6353820000000  0.2780870000000 1.0
C      1  0.4992550000000  0.6033330000000  0.7211870000000 1.0
C      1  0.5049240000000  0.2461210000000  0.4939140000000 1.0
END
