TITL C-3036479-9801-779 3.79404145222528e-06 3375 -353.71146701986 0 0 60 (C1) n - 1
REM
REM in /home/bkarasulu/work/CARBON/AIRSS/Generating-Clusters/REBO/Higher-Symm/Only-C60
REM
REM
REM
REM
REM
REM ./C.cell (a2850807a9bf4ad07a5b6933b78d9264)
REM AIRSS Version 0.9.1 bugfix July 2018 build 013d7b7c2542+ Fri, 06 Jul 2018 19:26:36 +0100
REM compiler GCC version 9.2.1 20190827 (Red Hat 9.2.1-1)
REM options -cpp -mtune=generic -march=x86-64 -g -O0 -fpre-include=/usr/include/finclude/math-vector-fortran.h
REM seed 2035657727 -2116882452 1384553039 1518742524 -601859741 1753328778 -1795215133 -1538041579 1321805531 -581855787 -1334864194 -1345150917 580151522 1900526623 526028794 967157419 1497939133 2099769649 535717573 -716002675 -1534702249 1172216655 -668736056 -13009103 -450902587 1040040910 -787511919 -2122277891 -413390736 -895405186 -351497091 -1543202148 -327080244
REM
CELL 1.54180   15.00000   15.00000   15.00000   90.00000   90.00000   90.00000
LATT -1
SFAC C  
C      1  0.3432510000000  0.3786350000000  0.6528440000000 1.0
C      1  0.6670630000000  0.3575880000000  0.6516840000000 1.0
C      1  0.5619140000000  0.3441210000000  0.6939060000000 1.0
C      1  0.4486300000000  0.3642300000000  0.6936020000000 1.0
C      1  0.3997980000000  0.6961740000000  0.5834160000000 1.0
C      1  0.5971840000000  0.6808870000000  0.5990710000000 1.0
C      1  0.3900510000000  0.4660420000000  0.2208120000000 1.0
C      1  0.5946270000000  0.4769010000000  0.2209430000000 1.0
C      1  0.3167860000000  0.5083860000000  0.2705120000000 1.0
C      1  0.6733840000000  0.5138930000000  0.2666720000000 1.0
C      1  0.4169660000000  0.4804430000000  0.6105840000000 1.0
C      1  0.5914630000000  0.4637090000000  0.6282590000000 1.0
C      1  0.6433630000000  0.6134410000000  0.2999730000000 1.0
C      1  0.3554650000000  0.6066390000000  0.2998330000000 1.0
C      1  0.5452020000000  0.4111080000000  0.2717000000000 1.0
C      1  0.4460270000000  0.4079040000000  0.2745130000000 1.0
C      1  0.5334290000000  0.5618960000000  0.7346870000000 1.0
C      1  0.4353680000000  0.5834470000000  0.7338620000000 1.0
C      1  0.5551120000000  0.6324210000000  0.2586800000000 1.0
C      1  0.4424440000000  0.6223090000000  0.2509060000000 1.0
C      1  0.6841380000000  0.3707920000000  0.5488740000000 1.0
C      1  0.3227910000000  0.3709300000000  0.5511710000000 1.0
C      1  0.5545060000000  0.3902770000000  0.5701270000000 1.0
C      1  0.4512310000000  0.4013690000000  0.5658670000000 1.0
C      1  0.4522330000000  0.4874280000000  0.4173640000000 1.0
C      1  0.5464500000000  0.4878270000000  0.4146900000000 1.0
C      1  0.7359900000000  0.5454310000000  0.6416140000000 1.0
C      1  0.2649650000000  0.5598530000000  0.6163610000000 1.0
C      1  0.5767700000000  0.4062420000000  0.3649890000000 1.0
C      1  0.4200810000000  0.4042160000000  0.3703930000000 1.0
C      1  0.6927550000000  0.5248750000000  0.4495660000000 1.0
C      1  0.3070410000000  0.5245870000000  0.4530200000000 1.0
C      1  0.6023320000000  0.3174720000000  0.4986730000000 1.0
C      1  0.4082150000000  0.3159910000000  0.5102550000000 1.0
C      1  0.2805750000000  0.5500960000000  0.3635830000000 1.0
C      1  0.7171020000000  0.5508790000000  0.3593100000000 1.0
C      1  0.5919580000000  0.6191730000000  0.6939990000000 1.0
C      1  0.3912590000000  0.6453600000000  0.6844400000000 1.0
C      1  0.2862740000000  0.4440100000000  0.5014010000000 1.0
C      1  0.7168910000000  0.4481190000000  0.5027070000000 1.0
C      1  0.4623160000000  0.7772980000000  0.5966160000000 1.0
C      1  0.5453790000000  0.7695140000000  0.6072910000000 1.0
C      1  0.5500980000000  0.3267810000000  0.4145240000000 1.0
C      1  0.4528330000000  0.3255990000000  0.4193600000000 1.0
C      1  0.3071560000000  0.6433150000000  0.6221090000000 1.0
C      1  0.6843520000000  0.6235130000000  0.6435490000000 1.0
C      1  0.4432850000000  0.6345910000000  0.5117900000000 1.0
C      1  0.5570170000000  0.6313110000000  0.5129610000000 1.0
C      1  0.6964230000000  0.4609000000000  0.6461610000000 1.0
C      1  0.3100820000000  0.4791870000000  0.6277710000000 1.0
C      1  0.6002130000000  0.5491450000000  0.4588440000000 1.0
C      1  0.3992140000000  0.5497740000000  0.4618010000000 1.0
C      1  0.4687210000000  0.5544900000000  0.5752800000000 1.0
C      1  0.5625620000000  0.5467360000000  0.5862330000000 1.0
C      1  0.5733290000000  0.2797590000000  0.6002890000000 1.0
C      1  0.4673190000000  0.2959310000000  0.6053140000000 1.0
C      1  0.4405550000000  0.5390550000000  0.1800520000000 1.0
C      1  0.5389350000000  0.5518420000000  0.1930490000000 1.0
C      1  0.4351460000000  0.4743670000000  0.7176010000000 1.0
C      1  0.5439830000000  0.4517890000000  0.7245500000000 1.0
END
