TITL C-3036479-9801-455 3.42998010066195e-05 3375 -347.779274779247 0 0 60 (S10) n - 1
REM
REM in /home/bkarasulu/work/CARBON/AIRSS/Generating-Clusters/REBO/Higher-Symm/Only-C60
REM
REM
REM
REM
REM
REM ./C.cell (a2850807a9bf4ad07a5b6933b78d9264)
REM AIRSS Version 0.9.1 bugfix July 2018 build 013d7b7c2542+ Fri, 06 Jul 2018 19:26:36 +0100
REM compiler GCC version 9.2.1 20190827 (Red Hat 9.2.1-1)
REM options -cpp -mtune=generic -march=x86-64 -g -O0 -fpre-include=/usr/include/finclude/math-vector-fortran.h
REM seed -2006705164 -1290591402 148317055 1288752411 -2125032216 -875870856 -1633136178 -1015279965 -1893375614 -1833178239 -1116166794 2046423921 -2072169463 -510753772 -1462469561 -1299658462 1455270165 1509022845 -927854927 -1690001123 1949815602 -230119865 445443643 1822870820 2009662898 2064627883 -1077782525 665413659 -320769120 1715915100 -571890828 -771383094 1708152294
REM
CELL 1.54180   15.00000   15.00000   15.00000   90.00000   90.00000   90.00000
LATT -1
SFAC C  
C      1  0.5846130000000  0.5802000000000  0.4532350000000 1.0
C      1  0.5959410000000  0.4198000000000  0.5119010000000 1.0
C      1  0.5706230000000  0.5802000000000  0.5660210000000 1.0
C      1  0.5183290000000  0.4198000000000  0.5949230000000 1.0
C      1  0.4590340000000  0.5802000000000  0.5875680000000 1.0
C      1  0.4153870000000  0.4198000000000  0.5467650000000 1.0
C      1  0.4040590000000  0.5802000000000  0.4880990000000 1.0
C      1  0.4293770000000  0.4198000000000  0.4339790000000 1.0
C      1  0.4816710000000  0.5802000000000  0.4050770000000 1.0
C      1  0.5409660000000  0.4198000000000  0.4124320000000 1.0
C      1  0.3656850000000  0.6652090000000  0.5455530000000 1.0
C      1  0.3645620000000  0.3347910000000  0.4579050000000 1.0
C      1  0.4151710000000  0.6652090000000  0.3863360000000 1.0
C      1  0.4981820000000  0.3347910000000  0.3581830000000 1.0
C      1  0.5818870000000  0.6652090000000  0.3841990000000 1.0
C      1  0.6343150000000  0.3347910000000  0.4544470000000 1.0
C      1  0.6354380000000  0.6652090000000  0.5420950000000 1.0
C      1  0.5848290000000  0.3347910000000  0.6136640000000 1.0
C      1  0.5018180000000  0.6652090000000  0.6418170000000 1.0
C      1  0.4181130000000  0.3347910000000  0.6158010000000 1.0
C      1  0.7449140000000  0.5267350000000  0.5093500000000 1.0
C      1  0.6926440000000  0.4732650000000  0.6515210000000 1.0
C      1  0.5667910000000  0.5267350000000  0.7358160000000 1.0
C      1  0.4154260000000  0.4732650000000  0.7300380000000 1.0
C      1  0.2963650000000  0.5267350000000  0.6363930000000 1.0
C      1  0.2550860000000  0.4732650000000  0.4906500000000 1.0
C      1  0.3073560000000  0.5267350000000  0.3484790000000 1.0
C      1  0.4332090000000  0.4732650000000  0.2641840000000 1.0
C      1  0.5845740000000  0.5267350000000  0.2699620000000 1.0
C      1  0.7036350000000  0.4732650000000  0.3636070000000 1.0
C      1  0.4514620000000  0.2576430000000  0.5687270000000 1.0
C      1  0.4203350000000  0.7423570000000  0.5270710000000 1.0
C      1  0.4196380000000  0.2576430000000  0.4750750000000 1.0
C      1  0.4496360000000  0.7423570000000  0.4326000000000 1.0
C      1  0.4988720000000  0.2576430000000  0.4158690000000 1.0
C      1  0.5485380000000  0.7423570000000  0.4312730000000 1.0
C      1  0.5796650000000  0.2576430000000  0.4729290000000 1.0
C      1  0.5803620000000  0.7423570000000  0.5249250000000 1.0
C      1  0.5503640000000  0.2576430000000  0.5674000000000 1.0
C      1  0.5011280000000  0.7423570000000  0.5841310000000 1.0
C      1  0.7001550000000  0.4468660000000  0.5481760000000 1.0
C      1  0.6336110000000  0.5531340000000  0.6566240000000 1.0
C      1  0.5160330000000  0.4468660000000  0.7052460000000 1.0
C      1  0.3923300000000  0.5531340000000  0.6754710000000 1.0
C      1  0.3097540000000  0.4468660000000  0.5786730000000 1.0
C      1  0.2998450000000  0.5531340000000  0.4518240000000 1.0
C      1  0.3663890000000  0.4468660000000  0.3433760000000 1.0
C      1  0.4839670000000  0.5531340000000  0.2947540000000 1.0
C      1  0.6076700000000  0.4468660000000  0.3245290000000 1.0
C      1  0.6902460000000  0.5531340000000  0.4213270000000 1.0
C      1  0.7118830000000  0.6305810000000  0.5008300000000 1.0
C      1  0.6709290000000  0.3694190000000  0.6252130000000 1.0
C      1  0.5646860000000  0.6305810000000  0.7017690000000 1.0
C      1  0.4337350000000  0.3694190000000  0.7012560000000 1.0
C      1  0.3280950000000  0.6305810000000  0.6238700000000 1.0
C      1  0.2881170000000  0.3694190000000  0.4991700000000 1.0
C      1  0.3290710000000  0.6305810000000  0.3747870000000 1.0
C      1  0.4353140000000  0.3694190000000  0.2982310000000 1.0
C      1  0.5662650000000  0.6305810000000  0.2987440000000 1.0
C      1  0.6719050000000  0.3694190000000  0.3761300000000 1.0
END
