TITL C-3036479-9801-971 0.0241527109239864 3375 -361.173226999156 0 0 60 (C1) n - 1
REM
REM in /home/bkarasulu/work/CARBON/AIRSS/Generating-Clusters/REBO/Higher-Symm/Only-C60
REM
REM
REM
REM
REM
REM ./C.cell (a2850807a9bf4ad07a5b6933b78d9264)
REM AIRSS Version 0.9.1 bugfix July 2018 build 013d7b7c2542+ Fri, 06 Jul 2018 19:26:36 +0100
REM compiler GCC version 9.2.1 20190827 (Red Hat 9.2.1-1)
REM options -cpp -mtune=generic -march=x86-64 -g -O0 -fpre-include=/usr/include/finclude/math-vector-fortran.h
REM seed -1265690689 -293574601 449931196 1266053852 1881979756 740147127 -302180567 1218065213 -660931678 -777755653 -571291994 1276131424 734082703 80363551 -1304740749 43616881 -429450591 537397160 -2045548234 407214330 604304549 364588865 -137935062 -1958579592 371572224 1124233477 -1945391515 -1378538235 -2144943071 1263260017 -1023120571 -28143136 -1166480663
REM
CELL 1.54180   15.00000   15.00000   15.00000   90.00000   90.00000   90.00000
LATT -1
SFAC C  
C      1  0.6882080000000  0.6750650000000  0.5839300000000 1.0
C      1  0.6929780000000  0.5479670000000  0.6935940000000 1.0
C      1  0.7093870000000  0.3854140000000  0.6678760000000 1.0
C      1  0.7086290000000  0.3028940000000  0.5238550000000 1.0
C      1  0.6921720000000  0.3619650000000  0.3700270000000 1.0
C      1  0.6878800000000  0.5200180000000  0.3145530000000 1.0
C      1  0.6591880000000  0.6299700000000  0.4309270000000 1.0
C      1  0.4392900000000  0.6253300000000  0.3375930000000 1.0
C      1  0.4379830000000  0.7073190000000  0.4930770000000 1.0
C      1  0.4432640000000  0.6408500000000  0.6553090000000 1.0
C      1  0.4572820000000  0.4681980000000  0.7015730000000 1.0
C      1  0.4755970000000  0.3328200000000  0.5932500000000 1.0
C      1  0.4597370000000  0.3190080000000  0.4185500000000 1.0
C      1  0.4464450000000  0.4538330000000  0.3014770000000 1.0
C      1  0.5124930000000  0.2412080000000  0.4115450000000 1.0
C      1  0.5054750000000  0.4163810000000  0.2382310000000 1.0
C      1  0.5055700000000  0.6571690000000  0.2782600000000 1.0
C      1  0.5045530000000  0.7742630000000  0.4909950000000 1.0
C      1  0.5037630000000  0.6806810000000  0.7155600000000 1.0
C      1  0.5117250000000  0.4417460000000  0.7737800000000 1.0
C      1  0.5245130000000  0.2657380000000  0.6357670000000 1.0
C      1  0.4777220000000  0.5710480000000  0.4106250000000 1.0
C      1  0.4770650000000  0.6163970000000  0.4973590000000 1.0
C      1  0.4887280000000  0.5833920000000  0.5896190000000 1.0
C      1  0.5085520000000  0.4927060000000  0.6242420000000 1.0
C      1  0.5346050000000  0.4070380000000  0.5527670000000 1.0
C      1  0.5117820000000  0.3965170000000  0.4410820000000 1.0
C      1  0.4923630000000  0.4766060000000  0.3854970000000 1.0
C      1  0.5957820000000  0.7694080000000  0.4894630000000 1.0
C      1  0.5945810000000  0.6736510000000  0.7155150000000 1.0
C      1  0.6030200000000  0.4411870000000  0.7756670000000 1.0
C      1  0.6146600000000  0.2574690000000  0.6456650000000 1.0
C      1  0.6033340000000  0.2368280000000  0.4202520000000 1.0
C      1  0.5955280000000  0.4056730000000  0.2480090000000 1.0
C      1  0.5966870000000  0.6504690000000  0.2806370000000 1.0
C      1  0.3220000000000  0.4146800000000  0.5471420000000 1.0
C      1  0.3144460000000  0.4112620000000  0.4506270000000 1.0
C      1  0.2999890000000  0.4840890000000  0.3864690000000 1.0
C      1  0.2882720000000  0.5814690000000  0.4042880000000 1.0
C      1  0.2869290000000  0.6275900000000  0.4939820000000 1.0
C      1  0.2971080000000  0.5855080000000  0.5840450000000 1.0
C      1  0.3122760000000  0.4909500000000  0.6060740000000 1.0
C      1  0.6666570000000  0.4276660000000  0.3068880000000 1.0
C      1  0.6634450000000  0.6104260000000  0.3353050000000 1.0
C      1  0.6638030000000  0.7030940000000  0.4954570000000 1.0
C      1  0.6666710000000  0.6350370000000  0.6674490000000 1.0
C      1  0.6769910000000  0.4581710000000  0.7185910000000 1.0
C      1  0.6878450000000  0.3098640000000  0.6156340000000 1.0
C      1  0.6765570000000  0.2954110000000  0.4353680000000 1.0
C      1  0.3666450000000  0.3379420000000  0.4146790000000 1.0
C      1  0.3520420000000  0.4676660000000  0.3056470000000 1.0
C      1  0.3439320000000  0.6316970000000  0.3415470000000 1.0
C      1  0.3422760000000  0.7080340000000  0.4903860000000 1.0
C      1  0.3484570000000  0.6420800000000  0.6445890000000 1.0
C      1  0.3637940000000  0.4782010000000  0.6873000000000 1.0
C      1  0.3836110000000  0.3489740000000  0.5817970000000 1.0
C      1  0.6190940000000  0.5566580000000  0.4731170000000 1.0
C      1  0.4442610000000  0.4879310000000  0.5087510000000 1.0
C      1  0.5516310000000  0.5063020000000  0.5009550000000 1.0
C      1  0.3703580000000  0.5254100000000  0.4911450000000 1.0
END
