TITL C-3036486-2224-590 -0.0258056493366956 3375 -353.075840260312 0 0 60 (C5) n - 1
REM
REM in /home/bkarasulu/work/CARBON/AIRSS/Generating-Clusters/REBO/Higher-Symm/Only-C60
REM
REM
REM
REM
REM
REM ./C.cell (a2850807a9bf4ad07a5b6933b78d9264)
REM AIRSS Version 0.9.1 bugfix July 2018 build 013d7b7c2542+ Fri, 06 Jul 2018 19:26:36 +0100
REM compiler GCC version 9.2.1 20190827 (Red Hat 9.2.1-1)
REM options -cpp -mtune=generic -march=x86-64 -g -O0 -fpre-include=/usr/include/finclude/math-vector-fortran.h
REM seed 1566386043 855692056 981137752 1402575528 2045230175 -1291286755 -2004766848 -1152394919 -656153037 -306466184 -539230395 -1972471213 92415771 -491727102 1923187586 2030413172 1124378714 847612281 1483282487 -219180807 -831392771 -64537752 -761490670 1210736540 -320955711 1580409671 1937780793 -1317218026 404482989 1910629600 -439630276 -1461446776 1913677863
REM
CELL 1.54180   15.00000   15.00000   15.00000   90.00000   90.00000   90.00000
LATT -1
SFAC C  
C      1  0.4539920000000  0.5823140000000  0.2717250000000 1.0
C      1  0.4074740000000  0.4817090000000  0.2717460000000 1.0
C      1  0.4887630000000  0.4063700000000  0.2717200000000 1.0
C      1  0.5855710000000  0.4604040000000  0.2717130000000 1.0
C      1  0.5640840000000  0.5691440000000  0.2717070000000 1.0
C      1  0.4539920000000  0.5823140000000  0.7282750000000 1.0
C      1  0.4074740000000  0.4817090000000  0.7282540000000 1.0
C      1  0.4887630000000  0.4063700000000  0.7282800000000 1.0
C      1  0.5855710000000  0.4604040000000  0.7282870000000 1.0
C      1  0.5640840000000  0.5691440000000  0.7282930000000 1.0
C      1  0.6298500000000  0.3179630000000  0.4520230000000 1.0
C      1  0.7132290000000  0.5672350000000  0.4520260000000 1.0
C      1  0.5019600000000  0.7235640000000  0.4520630000000 1.0
C      1  0.2878580000000  0.5709900000000  0.4520310000000 1.0
C      1  0.3669800000000  0.3202230000000  0.4520200000000 1.0
C      1  0.6298500000000  0.3179630000000  0.5479770000000 1.0
C      1  0.7132290000000  0.5672350000000  0.5479740000000 1.0
C      1  0.5019600000000  0.7235580000000  0.5479370000000 1.0
C      1  0.2878570000000  0.5709900000000  0.5479690000000 1.0
C      1  0.3669790000000  0.3202230000000  0.5479800000000 1.0
C      1  0.5882520000000  0.5224040000000  0.4437040000000 1.0
C      1  0.5059580000000  0.5908140000000  0.4437430000000 1.0
C      1  0.4156070000000  0.5336620000000  0.4437270000000 1.0
C      1  0.4418040000000  0.4300800000000  0.4437100000000 1.0
C      1  0.5485590000000  0.4230040000000  0.4436860000000 1.0
C      1  0.5882520000000  0.5224040000000  0.5562960000000 1.0
C      1  0.5059590000000  0.5908210000000  0.5562570000000 1.0
C      1  0.4156070000000  0.5336620000000  0.5562730000000 1.0
C      1  0.4418040000000  0.4300810000000  0.5562900000000 1.0
C      1  0.5485590000000  0.4230040000000  0.5563140000000 1.0
C      1  0.6906600000000  0.3838540000000  0.4160830000000 1.0
C      1  0.6693860000000  0.6454100000000  0.4160900000000 1.0
C      1  0.4140770000000  0.7060410000000  0.4160920000000 1.0
C      1  0.2774890000000  0.4819150000000  0.4160830000000 1.0
C      1  0.4484460000000  0.2828060000000  0.4160930000000 1.0
C      1  0.6906600000000  0.3838540000000  0.5839170000000 1.0
C      1  0.6693860000000  0.6454100000000  0.5839100000000 1.0
C      1  0.4140780000000  0.7060410000000  0.5839080000000 1.0
C      1  0.2774890000000  0.4819150000000  0.5839170000000 1.0
C      1  0.4484460000000  0.2828060000000  0.5839070000000 1.0
C      1  0.3464240000000  0.6410530000000  0.5939350000000 1.0
C      1  0.3184190000000  0.3975070000000  0.5939550000000 1.0
C      1  0.5413650000000  0.2956540000000  0.5939380000000 1.0
C      1  0.7071050000000  0.4762160000000  0.5939800000000 1.0
C      1  0.5866860000000  0.6896460000000  0.5940100000000 1.0
C      1  0.3464240000000  0.6410530000000  0.4060650000000 1.0
C      1  0.3184190000000  0.3975070000000  0.4060450000000 1.0
C      1  0.5413650000000  0.2956540000000  0.4060620000000 1.0
C      1  0.7071050000000  0.4762160000000  0.4060200000000 1.0
C      1  0.5866870000000  0.6896470000000  0.4059890000000 1.0
C      1  0.5673960000000  0.3802240000000  0.3463470000000 1.0
C      1  0.6347680000000  0.5270590000000  0.3463490000000 1.0
C      1  0.5159160000000  0.6365690000000  0.3463760000000 1.0
C      1  0.3750480000000  0.5572920000000  0.3463690000000 1.0
C      1  0.4068750000000  0.3988730000000  0.3463660000000 1.0
C      1  0.5673960000000  0.3802240000000  0.6536530000000 1.0
C      1  0.6347680000000  0.5270590000000  0.6536510000000 1.0
C      1  0.5159160000000  0.6365690000000  0.6536240000000 1.0
C      1  0.3750480000000  0.5572920000000  0.6536310000000 1.0
C      1  0.4068750000000  0.3988730000000  0.6536340000000 1.0
END
