TITL C-3036483-1610-1081 -1.16980573388233e-05 3375 -333.459040481974 0 0 60 (C3) n - 1
REM
REM in /home/bkarasulu/work/CARBON/AIRSS/Generating-Clusters/REBO/Higher-Symm/Only-C60
REM
REM
REM
REM
REM
REM ./C.cell (a2850807a9bf4ad07a5b6933b78d9264)
REM AIRSS Version 0.9.1 bugfix July 2018 build 013d7b7c2542+ Fri, 06 Jul 2018 19:26:36 +0100
REM compiler GCC version 9.2.1 20190827 (Red Hat 9.2.1-1)
REM options -cpp -mtune=generic -march=x86-64 -g -O0 -fpre-include=/usr/include/finclude/math-vector-fortran.h
REM seed 438669082 -1245681368 1514799728 1234554797 -348466358 1263364681 825763255 -836487842 283318696 2008622389 -733482786 469601561 -717144685 -1805931226 -258607916 1840695366 -114731888 -601638901 800269587 -1229368402 327669056 -777638894 906741813 1549617734 -2068472258 1449144552 125804075 -567059936 119197023 979041984 1063153035 120009700 -869579849
REM
CELL 1.54180   15.00000   15.00000   15.00000   90.00000   90.00000   90.00000
LATT -1
SFAC C  
C      1  0.3587780000000  0.4665960000000  0.5955540000000 1.0
C      1  0.6533620000000  0.4665830000000  0.5745230000000 1.0
C      1  0.4878570000000  0.4665970000000  0.3299200000000 1.0
C      1  0.5619200000000  0.6330070000000  0.7200210000000 1.0
C      1  0.6595890000000  0.6330120000000  0.3363740000000 1.0
C      1  0.2785070000000  0.6330250000000  0.4436130000000 1.0
C      1  0.2663950000000  0.6201390000000  0.5562050000000 1.0
C      1  0.6654830000000  0.6201200000000  0.6742140000000 1.0
C      1  0.5681370000000  0.6201320000000  0.2695890000000 1.0
C      1  0.5629110000000  0.6894960000000  0.6256870000000 1.0
C      1  0.5774000000000  0.6895010000000  0.3826860000000 1.0
C      1  0.3597120000000  0.6895080000000  0.4916390000000 1.0
C      1  0.4070460000000  0.5441800000000  0.5420790000000 1.0
C      1  0.5829210000000  0.5441720000000  0.5594640000000 1.0
C      1  0.5100400000000  0.5441780000000  0.3984600000000 1.0
C      1  0.5104300000000  0.4636990000000  0.5641070000000 1.0
C      1  0.5503020000000  0.4636990000000  0.4589130000000 1.0
C      1  0.4392650000000  0.4637040000000  0.4769790000000 1.0
C      1  0.2714950000000  0.4442870000000  0.4346180000000 1.0
C      1  0.5576280000000  0.4442690000000  0.7305790000000 1.0
C      1  0.6708700000000  0.4442730000000  0.3347990000000 1.0
C      1  0.7267910000000  0.6278480000000  0.4146260000000 1.0
C      1  0.3126740000000  0.6278650000000  0.3462890000000 1.0
C      1  0.4605510000000  0.6278510000000  0.7390940000000 1.0
C      1  0.3854660000000  0.6239340000000  0.6890810000000 1.0
C      1  0.7210200000000  0.6239260000000  0.5046570000000 1.0
C      1  0.3935280000000  0.6239410000000  0.3062700000000 1.0
C      1  0.2392100000000  0.5363340000000  0.4880370000000 1.0
C      1  0.6200360000000  0.5363120000000  0.7318340000000 1.0
C      1  0.6407580000000  0.5363210000000  0.2801310000000 1.0
C      1  0.2612980000000  0.4428480000000  0.5476340000000 1.0
C      1  0.6606010000000  0.4428280000000  0.6829010000000 1.0
C      1  0.5780940000000  0.4428410000000  0.2694600000000 1.0
C      1  0.6033550000000  0.3724160000000  0.5858390000000 1.0
C      1  0.5226550000000  0.3724260000000  0.3675630000000 1.0
C      1  0.3739740000000  0.3724270000000  0.5465890000000 1.0
C      1  0.6652360000000  0.3268060000000  0.4771180000000 1.0
C      1  0.3975580000000  0.3268200000000  0.3683300000000 1.0
C      1  0.4371840000000  0.3268120000000  0.6545410000000 1.0
C      1  0.3150400000000  0.4568170000000  0.3389970000000 1.0
C      1  0.4530460000000  0.4568020000000  0.7406800000000 1.0
C      1  0.7319100000000  0.4567970000000  0.4203210000000 1.0
C      1  0.3456850000000  0.6044590000000  0.6069390000000 1.0
C      1  0.6697740000000  0.6044470000000  0.5801780000000 1.0
C      1  0.4845540000000  0.6044580000000  0.3128890000000 1.0
C      1  0.7086340000000  0.3481120000000  0.6624600000000 1.0
C      1  0.5363710000000  0.3481300000000  0.2380760000000 1.0
C      1  0.2549760000000  0.3481330000000  0.5994530000000 1.0
C      1  0.5202170000000  0.6397820000000  0.4393850000000 1.0
C      1  0.4374040000000  0.6397840000000  0.5128090000000 1.0
C      1  0.5423980000000  0.6397790000000  0.5478160000000 1.0
C      1  0.7237290000000  0.4646570000000  0.5015960000000 1.0
C      1  0.3895160000000  0.4646780000000  0.3054440000000 1.0
C      1  0.3867500000000  0.4646680000000  0.6929570000000 1.0
C      1  0.3463880000000  0.3018760000000  0.6171150000000 1.0
C      1  0.6782220000000  0.3018620000000  0.5744610000000 1.0
C      1  0.4753650000000  0.3018780000000  0.3084110000000 1.0
C      1  0.6151910000000  0.3927120000000  0.4149950000000 1.0
C      1  0.3687840000000  0.3927220000000  0.4427370000000 1.0
C      1  0.5160120000000  0.3927110000000  0.6422610000000 1.0
END
