TITL C-3036485-3770-617 8.8179129466281e-06 3375 -317.688457299844 0 0 60 (Th) n - 1
REM
REM in /home/bkarasulu/work/CARBON/AIRSS/Generating-Clusters/REBO/Higher-Symm/Only-C60
REM
REM
REM
REM
REM
REM ./C.cell (a2850807a9bf4ad07a5b6933b78d9264)
REM AIRSS Version 0.9.1 bugfix July 2018 build 013d7b7c2542+ Fri, 06 Jul 2018 19:26:36 +0100
REM compiler GCC version 9.2.1 20190827 (Red Hat 9.2.1-1)
REM options -cpp -mtune=generic -march=x86-64 -g -O0 -fpre-include=/usr/include/finclude/math-vector-fortran.h
REM seed 1500174184 556192666 365032572 -1914557006 -2059282770 653427783 -1622452667 -193874742 1756394128 -1584435415 -2113805570 -1540427065 1483795201 -1303627533 543749190 -2132104985 -504187753 2027116129 1575290856 2124729828 -1675764802 866670903 1732159025 1002975699 1389516146 816548660 194227845 360881673 1040829072 -1446638969 -189796302 -800004998 2050445477
REM
CELL 1.54180   15.00000   15.00000   15.00000   90.00000   90.00000   90.00000
LATT -1
SFAC C  
C      1  0.6410920000000  0.5982650000000  0.5485160000000 1.0
C      1  0.5982640000000  0.5485170000000  0.6410910000000 1.0
C      1  0.5485160000000  0.6410920000000  0.5982640000000 1.0
C      1  0.6410920000000  0.4017360000000  0.4514840000000 1.0
C      1  0.3589080000000  0.5982640000000  0.4514840000000 1.0
C      1  0.3589090000000  0.4017350000000  0.5485170000000 1.0
C      1  0.5982640000000  0.4514840000000  0.3589080000000 1.0
C      1  0.4017350000000  0.5485160000000  0.3589080000000 1.0
C      1  0.4017360000000  0.4514840000000  0.6410920000000 1.0
C      1  0.5485160000000  0.3589080000000  0.4017360000000 1.0
C      1  0.4514830000000  0.6410910000000  0.4017360000000 1.0
C      1  0.4514840000000  0.3589080000000  0.5982650000000 1.0
C      1  0.3589080000000  0.5982640000000  0.5485160000000 1.0
C      1  0.4017360000000  0.5485160000000  0.6410920000000 1.0
C      1  0.4514840000000  0.6410920000000  0.5982640000000 1.0
C      1  0.3589080000000  0.4017350000000  0.4514840000000 1.0
C      1  0.6410910000000  0.5982650000000  0.4514830000000 1.0
C      1  0.6410920000000  0.4017360000000  0.5485160000000 1.0
C      1  0.4017360000000  0.4514830000000  0.3589080000000 1.0
C      1  0.5982640000000  0.5485160000000  0.3589080000000 1.0
C      1  0.5982650000000  0.4514840000000  0.6410920000000 1.0
C      1  0.4514840000000  0.3589080000000  0.4017360000000 1.0
C      1  0.5485160000000  0.6410920000000  0.4017350000000 1.0
C      1  0.5485170000000  0.3589090000000  0.5982640000000 1.0
C      1  0.2776000000000  0.5530610000000  0.5930390000000 1.0
C      1  0.5530600000000  0.5930390000000  0.2775990000000 1.0
C      1  0.5930400000000  0.2776000000000  0.5530610000000 1.0
C      1  0.2776000000000  0.4469390000000  0.4069610000000 1.0
C      1  0.7224000000000  0.5530610000000  0.4069600000000 1.0
C      1  0.7224010000000  0.4469400000000  0.5930390000000 1.0
C      1  0.5530610000000  0.4069610000000  0.7224000000000 1.0
C      1  0.4469390000000  0.5930400000000  0.7224000000000 1.0
C      1  0.4469390000000  0.4069600000000  0.2776000000000 1.0
C      1  0.5930390000000  0.7224000000000  0.4469390000000 1.0
C      1  0.4069610000000  0.2775990000000  0.4469390000000 1.0
C      1  0.4069600000000  0.7224000000000  0.5530610000000 1.0
C      1  0.7224000000000  0.5530610000000  0.5930390000000 1.0
C      1  0.4469390000000  0.5930390000000  0.2776000000000 1.0
C      1  0.4069610000000  0.2776000000000  0.5530610000000 1.0
C      1  0.7224000000000  0.4469390000000  0.4069610000000 1.0
C      1  0.2775990000000  0.5530600000000  0.4069610000000 1.0
C      1  0.2776000000000  0.4469390000000  0.5930400000000 1.0
C      1  0.4469390000000  0.4069610000000  0.7224010000000 1.0
C      1  0.5530610000000  0.5930400000000  0.7224000000000 1.0
C      1  0.5530610000000  0.4069610000000  0.2776000000000 1.0
C      1  0.4069600000000  0.7224000000000  0.4469390000000 1.0
C      1  0.5930400000000  0.2776000000000  0.4469390000000 1.0
C      1  0.5930390000000  0.7224010000000  0.5530610000000 1.0
C      1  0.5000000000000  0.6381570000000  0.1951930000000 1.0
C      1  0.8048070000000  0.5000000000000  0.3618420000000 1.0
C      1  0.5000010000000  0.3618430000000  0.8048070000000 1.0
C      1  0.5000000000000  0.6381580000000  0.8048070000000 1.0
C      1  0.3618420000000  0.8048060000000  0.5000000000000 1.0
C      1  0.1951930000000  0.5000000000000  0.6381580000000 1.0
C      1  0.5000000000000  0.3618420000000  0.1951940000000 1.0
C      1  0.6381580000000  0.1951940000000  0.5000000000000 1.0
C      1  0.6381570000000  0.8048070000000  0.5000000000000 1.0
C      1  0.3618430000000  0.1951930000000  0.5000000000000 1.0
C      1  0.1951930000000  0.4999990000000  0.3618420000000 1.0
C      1  0.8048070000000  0.5000010000000  0.6381570000000 1.0
END
