TITL C-3036483-1610-1042 2.78940880030537e-06 3375 -330.456786488842 0 0 60 (Td) n - 1
REM
REM in /home/bkarasulu/work/CARBON/AIRSS/Generating-Clusters/REBO/Higher-Symm/Only-C60
REM
REM
REM
REM
REM
REM ./C.cell (a2850807a9bf4ad07a5b6933b78d9264)
REM AIRSS Version 0.9.1 bugfix July 2018 build 013d7b7c2542+ Fri, 06 Jul 2018 19:26:36 +0100
REM compiler GCC version 9.2.1 20190827 (Red Hat 9.2.1-1)
REM options -cpp -mtune=generic -march=x86-64 -g -O0 -fpre-include=/usr/include/finclude/math-vector-fortran.h
REM seed -1498259246 -1832297652 -1295427856 486609017 -146810973 1755857731 -1885278212 331292120 -1203649494 532642037 1075679636 -1266336122 -2053940042 1358748007 -355184724 -1941582354 -562914206 262030584 -1752066436 1063813280 -520273682 1719395044 -1299518331 -196106930 191614397 -25449654 934936663 84926768 -1606073767 666486688 -1072992580 -436804324 391862510
REM
CELL 1.54180   15.00000   15.00000   15.00000   90.00000   90.00000   90.00000
LATT -1
SFAC C  
C      1  0.2771780000000  0.6425030000000  0.5147800000000 1.0
C      1  0.6425030000000  0.5147800000000  0.2771780000000 1.0
C      1  0.5147800000000  0.2771780000000  0.6425030000000 1.0
C      1  0.7228220000000  0.3574970000000  0.5147800000000 1.0
C      1  0.2771780000000  0.3574970000000  0.4852200000000 1.0
C      1  0.7228220000000  0.6425030000000  0.4852200000000 1.0
C      1  0.3574970000000  0.4852200000000  0.2771780000000 1.0
C      1  0.6425030000000  0.4852200000000  0.7228220000000 1.0
C      1  0.3574970000000  0.5147800000000  0.7228220000000 1.0
C      1  0.4852200000000  0.7228220000000  0.6425030000000 1.0
C      1  0.5147800000000  0.7228220000000  0.3574970000000 1.0
C      1  0.4852200000000  0.2771780000000  0.3574970000000 1.0
C      1  0.6425030000000  0.2771780000000  0.5147800000000 1.0
C      1  0.5147800000000  0.6425030000000  0.2771780000000 1.0
C      1  0.2771780000000  0.5147800000000  0.6425030000000 1.0
C      1  0.3574970000000  0.7228220000000  0.5147800000000 1.0
C      1  0.3574970000000  0.2771780000000  0.4852200000000 1.0
C      1  0.6425030000000  0.7228220000000  0.4852200000000 1.0
C      1  0.4852200000000  0.3574970000000  0.2771780000000 1.0
C      1  0.4852200000000  0.6425030000000  0.7228220000000 1.0
C      1  0.5147800000000  0.3574970000000  0.7228220000000 1.0
C      1  0.7228220000000  0.4852200000000  0.6425030000000 1.0
C      1  0.7228220000000  0.5147800000000  0.3574970000000 1.0
C      1  0.2771780000000  0.4852200000000  0.3574970000000 1.0
C      1  0.4277030000000  0.3582140000000  0.5006880000000 1.0
C      1  0.3582140000000  0.5006880000000  0.4277030000000 1.0
C      1  0.5006880000000  0.4277030000000  0.3582140000000 1.0
C      1  0.5722970000000  0.6417860000000  0.5006880000000 1.0
C      1  0.4277030000000  0.6417860000000  0.4993120000000 1.0
C      1  0.5722970000000  0.3582140000000  0.4993120000000 1.0
C      1  0.6417860000000  0.4993120000000  0.4277030000000 1.0
C      1  0.3582140000000  0.4993120000000  0.5722970000000 1.0
C      1  0.6417860000000  0.5006880000000  0.5722970000000 1.0
C      1  0.4993120000000  0.5722970000000  0.3582140000000 1.0
C      1  0.5006880000000  0.5722970000000  0.6417860000000 1.0
C      1  0.4993120000000  0.4277030000000  0.6417860000000 1.0
C      1  0.3582140000000  0.4277030000000  0.5006880000000 1.0
C      1  0.5006880000000  0.3582140000000  0.4277030000000 1.0
C      1  0.4277030000000  0.5006880000000  0.3582140000000 1.0
C      1  0.6417860000000  0.5722970000000  0.5006880000000 1.0
C      1  0.6417860000000  0.4277030000000  0.4993120000000 1.0
C      1  0.3582140000000  0.5722970000000  0.4993120000000 1.0
C      1  0.4993120000000  0.6417860000000  0.4277030000000 1.0
C      1  0.4993120000000  0.3582140000000  0.5722970000000 1.0
C      1  0.5006880000000  0.6417860000000  0.5722970000000 1.0
C      1  0.5722970000000  0.4993120000000  0.3582140000000 1.0
C      1  0.5722970000000  0.5006880000000  0.6417860000000 1.0
C      1  0.4277030000000  0.4993120000000  0.6417860000000 1.0
C      1  0.2360940000000  0.5396090000000  0.5396090000000 1.0
C      1  0.5396090000000  0.5396090000000  0.2360940000000 1.0
C      1  0.5396090000000  0.2360940000000  0.5396090000000 1.0
C      1  0.7639060000000  0.4603910000000  0.5396090000000 1.0
C      1  0.2360940000000  0.4603910000000  0.4603910000000 1.0
C      1  0.7639060000000  0.5396090000000  0.4603910000000 1.0
C      1  0.5396090000000  0.4603910000000  0.7639060000000 1.0
C      1  0.4603910000000  0.5396090000000  0.7639060000000 1.0
C      1  0.4603910000000  0.7639060000000  0.5396090000000 1.0
C      1  0.5396090000000  0.7639060000000  0.4603910000000 1.0
C      1  0.4603910000000  0.2360940000000  0.4603910000000 1.0
C      1  0.4603910000000  0.4603910000000  0.2360940000000 1.0
END
