TITL C-3036479-9801-355 3.12632410890519e-05 3375 -369.985564200924 0 0 60 (C6) n - 1
REM
REM in /home/bkarasulu/work/CARBON/AIRSS/Generating-Clusters/REBO/Higher-Symm/Only-C60
REM
REM
REM
REM
REM
REM ./C.cell (a2850807a9bf4ad07a5b6933b78d9264)
REM AIRSS Version 0.9.1 bugfix July 2018 build 013d7b7c2542+ Fri, 06 Jul 2018 19:26:36 +0100
REM compiler GCC version 9.2.1 20190827 (Red Hat 9.2.1-1)
REM options -cpp -mtune=generic -march=x86-64 -g -O0 -fpre-include=/usr/include/finclude/math-vector-fortran.h
REM seed -942293400 119730684 -1944141086 -1533818508 997338059 -727304018 -1364913556 -994570817 -993150442 -957414370 -2121525358 185592642 1489911681 -119340537 1356029076 -1763216424 -575389642 947015923 -479556072 -1951359048 -854976736 -2113243735 1579776227 -990802305 -177797922 1924232987 964169650 1601703042 -2048754250 698908422 891586500 153471244 642683858
REM
CELL 1.54180   15.00000   15.00000   15.00000   90.00000   90.00000   90.00000
LATT -1
SFAC C  
C      1  0.4309810000000  0.4344820000000  0.4371860000000 1.0
C      1  0.5222300000000  0.4074680000000  0.4371860000000 1.0
C      1  0.5912500000000  0.4729860000000  0.4371860000000 1.0
C      1  0.5690200000000  0.5655180000000  0.4371860000000 1.0
C      1  0.4777700000000  0.5925320000000  0.4371860000000 1.0
C      1  0.4087500000000  0.5270140000000  0.4371860000000 1.0
C      1  0.5690190000000  0.4344820000000  0.5628140000000 1.0
C      1  0.4777700000000  0.4074680000000  0.5628140000000 1.0
C      1  0.4087500000000  0.4729860000000  0.5628140000000 1.0
C      1  0.4309800000000  0.5655180000000  0.5628140000000 1.0
C      1  0.5222300000000  0.5925320000000  0.5628140000000 1.0
C      1  0.5912500000000  0.5270140000000  0.5628140000000 1.0
C      1  0.5918860000000  0.5260930000000  0.2968350000000 1.0
C      1  0.5233460000000  0.5926220000000  0.2968350000000 1.0
C      1  0.4314600000000  0.5665290000000  0.2968350000000 1.0
C      1  0.4081140000000  0.4739070000000  0.2968350000000 1.0
C      1  0.4766540000000  0.4073780000000  0.2968350000000 1.0
C      1  0.5685400000000  0.4334710000000  0.2968350000000 1.0
C      1  0.4081140000000  0.5260930000000  0.7031650000000 1.0
C      1  0.4766540000000  0.5926220000000  0.7031650000000 1.0
C      1  0.5685400000000  0.5665290000000  0.7031650000000 1.0
C      1  0.5918860000000  0.4739070000000  0.7031650000000 1.0
C      1  0.5233460000000  0.4073780000000  0.7031650000000 1.0
C      1  0.4314600000000  0.4334710000000  0.7031650000000 1.0
C      1  0.2892560000000  0.4656530000000  0.4183040000000 1.0
C      1  0.4243730000000  0.3003170000000  0.4183040000000 1.0
C      1  0.6351170000000  0.3346640000000  0.4183040000000 1.0
C      1  0.7107440000000  0.5343470000000  0.4183040000000 1.0
C      1  0.5756270000000  0.6996830000000  0.4183040000000 1.0
C      1  0.3648830000000  0.6653360000000  0.4183040000000 1.0
C      1  0.7107440000000  0.4656530000000  0.5816960000000 1.0
C      1  0.5756270000000  0.3003170000000  0.5816960000000 1.0
C      1  0.3648830000000  0.3346640000000  0.5816960000000 1.0
C      1  0.2892560000000  0.5343470000000  0.5816960000000 1.0
C      1  0.4243730000000  0.6996830000000  0.5816960000000 1.0
C      1  0.6351170000000  0.6653360000000  0.5816960000000 1.0
C      1  0.6742470000000  0.4516480000000  0.6618600000000 1.0
C      1  0.6289970000000  0.6267270000000  0.6618600000000 1.0
C      1  0.4547500000000  0.6750780000000  0.6618600000000 1.0
C      1  0.3257530000000  0.5483520000000  0.6618600000000 1.0
C      1  0.3710030000000  0.3732730000000  0.6618600000000 1.0
C      1  0.5452500000000  0.3249220000000  0.6618600000000 1.0
C      1  0.3257530000000  0.4516480000000  0.3381400000000 1.0
C      1  0.3710030000000  0.6267270000000  0.3381400000000 1.0
C      1  0.5452500000000  0.6750780000000  0.3381400000000 1.0
C      1  0.6742470000000  0.5483520000000  0.3381400000000 1.0
C      1  0.6289970000000  0.3732730000000  0.3381400000000 1.0
C      1  0.4547500000000  0.3249220000000  0.3381400000000 1.0
C      1  0.6943630000000  0.4406530000000  0.4717500000000 1.0
C      1  0.6485770000000  0.6386500000000  0.4717500000000 1.0
C      1  0.4542140000000  0.6979960000000  0.4717500000000 1.0
C      1  0.3056370000000  0.5593470000000  0.4717500000000 1.0
C      1  0.3514230000000  0.3613500000000  0.4717500000000 1.0
C      1  0.5457860000000  0.3020040000000  0.4717500000000 1.0
C      1  0.3056370000000  0.4406530000000  0.5282500000000 1.0
C      1  0.3514230000000  0.6386500000000  0.5282500000000 1.0
C      1  0.5457860000000  0.6979960000000  0.5282500000000 1.0
C      1  0.6943630000000  0.5593470000000  0.5282500000000 1.0
C      1  0.6485770000000  0.3613500000000  0.5282500000000 1.0
C      1  0.4542140000000  0.3020040000000  0.5282500000000 1.0
END
