TITL C-3036484-3770-30 -0.0226145473796351 3375 -341.838143272688 0 0 60 (C1) n - 1
REM
REM in /home/bkarasulu/work/CARBON/AIRSS/Generating-Clusters/REBO/Higher-Symm/Only-C60
REM
REM
REM
REM
REM
REM ./C.cell (a2850807a9bf4ad07a5b6933b78d9264)
REM AIRSS Version 0.9.1 bugfix July 2018 build 013d7b7c2542+ Fri, 06 Jul 2018 19:26:36 +0100
REM compiler GCC version 9.2.1 20190827 (Red Hat 9.2.1-1)
REM options -cpp -mtune=generic -march=x86-64 -g -O0 -fpre-include=/usr/include/finclude/math-vector-fortran.h
REM seed 72420821 1666125158 -618275996 217174482 1225419623 637154705 -108997356 -1919376797 1779401314 -1353585986 928049875 826495195 -1516566199 -469999452 -1067500910 906721831 -1312055229 873526996 -1388313075 -1931526313 1230928725 715831252 -715575426 1723692994 1067184782 1668958790 -2100560780 999574657 1469496154 1821960338 1206694131 1611832067 687373440
REM
CELL 1.54180   15.00000   15.00000   15.00000   90.00000   90.00000   90.00000
LATT -1
SFAC C  
C      1  0.3457100000000  0.4768010000000  0.3232290000000 1.0
C      1  0.6086700000000  0.7269620000000  0.5047040000000 1.0
C      1  0.4198250000000  0.4252130000000  0.6232990000000 1.0
C      1  0.5353210000000  0.5963600000000  0.4636820000000 1.0
C      1  0.5417140000000  0.3489200000000  0.4531980000000 1.0
C      1  0.6068160000000  0.2745440000000  0.4248340000000 1.0
C      1  0.4218090000000  0.4976010000000  0.7054450000000 1.0
C      1  0.5866580000000  0.5612140000000  0.5978490000000 1.0
C      1  0.4954670000000  0.6288740000000  0.2910230000000 1.0
C      1  0.3404470000000  0.3329960000000  0.3955550000000 1.0
C      1  0.4852650000000  0.3191090000000  0.5410670000000 1.0
C      1  0.4883140000000  0.5711800000000  0.2191790000000 1.0
C      1  0.6605970000000  0.4127280000000  0.6742410000000 1.0
C      1  0.3553130000000  0.5595100000000  0.7052060000000 1.0
C      1  0.7120640000000  0.5491030000000  0.4003730000000 1.0
C      1  0.2865660000000  0.6182240000000  0.5409920000000 1.0
C      1  0.6615160000000  0.5954750000000  0.3392770000000 1.0
C      1  0.4039660000000  0.6562160000000  0.3519850000000 1.0
C      1  0.5514420000000  0.6439350000000  0.6449430000000 1.0
C      1  0.4352430000000  0.7106400000000  0.4466420000000 1.0
C      1  0.3877800000000  0.3128730000000  0.4823080000000 1.0
C      1  0.6080110000000  0.3265490000000  0.6812650000000 1.0
C      1  0.4080420000000  0.6861700000000  0.7063640000000 1.0
C      1  0.7137630000000  0.3780530000000  0.4695320000000 1.0
C      1  0.4870520000000  0.5331340000000  0.5147930000000 1.0
C      1  0.5800170000000  0.3675200000000  0.5790320000000 1.0
C      1  0.4018420000000  0.5486600000000  0.3387970000000 1.0
C      1  0.4703060000000  0.4214540000000  0.4195090000000 1.0
C      1  0.6257400000000  0.5204290000000  0.5255270000000 1.0
C      1  0.4211780000000  0.5763780000000  0.5855550000000 1.0
C      1  0.2609430000000  0.3820390000000  0.4053040000000 1.0
C      1  0.4089010000000  0.3872090000000  0.3311980000000 1.0
C      1  0.6157660000000  0.4918600000000  0.7075240000000 1.0
C      1  0.6855340000000  0.4065440000000  0.5628070000000 1.0
C      1  0.5034570000000  0.4800490000000  0.2225940000000 1.0
C      1  0.5206660000000  0.4862900000000  0.6846370000000 1.0
C      1  0.2648120000000  0.4566130000000  0.6138700000000 1.0
C      1  0.5102760000000  0.4139840000000  0.2920220000000 1.0
C      1  0.3573320000000  0.5082860000000  0.5319050000000 1.0
C      1  0.2949260000000  0.3796720000000  0.6145890000000 1.0
C      1  0.6609880000000  0.5771300000000  0.7067530000000 1.0
C      1  0.6645530000000  0.6575380000000  0.6431660000000 1.0
C      1  0.5846770000000  0.4230970000000  0.3511280000000 1.0
C      1  0.5632390000000  0.5883660000000  0.3611210000000 1.0
C      1  0.4067890000000  0.4218790000000  0.5092130000000 1.0
C      1  0.2943950000000  0.5563290000000  0.6250870000000 1.0
C      1  0.3844860000000  0.3226610000000  0.5943900000000 1.0
C      1  0.2915190000000  0.5463210000000  0.4533630000000 1.0
C      1  0.5158030000000  0.4504330000000  0.5794020000000 1.0
C      1  0.3400080000000  0.6488540000000  0.4456050000000 1.0
C      1  0.7364880000000  0.4864190000000  0.5938300000000 1.0
C      1  0.6947660000000  0.2917860000000  0.4446030000000 1.0
C      1  0.6787390000000  0.6680510000000  0.5420970000000 1.0
C      1  0.6868580000000  0.4490010000000  0.3946990000000 1.0
C      1  0.5225070000000  0.6909310000000  0.4799850000000 1.0
C      1  0.2735280000000  0.4751020000000  0.3849490000000 1.0
C      1  0.5979340000000  0.4436860000000  0.4628230000000 1.0
C      1  0.6934340000000  0.5808540000000  0.4904590000000 1.0
C      1  0.4839400000000  0.5148860000000  0.3739670000000 1.0
C      1  0.4562800000000  0.6373030000000  0.6475030000000 1.0
END
