TITL C-3036479-9801-348 -0.0830919477970183 3375 -343.019850427975 0 0 60 (C1) n - 1
REM
REM in /home/bkarasulu/work/CARBON/AIRSS/Generating-Clusters/REBO/Higher-Symm/Only-C60
REM
REM
REM
REM
REM
REM ./C.cell (a2850807a9bf4ad07a5b6933b78d9264)
REM AIRSS Version 0.9.1 bugfix July 2018 build 013d7b7c2542+ Fri, 06 Jul 2018 19:26:36 +0100
REM compiler GCC version 9.2.1 20190827 (Red Hat 9.2.1-1)
REM options -cpp -mtune=generic -march=x86-64 -g -O0 -fpre-include=/usr/include/finclude/math-vector-fortran.h
REM seed 1616303673 906557917 2002689570 -1614251342 -57932911 -1987806716 942977011 -1679465804 -606463552 993167641 -1503152333 -1325897810 -1104320633 1158609266 -860192514 -273299150 -1862297308 -638634815 1938169112 -1262688798 1884868532 -1380927072 1189907864 -158983147 -2023137425 1462516209 -1582898167 -1181367908 -1872681221 -222032764 982196337 1002808594 1625952187
REM
CELL 1.54180   15.00000   15.00000   15.00000   90.00000   90.00000   90.00000
LATT -1
SFAC C  
C      1  0.5883030000000  0.5467830000000  0.2738370000000 1.0
C      1  0.5882640000000  0.3529550000000  0.3229180000000 1.0
C      1  0.5864150000000  0.2692890000000  0.5062010000000 1.0
C      1  0.5883200000000  0.3615330000000  0.6833340000000 1.0
C      1  0.5868310000000  0.5566440000000  0.7242450000000 1.0
C      1  0.5889710000000  0.7100820000000  0.5957070000000 1.0
C      1  0.5884510000000  0.7066530000000  0.3966820000000 1.0
C      1  0.4280100000000  0.5764200000000  0.6678920000000 1.0
C      1  0.4316380000000  0.6801730000000  0.5443370000000 1.0
C      1  0.4314100000000  0.6471820000000  0.3887640000000 1.0
C      1  0.4306200000000  0.5045130000000  0.3142920000000 1.0
C      1  0.4285900000000  0.3579790000000  0.3792300000000 1.0
C      1  0.4261960000000  0.3177960000000  0.5366200000000 1.0
C      1  0.4276990000000  0.4149570000000  0.6663920000000 1.0
C      1  0.4996970000000  0.7277270000000  0.3794770000000 1.0
C      1  0.5001200000000  0.5442170000000  0.2449480000000 1.0
C      1  0.4997820000000  0.3304110000000  0.3052340000000 1.0
C      1  0.4979970000000  0.2418330000000  0.5148420000000 1.0
C      1  0.4999260000000  0.3498100000000  0.7101630000000 1.0
C      1  0.4979540000000  0.5697670000000  0.7481800000000 1.0
C      1  0.5006440000000  0.7385050000000  0.5997160000000 1.0
C      1  0.3614130000000  0.5756090000000  0.3543880000000 1.0
C      1  0.3598770000000  0.4341230000000  0.3487660000000 1.0
C      1  0.3590810000000  0.3409000000000  0.4567830000000 1.0
C      1  0.3582930000000  0.3694420000000  0.5993010000000 1.0
C      1  0.3589580000000  0.4949290000000  0.6630970000000 1.0
C      1  0.3604600000000  0.6263290000000  0.6029940000000 1.0
C      1  0.3609410000000  0.6600530000000  0.4682970000000 1.0
C      1  0.5236810000000  0.4863460000000  0.3731980000000 1.0
C      1  0.5206670000000  0.3937030000000  0.4305590000000 1.0
C      1  0.5179750000000  0.3788090000000  0.5380360000000 1.0
C      1  0.5182960000000  0.4543220000000  0.6186920000000 1.0
C      1  0.5220430000000  0.5661470000000  0.6085400000000 1.0
C      1  0.5249120000000  0.6265990000000  0.5142660000000 1.0
C      1  0.5260520000000  0.5895550000000  0.4087760000000 1.0
C      1  0.6997960000000  0.6221440000000  0.4971830000000 1.0
C      1  0.7018510000000  0.5809140000000  0.3931760000000 1.0
C      1  0.6993620000000  0.4693210000000  0.3822760000000 1.0
C      1  0.6949180000000  0.3895070000000  0.4533860000000 1.0
C      1  0.6883710000000  0.4048380000000  0.5485660000000 1.0
C      1  0.6885780000000  0.4809060000000  0.6054760000000 1.0
C      1  0.6954950000000  0.5762880000000  0.5933650000000 1.0
C      1  0.2745290000000  0.5518590000000  0.6120250000000 1.0
C      1  0.2733970000000  0.6212380000000  0.5297490000000 1.0
C      1  0.2746110000000  0.6005080000000  0.4239020000000 1.0
C      1  0.2743460000000  0.5048550000000  0.3743250000000 1.0
C      1  0.2740820000000  0.4063940000000  0.4183790000000 1.0
C      1  0.2743230000000  0.3791570000000  0.5226700000000 1.0
C      1  0.2728230000000  0.4441630000000  0.6085320000000 1.0
C      1  0.6149760000000  0.4655540000000  0.6776650000000 1.0
C      1  0.6162050000000  0.6202670000000  0.6433420000000 1.0
C      1  0.6193680000000  0.6880590000000  0.4961830000000 1.0
C      1  0.6179240000000  0.6179630000000  0.3463430000000 1.0
C      1  0.6185490000000  0.4544040000000  0.3181990000000 1.0
C      1  0.6153260000000  0.3299940000000  0.4238330000000 1.0
C      1  0.6147150000000  0.3395170000000  0.5831220000000 1.0
C      1  0.4829910000000  0.5013460000000  0.4991560000000 1.0
C      1  0.3959120000000  0.5030060000000  0.4960630000000 1.0
C      1  0.6658150000000  0.5164730000000  0.4786410000000 1.0
C      1  0.5711220000000  0.4964720000000  0.5039450000000 1.0
END
