TITL C-3036484-3770-433 -3.50452966133439e-06 3375 -322.937140207877 0 0 60 (C2) n - 1
REM
REM in /home/bkarasulu/work/CARBON/AIRSS/Generating-Clusters/REBO/Higher-Symm/Only-C60
REM
REM
REM
REM
REM
REM ./C.cell (a2850807a9bf4ad07a5b6933b78d9264)
REM AIRSS Version 0.9.1 bugfix July 2018 build 013d7b7c2542+ Fri, 06 Jul 2018 19:26:36 +0100
REM compiler GCC version 9.2.1 20190827 (Red Hat 9.2.1-1)
REM options -cpp -mtune=generic -march=x86-64 -g -O0 -fpre-include=/usr/include/finclude/math-vector-fortran.h
REM seed -1620794023 2044503753 -2070307990 -709466069 527878385 -1806341071 1780546424 -767296343 -70095570 -1912579098 545107623 1209534052 1301512481 -1635796974 -1335070971 -1588363358 1098726496 -1594003389 -1296964677 -644526378 -214859214 1523919305 886978345 2057394084 -399132481 -1705155754 -1100277293 135956652 457917662 -1530976667 -1581675712 1608882506 -850684681
REM
CELL 1.54180   15.00000   15.00000   15.00000   90.00000   90.00000   90.00000
LATT -1
SFAC C  
C      1  0.5616920000000  0.6820880000000  0.5659080000000 1.0
C      1  0.6812870000000  0.5621270000000  0.5630710000000 1.0
C      1  0.5482630000000  0.5451290000000  0.6824040000000 1.0
C      1  0.5616910000000  0.3179120000000  0.4340910000000 1.0
C      1  0.4398630000000  0.6797610000000  0.4374950000000 1.0
C      1  0.4398630000000  0.3202400000000  0.5625050000000 1.0
C      1  0.6812820000000  0.4378790000000  0.4369360000000 1.0
C      1  0.3193000000000  0.5597340000000  0.4347710000000 1.0
C      1  0.3193030000000  0.4402700000000  0.5652240000000 1.0
C      1  0.5482630000000  0.4548680000000  0.3175950000000 1.0
C      1  0.4540220000000  0.5490610000000  0.3163280000000 1.0
C      1  0.4540210000000  0.4509370000000  0.6836730000000 1.0
C      1  0.4520110000000  0.6810130000000  0.5471640000000 1.0
C      1  0.3195100000000  0.5491080000000  0.5449690000000 1.0
C      1  0.4394520000000  0.5595560000000  0.6742980000000 1.0
C      1  0.4520100000000  0.3189880000000  0.4528360000000 1.0
C      1  0.5485950000000  0.6801900000000  0.4554830000000 1.0
C      1  0.5485950000000  0.3198110000000  0.5445160000000 1.0
C      1  0.3195090000000  0.4508950000000  0.4550260000000 1.0
C      1  0.6808760000000  0.5473950000000  0.4532330000000 1.0
C      1  0.6808760000000  0.4526100000000  0.5467730000000 1.0
C      1  0.4394520000000  0.4404420000000  0.3257010000000 1.0
C      1  0.5637780000000  0.5648130000000  0.3225750000000 1.0
C      1  0.5637770000000  0.4351840000000  0.6774270000000 1.0
C      1  0.5626260000000  0.6553990000000  0.6687020000000 1.0
C      1  0.6660200000000  0.6661870000000  0.5709070000000 1.0
C      1  0.6561070000000  0.5662040000000  0.6662480000000 1.0
C      1  0.5626250000000  0.3445980000000  0.3312970000000 1.0
C      1  0.4331120000000  0.6567220000000  0.3341230000000 1.0
C      1  0.4331120000000  0.3432750000000  0.6658770000000 1.0
C      1  0.6660180000000  0.3338180000000  0.4290930000000 1.0
C      1  0.3362880000000  0.6636510000000  0.4254810000000 1.0
C      1  0.3362890000000  0.3363530000000  0.5745190000000 1.0
C      1  0.6561060000000  0.4337930000000  0.3337580000000 1.0
C      1  0.3439250000000  0.5633720000000  0.3316280000000 1.0
C      1  0.3439250000000  0.4366260000000  0.6683670000000 1.0
C      1  0.4306990000000  0.6627630000000  0.6539900000000 1.0
C      1  0.3431460000000  0.6572010000000  0.5580610000000 1.0
C      1  0.3365460000000  0.5684610000000  0.6528490000000 1.0
C      1  0.4306980000000  0.3372350000000  0.3460100000000 1.0
C      1  0.5650590000000  0.6675690000000  0.3463060000000 1.0
C      1  0.5650590000000  0.3324290000000  0.6536930000000 1.0
C      1  0.3431450000000  0.3428010000000  0.4419380000000 1.0
C      1  0.6556680000000  0.6552880000000  0.4388620000000 1.0
C      1  0.6556680000000  0.3447140000000  0.5611370000000 1.0
C      1  0.3365460000000  0.4315380000000  0.3471470000000 1.0
C      1  0.6669010000000  0.5658240000000  0.3450420000000 1.0
C      1  0.6669000000000  0.4341730000000  0.6549630000000 1.0
C      1  0.2882090000000  0.5061130000000  0.7134340000000 1.0
C      1  0.4998410000000  0.7153020000000  0.2886440000000 1.0
C      1  0.7137130000000  0.5003300000000  0.2870300000000 1.0
C      1  0.4933320000000  0.2897620000000  0.2851330000000 1.0
C      1  0.4998410000000  0.2846950000000  0.7113540000000 1.0
C      1  0.4933340000000  0.7102350000000  0.7148680000000 1.0
C      1  0.7128280000000  0.2871310000000  0.5026010000000 1.0
C      1  0.7128270000000  0.7128730000000  0.4973960000000 1.0
C      1  0.2873350000000  0.2872800000000  0.5038260000000 1.0
C      1  0.2873360000000  0.7127240000000  0.4961760000000 1.0
C      1  0.2882110000000  0.4938850000000  0.2865600000000 1.0
C      1  0.7137110000000  0.4996650000000  0.7129770000000 1.0
END
