TITL C-3036481-494-506 0.000635660123327 3375 -344.338007488077 0 0 60 (C1) n - 1
REM
REM in /home/bkarasulu/work/CARBON/AIRSS/Generating-Clusters/REBO/Higher-Symm/Only-C60
REM
REM
REM
REM
REM
REM ./C.cell (a2850807a9bf4ad07a5b6933b78d9264)
REM AIRSS Version 0.9.1 bugfix July 2018 build 013d7b7c2542+ Fri, 06 Jul 2018 19:26:36 +0100
REM compiler GCC version 9.2.1 20190827 (Red Hat 9.2.1-1)
REM options -cpp -mtune=generic -march=x86-64 -g -O0 -fpre-include=/usr/include/finclude/math-vector-fortran.h
REM seed -1056314023 -67576390 -807616651 1804356249 -440416505 293085442 -811606431 -696663881 -104073293 -3279319 -362596110 -753280522 436791278 338963007 981598482 270369346 -2103783407 -1433663341 2027375341 -612396376 -156021005 252046839 -1715129059 506376146 -1066832512 -1821472319 -1565477631 357519042 1308636218 -974505554 -1932732648 -513478653 -172455790
REM
CELL 1.54180   15.00000   15.00000   15.00000   90.00000   90.00000   90.00000
LATT -1
SFAC C  
C      1  0.3370150000000  0.6347450000000  0.4564900000000 1.0
C      1  0.3355950000000  0.3631230000000  0.5435010000000 1.0
C      1  0.6161560000000  0.3770920000000  0.6595520000000 1.0
C      1  0.6170840000000  0.6226690000000  0.3394350000000 1.0
C      1  0.5528780000000  0.6229670000000  0.6509490000000 1.0
C      1  0.5552160000000  0.3771140000000  0.3468500000000 1.0
C      1  0.4603830000000  0.4180420000000  0.7229900000000 1.0
C      1  0.4611330000000  0.5816280000000  0.2777980000000 1.0
C      1  0.2743350000000  0.4537750000000  0.5334120000000 1.0
C      1  0.2755410000000  0.5445550000000  0.4671390000000 1.0
C      1  0.6098970000000  0.5358560000000  0.2967210000000 1.0
C      1  0.6083170000000  0.4645520000000  0.7003160000000 1.0
C      1  0.3045170000000  0.5627520000000  0.3580400000000 1.0
C      1  0.3039630000000  0.4349020000000  0.6423110000000 1.0
C      1  0.3804780000000  0.5353340000000  0.3007930000000 1.0
C      1  0.3789830000000  0.4633170000000  0.7005050000000 1.0
C      1  0.4917010000000  0.2767720000000  0.5651070000000 1.0
C      1  0.4931410000000  0.7248250000000  0.4348570000000 1.0
C      1  0.6087060000000  0.5281480000000  0.6226090000000 1.0
C      1  0.6122000000000  0.4715710000000  0.3741210000000 1.0
C      1  0.5274410000000  0.4847780000000  0.7464070000000 1.0
C      1  0.5280070000000  0.5155270000000  0.2522720000000 1.0
C      1  0.5107850000000  0.3428620000000  0.6542510000000 1.0
C      1  0.5120160000000  0.6572110000000  0.3458330000000 1.0
C      1  0.6963810000000  0.6225660000000  0.3950350000000 1.0
C      1  0.6958770000000  0.3765680000000  0.6046210000000 1.0
C      1  0.4275800000000  0.6143030000000  0.4019920000000 1.0
C      1  0.4243730000000  0.3859670000000  0.5993430000000 1.0
C      1  0.7538990000000  0.4341500000000  0.5540110000000 1.0
C      1  0.7543960000000  0.5653320000000  0.4460360000000 1.0
C      1  0.4541490000000  0.7209530000000  0.5228140000000 1.0
C      1  0.4539020000000  0.2794410000000  0.4769230000000 1.0
C      1  0.5088090000000  0.7061210000000  0.5983800000000 1.0
C      1  0.5087860000000  0.2967050000000  0.4020510000000 1.0
C      1  0.4338900000000  0.4112470000000  0.4186130000000 1.0
C      1  0.4400260000000  0.5926260000000  0.5858380000000 1.0
C      1  0.5965450000000  0.6315500000000  0.4824730000000 1.0
C      1  0.5973100000000  0.3697350000000  0.5155670000000 1.0
C      1  0.5775940000000  0.5285730000000  0.4538310000000 1.0
C      1  0.5736960000000  0.4721890000000  0.5420330000000 1.0
C      1  0.3420500000000  0.3582550000000  0.3757780000000 1.0
C      1  0.3423860000000  0.6402210000000  0.6232460000000 1.0
C      1  0.4011580000000  0.5135380000000  0.4352760000000 1.0
C      1  0.4026160000000  0.4905120000000  0.5722300000000 1.0
C      1  0.3645810000000  0.6881790000000  0.5318320000000 1.0
C      1  0.3633730000000  0.3097540000000  0.4679910000000 1.0
C      1  0.7617770000000  0.4572530000000  0.4497690000000 1.0
C      1  0.7602290000000  0.5422140000000  0.5502370000000 1.0
C      1  0.3089640000000  0.4557090000000  0.4048090000000 1.0
C      1  0.3056890000000  0.5425240000000  0.5969330000000 1.0
C      1  0.4748440000000  0.4344570000000  0.5131710000000 1.0
C      1  0.4784390000000  0.5673190000000  0.4902450000000 1.0
C      1  0.7005860000000  0.4128210000000  0.3956320000000 1.0
C      1  0.6979080000000  0.5865120000000  0.6030200000000 1.0
C      1  0.4973330000000  0.4254200000000  0.2752930000000 1.0
C      1  0.4960920000000  0.5744530000000  0.7229760000000 1.0
C      1  0.4006000000000  0.4322440000000  0.3113410000000 1.0
C      1  0.3978390000000  0.5661410000000  0.6899000000000 1.0
C      1  0.6262620000000  0.3521340000000  0.4301900000000 1.0
C      1  0.6245720000000  0.6481950000000  0.5683100000000 1.0
END
