TITL C-3036483-1610-559 -8.58311959571605e-09 3375 -339.973609976747 0 0 60 (Th) n - 1
REM
REM in /home/bkarasulu/work/CARBON/AIRSS/Generating-Clusters/REBO/Higher-Symm/Only-C60
REM
REM
REM
REM
REM
REM ./C.cell (a2850807a9bf4ad07a5b6933b78d9264)
REM AIRSS Version 0.9.1 bugfix July 2018 build 013d7b7c2542+ Fri, 06 Jul 2018 19:26:36 +0100
REM compiler GCC version 9.2.1 20190827 (Red Hat 9.2.1-1)
REM options -cpp -mtune=generic -march=x86-64 -g -O0 -fpre-include=/usr/include/finclude/math-vector-fortran.h
REM seed 1819341503 1549863656 -82530243 182298109 1506689593 -556458448 1822942227 132593654 606252318 -366806779 385466872 -96667706 1595738656 -141942977 1456664569 -1850524882 428622341 -1841921173 586621633 -1111632219 -212524704 1172795611 1783301793 1776736194 -2100206470 47297978 -1315627817 357837283 -1528311988 -1540228104 788610399 1608672426 1462947536
REM
CELL 1.54180   15.00000   15.00000   15.00000   90.00000   90.00000   90.00000
LATT -1
SFAC C  
C      1  0.5532700000000  0.5953810000000  0.7235840000000 1.0
C      1  0.7235840000000  0.5532700000000  0.5953810000000 1.0
C      1  0.5953810000000  0.7235840000000  0.5532700000000 1.0
C      1  0.4467300000000  0.4046190000000  0.7235840000000 1.0
C      1  0.4467300000000  0.5953810000000  0.2764160000000 1.0
C      1  0.5532700000000  0.4046190000000  0.2764160000000 1.0
C      1  0.2764160000000  0.4467300000000  0.5953810000000 1.0
C      1  0.2764160000000  0.5532700000000  0.4046190000000 1.0
C      1  0.7235840000000  0.4467300000000  0.4046190000000 1.0
C      1  0.4046190000000  0.2764160000000  0.5532700000000 1.0
C      1  0.4046190000000  0.7235840000000  0.4467300000000 1.0
C      1  0.5953810000000  0.2764160000000  0.4467300000000 1.0
C      1  0.5532700000000  0.5953810000000  0.2764160000000 1.0
C      1  0.7235840000000  0.5532700000000  0.4046190000000 1.0
C      1  0.5953810000000  0.7235840000000  0.4467300000000 1.0
C      1  0.4467300000000  0.4046190000000  0.2764160000000 1.0
C      1  0.4467300000000  0.5953810000000  0.7235840000000 1.0
C      1  0.5532700000000  0.4046190000000  0.7235840000000 1.0
C      1  0.2764160000000  0.4467300000000  0.4046190000000 1.0
C      1  0.2764160000000  0.5532700000000  0.5953810000000 1.0
C      1  0.7235840000000  0.4467300000000  0.5953810000000 1.0
C      1  0.4046190000000  0.2764160000000  0.4467300000000 1.0
C      1  0.4046190000000  0.7235840000000  0.5532700000000 1.0
C      1  0.5953810000000  0.2764160000000  0.5532700000000 1.0
C      1  0.4012820000000  0.4511720000000  0.6414010000000 1.0
C      1  0.6414010000000  0.4012820000000  0.4511720000000 1.0
C      1  0.4511720000000  0.6414010000000  0.4012820000000 1.0
C      1  0.5987180000000  0.5488280000000  0.6414010000000 1.0
C      1  0.5987180000000  0.4511720000000  0.3585990000000 1.0
C      1  0.4012820000000  0.5488280000000  0.3585990000000 1.0
C      1  0.3585990000000  0.5987180000000  0.4511720000000 1.0
C      1  0.3585990000000  0.4012820000000  0.5488280000000 1.0
C      1  0.6414010000000  0.5987180000000  0.5488280000000 1.0
C      1  0.5488280000000  0.3585990000000  0.4012820000000 1.0
C      1  0.5488280000000  0.6414010000000  0.5987180000000 1.0
C      1  0.4511720000000  0.3585990000000  0.5987180000000 1.0
C      1  0.4012820000000  0.4511720000000  0.3585990000000 1.0
C      1  0.6414010000000  0.4012820000000  0.5488280000000 1.0
C      1  0.4511720000000  0.6414010000000  0.5987180000000 1.0
C      1  0.5987180000000  0.5488280000000  0.3585990000000 1.0
C      1  0.5987180000000  0.4511720000000  0.6414010000000 1.0
C      1  0.4012820000000  0.5488280000000  0.6414010000000 1.0
C      1  0.3585990000000  0.5987180000000  0.5488280000000 1.0
C      1  0.3585990000000  0.4012820000000  0.4511720000000 1.0
C      1  0.6414010000000  0.5987180000000  0.4511720000000 1.0
C      1  0.5488280000000  0.3585990000000  0.5987180000000 1.0
C      1  0.5488280000000  0.6414010000000  0.4012820000000 1.0
C      1  0.4511720000000  0.3585990000000  0.4012820000000 1.0
C      1  0.1957040000000  0.5000000000000  0.5476450000000 1.0
C      1  0.5000000000000  0.5476450000000  0.1957040000000 1.0
C      1  0.1957040000000  0.5000000000000  0.4523550000000 1.0
C      1  0.5000000000000  0.4523550000000  0.8042960000000 1.0
C      1  0.8042960000000  0.5000000000000  0.4523550000000 1.0
C      1  0.8042960000000  0.5000000000000  0.5476450000000 1.0
C      1  0.5476450000000  0.1957040000000  0.5000000000000 1.0
C      1  0.4523550000000  0.8042960000000  0.5000000000000 1.0
C      1  0.4523550000000  0.1957040000000  0.5000000000000 1.0
C      1  0.5476450000000  0.8042960000000  0.5000000000000 1.0
C      1  0.5000000000000  0.4523550000000  0.1957040000000 1.0
C      1  0.5000000000000  0.5476450000000  0.8042960000000 1.0
END
