TITL C-3036482-790-912 1.58033898674031e-05 3375 -352.378995659363 0 0 60 (Td) n - 1
REM
REM in /home/bkarasulu/work/CARBON/AIRSS/Generating-Clusters/REBO/Higher-Symm/Only-C60
REM
REM
REM
REM
REM
REM ./C.cell (a2850807a9bf4ad07a5b6933b78d9264)
REM AIRSS Version 0.9.1 bugfix July 2018 build 013d7b7c2542+ Fri, 06 Jul 2018 19:26:36 +0100
REM compiler GCC version 9.2.1 20190827 (Red Hat 9.2.1-1)
REM options -cpp -mtune=generic -march=x86-64 -g -O0 -fpre-include=/usr/include/finclude/math-vector-fortran.h
REM seed -1561489083 -345265843 -725181399 704975700 -439769078 -880803089 780933504 2078635359 1396607272 579061633 -1940971248 969049868 132326924 -1848227436 23912972 -1600194572 25112921 807328665 -1651261622 -1030796890 -2073901744 2012763838 821384618 -1692310748 -1657945421 401744069 453004297 -2090252029 1408835522 970843167 -1724166279 1662565679 -766064927
REM
CELL 1.54180   15.00000   15.00000   15.00000   90.00000   90.00000   90.00000
LATT -1
SFAC C  
C      1  0.5210260000000  0.4134710000000  0.7009610000000 1.0
C      1  0.7009610000000  0.5210260000000  0.4134710000000 1.0
C      1  0.4134710000000  0.7009610000000  0.5210260000000 1.0
C      1  0.4789740000000  0.4134710000000  0.2990390000000 1.0
C      1  0.5210260000000  0.5865290000000  0.2990390000000 1.0
C      1  0.4789740000000  0.5865290000000  0.7009610000000 1.0
C      1  0.2990390000000  0.5210260000000  0.5865290000000 1.0
C      1  0.7009610000000  0.4789740000000  0.5865290000000 1.0
C      1  0.2990390000000  0.4789740000000  0.4134710000000 1.0
C      1  0.5865290000000  0.7009610000000  0.4789740000000 1.0
C      1  0.4134710000000  0.2990390000000  0.4789740000000 1.0
C      1  0.5865290000000  0.2990390000000  0.5210260000000 1.0
C      1  0.7009610000000  0.4134710000000  0.5210260000000 1.0
C      1  0.4134710000000  0.5210260000000  0.7009610000000 1.0
C      1  0.5210260000000  0.7009610000000  0.4134710000000 1.0
C      1  0.2990390000000  0.4134710000000  0.4789740000000 1.0
C      1  0.2990390000000  0.5865290000000  0.5210260000000 1.0
C      1  0.7009610000000  0.5865290000000  0.4789740000000 1.0
C      1  0.5865290000000  0.5210260000000  0.2990390000000 1.0
C      1  0.5865290000000  0.4789740000000  0.7009610000000 1.0
C      1  0.4134710000000  0.4789740000000  0.2990390000000 1.0
C      1  0.4789740000000  0.7009610000000  0.5865290000000 1.0
C      1  0.4789740000000  0.2990390000000  0.4134710000000 1.0
C      1  0.5210260000000  0.2990390000000  0.5865290000000 1.0
C      1  0.3591640000000  0.4297650000000  0.7118470000000 1.0
C      1  0.7118470000000  0.3591640000000  0.4297650000000 1.0
C      1  0.4297650000000  0.7118470000000  0.3591640000000 1.0
C      1  0.6408360000000  0.4297650000000  0.2881530000000 1.0
C      1  0.3591640000000  0.5702350000000  0.2881530000000 1.0
C      1  0.6408360000000  0.5702350000000  0.7118470000000 1.0
C      1  0.2881530000000  0.3591640000000  0.5702350000000 1.0
C      1  0.7118470000000  0.6408360000000  0.5702350000000 1.0
C      1  0.2881530000000  0.6408360000000  0.4297650000000 1.0
C      1  0.5702350000000  0.7118470000000  0.6408360000000 1.0
C      1  0.4297650000000  0.2881530000000  0.6408360000000 1.0
C      1  0.5702350000000  0.2881530000000  0.3591640000000 1.0
C      1  0.7118470000000  0.4297650000000  0.3591640000000 1.0
C      1  0.4297650000000  0.3591640000000  0.7118470000000 1.0
C      1  0.3591640000000  0.7118470000000  0.4297650000000 1.0
C      1  0.2881530000000  0.4297650000000  0.6408360000000 1.0
C      1  0.2881530000000  0.5702350000000  0.3591640000000 1.0
C      1  0.7118470000000  0.5702350000000  0.6408360000000 1.0
C      1  0.5702350000000  0.3591640000000  0.2881530000000 1.0
C      1  0.5702350000000  0.6408360000000  0.7118470000000 1.0
C      1  0.4297650000000  0.6408360000000  0.2881530000000 1.0
C      1  0.6408360000000  0.7118470000000  0.5702350000000 1.0
C      1  0.6408360000000  0.2881530000000  0.4297650000000 1.0
C      1  0.3591640000000  0.2881530000000  0.5702350000000 1.0
C      1  0.4025530000000  0.4811900000000  0.5974470000000 1.0
C      1  0.5974470000000  0.4025530000000  0.4811900000000 1.0
C      1  0.4025530000000  0.5974470000000  0.4811900000000 1.0
C      1  0.5974470000000  0.4811900000000  0.4025530000000 1.0
C      1  0.4811900000000  0.4025530000000  0.5974470000000 1.0
C      1  0.5974470000000  0.5188100000000  0.5974470000000 1.0
C      1  0.4025530000000  0.5188100000000  0.4025530000000 1.0
C      1  0.5974470000000  0.5974470000000  0.5188100000000 1.0
C      1  0.4025530000000  0.4025530000000  0.5188100000000 1.0
C      1  0.5188100000000  0.4025530000000  0.4025530000000 1.0
C      1  0.4811900000000  0.5974470000000  0.4025530000000 1.0
C      1  0.5188100000000  0.5974470000000  0.5974470000000 1.0
END
