TITL C-3036479-9801-865 -3.2897812163025e-06 3375 -356.633149654741 0 0 60 (C1) n - 1
REM
REM in /home/bkarasulu/work/CARBON/AIRSS/Generating-Clusters/REBO/Higher-Symm/Only-C60
REM
REM
REM
REM
REM
REM ./C.cell (a2850807a9bf4ad07a5b6933b78d9264)
REM AIRSS Version 0.9.1 bugfix July 2018 build 013d7b7c2542+ Fri, 06 Jul 2018 19:26:36 +0100
REM compiler GCC version 9.2.1 20190827 (Red Hat 9.2.1-1)
REM options -cpp -mtune=generic -march=x86-64 -g -O0 -fpre-include=/usr/include/finclude/math-vector-fortran.h
REM seed 178321383 -1573710345 -831621788 -1982291540 1415624206 -135140267 1147272570 -1017665233 -1779841718 -390990307 2031015856 1364946236 -1186560086 897180047 219255042 1121284240 383765961 -1700610486 -89691308 -287496186 -1144642985 1760079053 1472669985 -1845972169 -1675039551 2011650327 584177362 640419359 221344512 -916541857 2018229471 -642661152 -1803373542
REM
CELL 1.54180   15.00000   15.00000   15.00000   90.00000   90.00000   90.00000
LATT -1
SFAC C  
C      1  0.5251870000000  0.3068730000000  0.3179010000000 1.0
C      1  0.7556320000000  0.6279310000000  0.4831310000000 1.0
C      1  0.3545220000000  0.5814160000000  0.3439200000000 1.0
C      1  0.6750060000000  0.3877160000000  0.3607040000000 1.0
C      1  0.5611550000000  0.5759090000000  0.5620160000000 1.0
C      1  0.3887940000000  0.2659350000000  0.4041590000000 1.0
C      1  0.3936870000000  0.3885770000000  0.6213070000000 1.0
C      1  0.3844420000000  0.7122400000000  0.4584430000000 1.0
C      1  0.6341040000000  0.3147000000000  0.4996990000000 1.0
C      1  0.3943430000000  0.4118660000000  0.7142310000000 1.0
C      1  0.6674430000000  0.6747200000000  0.3448360000000 1.0
C      1  0.4260150000000  0.6351150000000  0.4031410000000 1.0
C      1  0.4760150000000  0.3858530000000  0.4858050000000 1.0
C      1  0.5574670000000  0.5774340000000  0.2485500000000 1.0
C      1  0.7088030000000  0.5364590000000  0.3812900000000 1.0
C      1  0.7592670000000  0.5316930000000  0.4671320000000 1.0
C      1  0.6788190000000  0.6661130000000  0.4413730000000 1.0
C      1  0.5869780000000  0.6222370000000  0.4793240000000 1.0
C      1  0.6748870000000  0.4831500000000  0.6006830000000 1.0
C      1  0.4403370000000  0.4609360000000  0.2564520000000 1.0
C      1  0.6183320000000  0.5660310000000  0.6595030000000 1.0
C      1  0.3437330000000  0.6425480000000  0.6210050000000 1.0
C      1  0.7240960000000  0.4615030000000  0.3260060000000 1.0
C      1  0.3230530000000  0.3246610000000  0.4591540000000 1.0
C      1  0.4401740000000  0.2776410000000  0.4978790000000 1.0
C      1  0.5635260000000  0.6138230000000  0.7339320000000 1.0
C      1  0.3612860000000  0.5014070000000  0.7352110000000 1.0
C      1  0.2689900000000  0.4359420000000  0.5067190000000 1.0
C      1  0.4319040000000  0.3137490000000  0.3350410000000 1.0
C      1  0.4633770000000  0.5494460000000  0.2211350000000 1.0
C      1  0.5471970000000  0.3012620000000  0.4964880000000 1.0
C      1  0.3584290000000  0.5669940000000  0.5460990000000 1.0
C      1  0.2882000000000  0.4926290000000  0.5734430000000 1.0
C      1  0.7223380000000  0.4571860000000  0.5160500000000 1.0
C      1  0.4603790000000  0.4579430000000  0.4138760000000 1.0
C      1  0.5536040000000  0.4644790000000  0.2684170000000 1.0
C      1  0.4005360000000  0.4121240000000  0.3376610000000 1.0
C      1  0.4164780000000  0.5439330000000  0.4556710000000 1.0
C      1  0.6870620000000  0.3817700000000  0.4600250000000 1.0
C      1  0.5239590000000  0.6463420000000  0.3900900000000 1.0
C      1  0.6137310000000  0.4563870000000  0.6935820000000 1.0
C      1  0.5809530000000  0.6437410000000  0.3123740000000 1.0
C      1  0.4745530000000  0.3856570000000  0.7609120000000 1.0
C      1  0.5491910000000  0.4911700000000  0.3720930000000 1.0
C      1  0.4614250000000  0.5379380000000  0.5551300000000 1.0
C      1  0.3102750000000  0.5441520000000  0.6665820000000 1.0
C      1  0.3125730000000  0.5110070000000  0.3509490000000 1.0
C      1  0.3093530000000  0.4185160000000  0.4055520000000 1.0
C      1  0.4695150000000  0.4333290000000  0.5734190000000 1.0
C      1  0.4176920000000  0.5538560000000  0.7943240000000 1.0
C      1  0.4623000000000  0.6484480000000  0.7851370000000 1.0
C      1  0.6159910000000  0.5510080000000  0.4013660000000 1.0
C      1  0.5645380000000  0.4649290000000  0.5939790000000 1.0
C      1  0.5920320000000  0.3739280000000  0.3131880000000 1.0
C      1  0.5203350000000  0.5319840000000  0.7939310000000 1.0
C      1  0.3723830000000  0.7215470000000  0.5465190000000 1.0
C      1  0.5473330000000  0.4463710000000  0.7670890000000 1.0
C      1  0.3578050000000  0.3263560000000  0.5593610000000 1.0
C      1  0.4925240000000  0.6944360000000  0.6975450000000 1.0
C      1  0.4359420000000  0.7069560000000  0.6294670000000 1.0
END
