TITL C-3036482-790-361 0.014040917376666 3375 -345.743166473487 0 0 60 (D2) n - 1
REM
REM in /home/bkarasulu/work/CARBON/AIRSS/Generating-Clusters/REBO/Higher-Symm/Only-C60
REM
REM
REM
REM
REM
REM ./C.cell (a2850807a9bf4ad07a5b6933b78d9264)
REM AIRSS Version 0.9.1 bugfix July 2018 build 013d7b7c2542+ Fri, 06 Jul 2018 19:26:36 +0100
REM compiler GCC version 9.2.1 20190827 (Red Hat 9.2.1-1)
REM options -cpp -mtune=generic -march=x86-64 -g -O0 -fpre-include=/usr/include/finclude/math-vector-fortran.h
REM seed -1800798182 1817084868 -1766734777 1311866377 2409534 1880770333 -2134801425 -1131545036 -729439562 -412214253 -125215107 -1407811809 -499435333 -334864706 1340301622 -1656511661 -1095155641 -2079252522 -762199120 -1279124185 1975157336 -165577223 -1330477987 -2055188137 -1375235221 -889519755 1154439903 -1617882011 528800118 -886828757 -195414153 1074261356 -1872247647
REM
CELL 1.54180   15.00000   15.00000   15.00000   90.00000   90.00000   90.00000
LATT -1
SFAC C  
C      1  0.6602620000000  0.5175220000000  0.6526600000000 1.0
C      1  0.3397390000000  0.5175220000000  0.3473390000000 1.0
C      1  0.3397390000000  0.4824780000000  0.6526600000000 1.0
C      1  0.6602610000000  0.4824780000000  0.3473400000000 1.0
C      1  0.5452310000000  0.6101940000000  0.5053900000000 1.0
C      1  0.4547690000000  0.6101940000000  0.4946100000000 1.0
C      1  0.4547690000000  0.3898060000000  0.5053900000000 1.0
C      1  0.5452310000000  0.3898060000000  0.4946100000000 1.0
C      1  0.3555330000000  0.7105840000000  0.4085020000000 1.0
C      1  0.6444670000000  0.7105840000000  0.5914980000000 1.0
C      1  0.6444670000000  0.2894160000000  0.4085010000000 1.0
C      1  0.3555330000000  0.2894160000000  0.5914980000000 1.0
C      1  0.6617940000000  0.4530740000000  0.4836460000000 1.0
C      1  0.3382060000000  0.4530740000000  0.5163550000000 1.0
C      1  0.3382060000000  0.5469260000000  0.4836450000000 1.0
C      1  0.6617940000000  0.5469260000000  0.5163550000000 1.0
C      1  0.4770020000000  0.4594710000000  0.2697650000000 1.0
C      1  0.5229980000000  0.4594710000000  0.7302340000000 1.0
C      1  0.5229980000000  0.5405290000000  0.2697650000000 1.0
C      1  0.4770020000000  0.5405290000000  0.7302340000000 1.0
C      1  0.4546720000000  0.6941060000000  0.6430790000000 1.0
C      1  0.5453280000000  0.6941050000000  0.3569210000000 1.0
C      1  0.5453280000000  0.3058940000000  0.6430790000000 1.0
C      1  0.4546710000000  0.3058950000000  0.3569210000000 1.0
C      1  0.2720930000000  0.4723340000000  0.3886310000000 1.0
C      1  0.7279070000000  0.4723340000000  0.6113690000000 1.0
C      1  0.7279070000000  0.5276660000000  0.3886310000000 1.0
C      1  0.2720930000000  0.5276660000000  0.6113690000000 1.0
C      1  0.4756490000000  0.6155930000000  0.3170710000000 1.0
C      1  0.5243510000000  0.6155930000000  0.6829280000000 1.0
C      1  0.5243510000000  0.3844070000000  0.3170710000000 1.0
C      1  0.4756490000000  0.3844070000000  0.6829280000000 1.0
C      1  0.5290650000000  0.4716770000000  0.5977010000000 1.0
C      1  0.4709350000000  0.4716780000000  0.4023000000000 1.0
C      1  0.4709340000000  0.5283230000000  0.5977010000000 1.0
C      1  0.5290660000000  0.5283230000000  0.4022990000000 1.0
C      1  0.3091180000000  0.3444760000000  0.5388090000000 1.0
C      1  0.6908820000000  0.3444760000000  0.4611910000000 1.0
C      1  0.6908820000000  0.6555240000000  0.5388090000000 1.0
C      1  0.3091170000000  0.6555240000000  0.4611910000000 1.0
C      1  0.4368950000000  0.2884880000000  0.6359530000000 1.0
C      1  0.5631040000000  0.2884890000000  0.3640470000000 1.0
C      1  0.5631050000000  0.7115120000000  0.6359530000000 1.0
C      1  0.4368950000000  0.7115110000000  0.3640470000000 1.0
C      1  0.6158030000000  0.4699740000000  0.7216180000000 1.0
C      1  0.3841970000000  0.4699750000000  0.2783800000000 1.0
C      1  0.3841970000000  0.5300260000000  0.7216180000000 1.0
C      1  0.6158030000000  0.5300260000000  0.2783810000000 1.0
C      1  0.6972990000000  0.3822910000000  0.5648200000000 1.0
C      1  0.3027000000000  0.3822920000000  0.4351800000000 1.0
C      1  0.3027010000000  0.6177080000000  0.5648200000000 1.0
C      1  0.6972990000000  0.6177080000000  0.4351800000000 1.0
C      1  0.4046840000000  0.4129030000000  0.6008770000000 1.0
C      1  0.5953150000000  0.4129040000000  0.3991240000000 1.0
C      1  0.5953160000000  0.5870970000000  0.6008770000000 1.0
C      1  0.4046850000000  0.5870950000000  0.3991240000000 1.0
C      1  0.4064800000000  0.6192360000000  0.5857920000000 1.0
C      1  0.5935210000000  0.6192370000000  0.4142090000000 1.0
C      1  0.5935210000000  0.3807640000000  0.5857920000000 1.0
C      1  0.4064790000000  0.3807640000000  0.4142090000000 1.0
END
