TITL C-3036479-9801-84 -0.000696199467354109 3375 -358.621540437761 0 0 60 (Ci) n - 1
REM
REM in /home/bkarasulu/work/CARBON/AIRSS/Generating-Clusters/REBO/Higher-Symm/Only-C60
REM
REM
REM
REM
REM
REM ./C.cell (a2850807a9bf4ad07a5b6933b78d9264)
REM AIRSS Version 0.9.1 bugfix July 2018 build 013d7b7c2542+ Fri, 06 Jul 2018 19:26:36 +0100
REM compiler GCC version 9.2.1 20190827 (Red Hat 9.2.1-1)
REM options -cpp -mtune=generic -march=x86-64 -g -O0 -fpre-include=/usr/include/finclude/math-vector-fortran.h
REM seed 11233548 -54539229 1659063397 927587834 -1527556334 1319422789 142673078 31159453 -1028498017 -693523880 -805919515 -676887102 -423783916 612728385 -670517809 -1968919500 -1136448174 -1752828350 511551545 1054491307 1377158472 1630037440 1422783359 -62206634 611262278 1327904352 -1920493004 -587157774 -508595494 -408003492 -1278563405 -1400004983 1288082399
REM
CELL 1.54180   15.00000   15.00000   15.00000   90.00000   90.00000   90.00000
LATT -1
SFAC C  
C      1  0.3815630000000  0.3318990000000  0.4238520000000 1.0
C      1  0.6062800000000  0.3430500000000  0.5684100000000 1.0
C      1  0.3937200000000  0.6569500000000  0.4315900000000 1.0
C      1  0.6184370000000  0.6681010000000  0.5761480000000 1.0
C      1  0.3441330000000  0.4407670000000  0.6481000000000 1.0
C      1  0.6576180000000  0.4482680000000  0.3524310000000 1.0
C      1  0.3423820000000  0.5517320000000  0.6475690000000 1.0
C      1  0.6558670000000  0.5592330000000  0.3519000000000 1.0
C      1  0.3475950000000  0.3206680000000  0.5291510000000 1.0
C      1  0.6306910000000  0.3239310000000  0.4686360000000 1.0
C      1  0.3693090000000  0.6760690000000  0.5313640000000 1.0
C      1  0.6524050000000  0.6793320000000  0.4708490000000 1.0
C      1  0.3026960000000  0.6174070000000  0.5688900000000 1.0
C      1  0.7020840000000  0.6038310000000  0.4373530000000 1.0
C      1  0.2979160000000  0.3961690000000  0.5626470000000 1.0
C      1  0.6973040000000  0.3825930000000  0.4311100000000 1.0
C      1  0.3879470000000  0.5179740000000  0.5497810000000 1.0
C      1  0.5716360000000  0.5808150000000  0.4265970000000 1.0
C      1  0.4283640000000  0.4191850000000  0.5734030000000 1.0
C      1  0.6120530000000  0.4820260000000  0.4502190000000 1.0
C      1  0.7525850000000  0.4436540000000  0.4830120000000 1.0
C      1  0.2485500000000  0.4635550000000  0.5159420000000 1.0
C      1  0.7514500000000  0.5364450000000  0.4840580000000 1.0
C      1  0.2474150000000  0.5563460000000  0.5169880000000 1.0
C      1  0.4605260000000  0.3740550000000  0.4874510000000 1.0
C      1  0.5905230000000  0.4492010000000  0.5465590000000 1.0
C      1  0.4094760000000  0.5507990000000  0.4534410000000 1.0
C      1  0.5394740000000  0.6259450000000  0.5125490000000 1.0
C      1  0.5060820000000  0.6063380000000  0.6900450000000 1.0
C      1  0.4970470000000  0.6119360000000  0.3133360000000 1.0
C      1  0.5029530000000  0.3880640000000  0.6866640000000 1.0
C      1  0.4939180000000  0.3936620000000  0.3099540000000 1.0
C      1  0.5187510000000  0.4250500000000  0.4371360000000 1.0
C      1  0.5113060000000  0.4835770000000  0.5847480000000 1.0
C      1  0.4886940000000  0.5164230000000  0.4152520000000 1.0
C      1  0.4812500000000  0.5749500000000  0.5628650000000 1.0
C      1  0.3454370000000  0.4112580000000  0.3630550000000 1.0
C      1  0.6580040000000  0.3994420000000  0.6488290000000 1.0
C      1  0.3419970000000  0.6005580000000  0.3511710000000 1.0
C      1  0.6545630000000  0.5887420000000  0.6369450000000 1.0
C      1  0.4798050000000  0.3176490000000  0.3688030000000 1.0
C      1  0.5094840000000  0.3217720000000  0.6142740000000 1.0
C      1  0.4905160000000  0.6782280000000  0.3857260000000 1.0
C      1  0.5201950000000  0.6823500000000  0.6311970000000 1.0
C      1  0.4182180000000  0.5537790000000  0.3085770000000 1.0
C      1  0.5810240000000  0.5448340000000  0.6849860000000 1.0
C      1  0.4189760000000  0.4551660000000  0.3150140000000 1.0
C      1  0.5817820000000  0.4462210000000  0.6914230000000 1.0
C      1  0.5845540000000  0.4117070000000  0.2889230000000 1.0
C      1  0.4155610000000  0.4053210000000  0.7175570000000 1.0
C      1  0.5844390000000  0.5946790000000  0.2824430000000 1.0
C      1  0.4154460000000  0.5882920000000  0.7110770000000 1.0
C      1  0.4250810000000  0.2866110000000  0.5815510000000 1.0
C      1  0.5581300000000  0.2909560000000  0.4160910000000 1.0
C      1  0.4418700000000  0.7090440000000  0.5839090000000 1.0
C      1  0.5749190000000  0.7133890000000  0.4184490000000 1.0
C      1  0.7344860000000  0.5402100000000  0.6291910000000 1.0
C      1  0.2626880000000  0.5513830000000  0.3625560000000 1.0
C      1  0.7373120000000  0.4486170000000  0.6374440000000 1.0
C      1  0.2655140000000  0.4597900000000  0.3708090000000 1.0
END
