TITL C-3036481-494-637 1.14079314116212e-07 3375 -352.379326156577 0 0 60 (Td) n - 1
REM
REM in /home/bkarasulu/work/CARBON/AIRSS/Generating-Clusters/REBO/Higher-Symm/Only-C60
REM
REM
REM
REM
REM
REM ./C.cell (a2850807a9bf4ad07a5b6933b78d9264)
REM AIRSS Version 0.9.1 bugfix July 2018 build 013d7b7c2542+ Fri, 06 Jul 2018 19:26:36 +0100
REM compiler GCC version 9.2.1 20190827 (Red Hat 9.2.1-1)
REM options -cpp -mtune=generic -march=x86-64 -g -O0 -fpre-include=/usr/include/finclude/math-vector-fortran.h
REM seed 2031415455 1316658101 168522795 65636955 1313968392 -710164782 -1806815425 1812583256 -1695983857 2037765378 1811092731 407202312 1992174037 1913238990 1705287075 -1353290119 1771371174 -690659287 -1931418999 -878355236 -920533186 -2087161093 1145118429 467116357 1235894950 666648926 339591260 -862343478 -1916390955 489713171 1640787724 2088814835 -810123992
REM
CELL 1.54180   15.00000   15.00000   15.00000   90.00000   90.00000   90.00000
LATT -1
SFAC C  
C      1  0.6408360000000  0.2881530000000  0.4297650000000 1.0
C      1  0.4297650000000  0.6408360000000  0.2881530000000 1.0
C      1  0.2881530000000  0.4297650000000  0.6408360000000 1.0
C      1  0.3591640000000  0.7118470000000  0.4297650000000 1.0
C      1  0.3591640000000  0.2881530000000  0.5702350000000 1.0
C      1  0.6408360000000  0.7118470000000  0.5702350000000 1.0
C      1  0.5702350000000  0.3591640000000  0.2881530000000 1.0
C      1  0.5702350000000  0.6408360000000  0.7118470000000 1.0
C      1  0.4297650000000  0.3591640000000  0.7118470000000 1.0
C      1  0.7118470000000  0.5702350000000  0.6408360000000 1.0
C      1  0.7118470000000  0.4297650000000  0.3591640000000 1.0
C      1  0.2881530000000  0.5702350000000  0.3591640000000 1.0
C      1  0.2881530000000  0.6408360000000  0.4297650000000 1.0
C      1  0.6408360000000  0.4297650000000  0.2881530000000 1.0
C      1  0.4297650000000  0.2881530000000  0.6408360000000 1.0
C      1  0.7118470000000  0.3591640000000  0.4297650000000 1.0
C      1  0.2881530000000  0.3591640000000  0.5702350000000 1.0
C      1  0.7118470000000  0.6408360000000  0.5702350000000 1.0
C      1  0.3591640000000  0.5702350000000  0.2881530000000 1.0
C      1  0.6408360000000  0.5702350000000  0.7118470000000 1.0
C      1  0.3591640000000  0.4297650000000  0.7118470000000 1.0
C      1  0.5702350000000  0.7118470000000  0.6408360000000 1.0
C      1  0.4297650000000  0.7118470000000  0.3591640000000 1.0
C      1  0.5702350000000  0.2881530000000  0.3591640000000 1.0
C      1  0.4789750000000  0.2990390000000  0.4134710000000 1.0
C      1  0.4134710000000  0.4789750000000  0.2990390000000 1.0
C      1  0.2990390000000  0.4134710000000  0.4789750000000 1.0
C      1  0.5210250000000  0.7009610000000  0.4134710000000 1.0
C      1  0.5210250000000  0.2990390000000  0.5865290000000 1.0
C      1  0.4789750000000  0.7009610000000  0.5865290000000 1.0
C      1  0.5865290000000  0.5210250000000  0.2990390000000 1.0
C      1  0.5865290000000  0.4789750000000  0.7009610000000 1.0
C      1  0.4134710000000  0.5210250000000  0.7009610000000 1.0
C      1  0.7009610000000  0.5865290000000  0.4789750000000 1.0
C      1  0.7009610000000  0.4134710000000  0.5210250000000 1.0
C      1  0.2990390000000  0.5865290000000  0.5210250000000 1.0
C      1  0.2990390000000  0.4789750000000  0.4134710000000 1.0
C      1  0.4789750000000  0.4134710000000  0.2990390000000 1.0
C      1  0.4134710000000  0.2990390000000  0.4789750000000 1.0
C      1  0.7009610000000  0.5210250000000  0.4134710000000 1.0
C      1  0.2990390000000  0.5210250000000  0.5865290000000 1.0
C      1  0.7009610000000  0.4789750000000  0.5865290000000 1.0
C      1  0.5210250000000  0.5865290000000  0.2990390000000 1.0
C      1  0.4789750000000  0.5865290000000  0.7009610000000 1.0
C      1  0.5210250000000  0.4134710000000  0.7009610000000 1.0
C      1  0.5865290000000  0.7009610000000  0.4789750000000 1.0
C      1  0.4134710000000  0.7009610000000  0.5210250000000 1.0
C      1  0.5865290000000  0.2990390000000  0.5210250000000 1.0
C      1  0.4811890000000  0.4025530000000  0.5974470000000 1.0
C      1  0.4811890000000  0.5974470000000  0.4025530000000 1.0
C      1  0.4025530000000  0.5974470000000  0.4811890000000 1.0
C      1  0.5974470000000  0.4025530000000  0.4811890000000 1.0
C      1  0.4025530000000  0.4811890000000  0.5974470000000 1.0
C      1  0.5974470000000  0.4811890000000  0.4025530000000 1.0
C      1  0.5188110000000  0.5974470000000  0.5974470000000 1.0
C      1  0.5974470000000  0.5188110000000  0.5974470000000 1.0
C      1  0.5974470000000  0.5974470000000  0.5188110000000 1.0
C      1  0.5188110000000  0.4025530000000  0.4025530000000 1.0
C      1  0.4025530000000  0.5188110000000  0.4025530000000 1.0
C      1  0.4025530000000  0.4025530000000  0.5188110000000 1.0
END
