TITL C-3036486-2224-448 -0.155990262525971 3375 -328.996527613691 0 0 60 (C1) n - 1
REM
REM in /home/bkarasulu/work/CARBON/AIRSS/Generating-Clusters/REBO/Higher-Symm/Only-C60
REM
REM
REM
REM
REM
REM ./C.cell (a2850807a9bf4ad07a5b6933b78d9264)
REM AIRSS Version 0.9.1 bugfix July 2018 build 013d7b7c2542+ Fri, 06 Jul 2018 19:26:36 +0100
REM compiler GCC version 9.2.1 20190827 (Red Hat 9.2.1-1)
REM options -cpp -mtune=generic -march=x86-64 -g -O0 -fpre-include=/usr/include/finclude/math-vector-fortran.h
REM seed -344816488 -1415183496 1433625311 104323805 1609179086 -1617161758 -314770986 -434849047 -1650445020 597061825 -32122866 2056831162 1787241105 -1347742844 581814447 1675231551 232460561 -1134990342 -1416262118 -1510797801 79885038 -1174053385 -424202075 1622871775 1631863431 -1826556626 2147117341 1974872990 32987481 -1353944600 -1184712025 -1949739166 -2065970661
REM
CELL 1.54180   15.00000   15.00000   15.00000   90.00000   90.00000   90.00000
LATT -1
SFAC C  
C      1  0.4213280000000  0.4881660000000  0.6857270000000 1.0
C      1  0.6868450000000  0.5213010000000  0.4758430000000 1.0
C      1  0.3819920000000  0.5243480000000  0.3571200000000 1.0
C      1  0.6940070000000  0.6312020000000  0.5492860000000 1.0
C      1  0.4488170000000  0.6294890000000  0.3122500000000 1.0
C      1  0.3730890000000  0.6365570000000  0.6403420000000 1.0
C      1  0.5169650000000  0.5433120000000  0.6848110000000 1.0
C      1  0.6460470000000  0.5373450000000  0.3742950000000 1.0
C      1  0.3261490000000  0.5433690000000  0.4508930000000 1.0
C      1  0.3573230000000  0.5325790000000  0.6332770000000 1.0
C      1  0.6784040000000  0.5263510000000  0.5858130000000 1.0
C      1  0.4780670000000  0.5222790000000  0.3030800000000 1.0
C      1  0.6248380000000  0.6971960000000  0.6057550000000 1.0
C      1  0.5387100000000  0.6887060000000  0.3399940000000 1.0
C      1  0.3474920000000  0.6934270000000  0.5491490000000 1.0
C      1  0.6053150000000  0.2978080000000  0.6332630000000 1.0
C      1  0.5652030000000  0.2912280000000  0.3482990000000 1.0
C      1  0.3410980000000  0.2974490000000  0.5309170000000 1.0
C      1  0.5159030000000  0.3449920000000  0.5939210000000 1.0
C      1  0.5713550000000  0.3500140000000  0.4399780000000 1.0
C      1  0.4104490000000  0.3548220000000  0.4705520000000 1.0
C      1  0.5841380000000  0.7034170000000  0.4322000000000 1.0
C      1  0.4059690000000  0.7091000000000  0.4644060000000 1.0
C      1  0.5238750000000  0.7124930000000  0.6032860000000 1.0
C      1  0.6057440000000  0.2584940000000  0.5297240000000 1.0
C      1  0.4742170000000  0.2633010000000  0.3983620000000 1.0
C      1  0.4293620000000  0.2460250000000  0.5744940000000 1.0
C      1  0.7119940000000  0.4187560000000  0.4843530000000 1.0
C      1  0.3785140000000  0.4215000000000  0.3281510000000 1.0
C      1  0.4106950000000  0.3976790000000  0.7055150000000 1.0
C      1  0.4206460000000  0.6067400000000  0.5428460000000 1.0
C      1  0.5827630000000  0.6086500000000  0.5484850000000 1.0
C      1  0.5072070000000  0.6015600000000  0.4054090000000 1.0
C      1  0.6820480000000  0.4373390000000  0.3344670000000 1.0
C      1  0.2712980000000  0.4442320000000  0.4463210000000 1.0
C      1  0.5356990000000  0.4427700000000  0.7358340000000 1.0
C      1  0.4798540000000  0.6426570000000  0.6562450000000 1.0
C      1  0.6583540000000  0.6277810000000  0.4417270000000 1.0
C      1  0.3778250000000  0.6308070000000  0.3999930000000 1.0
C      1  0.5595920000000  0.4839140000000  0.3234830000000 1.0
C      1  0.3276020000000  0.4951200000000  0.5539320000000 1.0
C      1  0.6108520000000  0.4947790000000  0.6418480000000 1.0
C      1  0.4020390000000  0.3469500000000  0.3715500000000 1.0
C      1  0.4361120000000  0.3272520000000  0.6523150000000 1.0
C      1  0.6626590000000  0.3446020000000  0.4821380000000 1.0
C      1  0.2984560000000  0.3944650000000  0.5294590000000 1.0
C      1  0.6045320000000  0.3947610000000  0.6788090000000 1.0
C      1  0.5976250000000  0.3857320000000  0.3144030000000 1.0
C      1  0.6256960000000  0.2309070000000  0.4216530000000 1.0
C      1  0.3804130000000  0.2275040000000  0.4508070000000 1.0
C      1  0.5242890000000  0.2183590000000  0.6301570000000 1.0
C      1  0.5062680000000  0.8481180000000  0.4956660000000 1.0
C      1  0.5003190000000  0.3797110000000  0.5028210000000 1.0
C      1  0.5044150000000  0.2191980000000  0.4983740000000 1.0
C      1  0.5044660000000  0.7432950000000  0.4988930000000 1.0
C      1  0.5049140000000  0.4779460000000  0.5067890000000 1.0
C      1  0.5038800000000  0.5762080000000  0.5005120000000 1.0
C      1  0.5079660000000  0.1149480000000  0.4921970000000 1.0
C      1  0.5065710000000  0.9367960000000  0.4948040000000 1.0
C      1  0.5071510000000  0.0262911000000  0.4933850000000 1.0
END
