TITL C-3036479-9801-631 -3.53344810446642e-06 3375 -354.663197115629 0 0 60 (C2) n - 1
REM
REM in /home/bkarasulu/work/CARBON/AIRSS/Generating-Clusters/REBO/Higher-Symm/Only-C60
REM
REM
REM
REM
REM
REM ./C.cell (a2850807a9bf4ad07a5b6933b78d9264)
REM AIRSS Version 0.9.1 bugfix July 2018 build 013d7b7c2542+ Fri, 06 Jul 2018 19:26:36 +0100
REM compiler GCC version 9.2.1 20190827 (Red Hat 9.2.1-1)
REM options -cpp -mtune=generic -march=x86-64 -g -O0 -fpre-include=/usr/include/finclude/math-vector-fortran.h
REM seed 703661156 1549843590 80471272 -1851942867 -934166166 -1149224059 1713961909 670275031 1379734672 683549820 1793724660 1192900164 -2066124114 91656841 1327463828 -1139756488 -899505588 959962844 735027250 1253973952 -1434618253 -423573533 885438086 842173026 -424596651 604271954 420038746 669884523 -1800286573 905169946 1928950000 472954814 -1644747312
REM
CELL 1.54180   15.00000   15.00000   15.00000   90.00000   90.00000   90.00000
LATT -1
SFAC C  
C      1  0.7393440000000  0.5893380000000  0.5373100000000 1.0
C      1  0.4182520000000  0.7409930000000  0.5383060000000 1.0
C      1  0.2606570000000  0.4106620000000  0.5373090000000 1.0
C      1  0.5817480000000  0.2590060000000  0.5383060000000 1.0
C      1  0.7578890000000  0.4124810000000  0.5371980000000 1.0
C      1  0.4117430000000  0.2461420000000  0.5385450000000 1.0
C      1  0.2421110000000  0.5875190000000  0.5371960000000 1.0
C      1  0.5882560000000  0.7538590000000  0.5385440000000 1.0
C      1  0.7133720000000  0.5489560000000  0.6291630000000 1.0
C      1  0.4529860000000  0.7160020000000  0.6326850000000 1.0
C      1  0.2866290000000  0.4510440000000  0.6291610000000 1.0
C      1  0.5470140000000  0.2839980000000  0.6326850000000 1.0
C      1  0.7325300000000  0.4475650000000  0.6312210000000 1.0
C      1  0.4444580000000  0.2673870000000  0.6355840000000 1.0
C      1  0.2674710000000  0.5524360000000  0.6312180000000 1.0
C      1  0.5555430000000  0.7326130000000  0.6355830000000 1.0
C      1  0.2646560000000  0.4501370000000  0.4411300000000 1.0
C      1  0.5464990000000  0.2643540000000  0.4408450000000 1.0
C      1  0.7353430000000  0.5498620000000  0.4411320000000 1.0
C      1  0.4535000000000  0.7356460000000  0.4408450000000 1.0
C      1  0.2558900000000  0.5484810000000  0.4403260000000 1.0
C      1  0.5521620000000  0.7443660000000  0.4395580000000 1.0
C      1  0.7441090000000  0.4515190000000  0.4403280000000 1.0
C      1  0.4478380000000  0.2556350000000  0.4395590000000 1.0
C      1  0.5610870000000  0.3861710000000  0.6621460000000 1.0
C      1  0.6127010000000  0.5605960000000  0.6612800000000 1.0
C      1  0.4389140000000  0.6138290000000  0.6621460000000 1.0
C      1  0.3873000000000  0.4394040000000  0.6612790000000 1.0
C      1  0.5461800000000  0.6268440000000  0.6629720000000 1.0
C      1  0.6270470000000  0.4534040000000  0.6609150000000 1.0
C      1  0.4538210000000  0.3731560000000  0.6629720000000 1.0
C      1  0.3729540000000  0.5465960000000  0.6609140000000 1.0
C      1  0.3443080000000  0.5907540000000  0.5298490000000 1.0
C      1  0.4262740000000  0.3482820000000  0.5321040000000 1.0
C      1  0.6556920000000  0.4092460000000  0.5298520000000 1.0
C      1  0.5737260000000  0.6517180000000  0.5321040000000 1.0
C      1  0.3624000000000  0.4172400000000  0.5251810000000 1.0
C      1  0.4261670000000  0.6388240000000  0.5278510000000 1.0
C      1  0.6376000000000  0.5827600000000  0.5251840000000 1.0
C      1  0.5738330000000  0.3611760000000  0.5278510000000 1.0
C      1  0.4054900000000  0.6722200000000  0.3845410000000 1.0
C      1  0.3267810000000  0.4038590000000  0.3824590000000 1.0
C      1  0.5945100000000  0.3277800000000  0.3845420000000 1.0
C      1  0.6732180000000  0.5961410000000  0.3824610000000 1.0
C      1  0.3965210000000  0.3169890000000  0.3850140000000 1.0
C      1  0.3182400000000  0.6010130000000  0.3874270000000 1.0
C      1  0.6034790000000  0.6830120000000  0.3850140000000 1.0
C      1  0.6817590000000  0.3989870000000  0.3874280000000 1.0
C      1  0.3815930000000  0.4642270000000  0.3159150000000 1.0
C      1  0.5352570000000  0.3821400000000  0.3167860000000 1.0
C      1  0.6184070000000  0.5357730000000  0.3159160000000 1.0
C      1  0.4647430000000  0.6178600000000  0.3167860000000 1.0
C      1  0.3837780000000  0.5573490000000  0.3214050000000 1.0
C      1  0.5579800000000  0.6171630000000  0.3198970000000 1.0
C      1  0.6162220000000  0.4426510000000  0.3214060000000 1.0
C      1  0.4420200000000  0.3828370000000  0.3198960000000 1.0
C      1  0.5058820000000  0.5663670000000  0.5176060000000 1.0
C      1  0.4087250000000  0.5079740000000  0.5157780000000 1.0
C      1  0.4941190000000  0.4336330000000  0.5176060000000 1.0
C      1  0.5912750000000  0.4920260000000  0.5157820000000 1.0
END
