TITL C-3036479-9801-862 -0.0019585585730824 3375 -358.454475998937 0 0 60 (C1) n - 1
REM
REM in /home/bkarasulu/work/CARBON/AIRSS/Generating-Clusters/REBO/Higher-Symm/Only-C60
REM
REM
REM
REM
REM
REM ./C.cell (a2850807a9bf4ad07a5b6933b78d9264)
REM AIRSS Version 0.9.1 bugfix July 2018 build 013d7b7c2542+ Fri, 06 Jul 2018 19:26:36 +0100
REM compiler GCC version 9.2.1 20190827 (Red Hat 9.2.1-1)
REM options -cpp -mtune=generic -march=x86-64 -g -O0 -fpre-include=/usr/include/finclude/math-vector-fortran.h
REM seed 302620482 297593914 -186997280 1122420349 1489410979 -1558881729 -1259314399 26546013 -1158305718 -960999603 -191695101 1461015059 -1138383053 752331438 569868391 2117962312 271566888 1338765405 -586926231 242789089 -812717462 123153343 -953810271 1747243568 -442257830 1576273351 1625274493 -1942477396 762207058 2080712546 1293591889 -432963908 87201943
REM
CELL 1.54180   15.00000   15.00000   15.00000   90.00000   90.00000   90.00000
LATT -1
SFAC C  
C      1  0.6278800000000  0.6626380000000  0.6160580000000 1.0
C      1  0.3824140000000  0.6792720000000  0.6193240000000 1.0
C      1  0.2983400000000  0.4469020000000  0.6173250000000 1.0
C      1  0.4880140000000  0.2968520000000  0.6134590000000 1.0
C      1  0.6895220000000  0.4285820000000  0.6132870000000 1.0
C      1  0.6320700000000  0.6594780000000  0.3843220000000 1.0
C      1  0.3913450000000  0.6695470000000  0.3872450000000 1.0
C      1  0.3031090000000  0.4456150000000  0.3859050000000 1.0
C      1  0.4901860000000  0.2872800000000  0.3810480000000 1.0
C      1  0.6964050000000  0.4236460000000  0.3817670000000 1.0
C      1  0.6885780000000  0.6110330000000  0.4491040000000 1.0
C      1  0.4529030000000  0.7099880000000  0.4521380000000 1.0
C      1  0.2916730000000  0.5153090000000  0.4552730000000 1.0
C      1  0.4183270000000  0.2995200000000  0.4495330000000 1.0
C      1  0.6644400000000  0.3560320000000  0.4468530000000 1.0
C      1  0.6811360000000  0.6134050000000  0.5479040000000 1.0
C      1  0.4479620000000  0.7126650000000  0.5511700000000 1.0
C      1  0.2827630000000  0.5204330000000  0.5533790000000 1.0
C      1  0.4139900000000  0.3007210000000  0.5486080000000 1.0
C      1  0.6597110000000  0.3634260000000  0.5452590000000 1.0
C      1  0.5396230000000  0.4250260000000  0.5387030000000 1.0
C      1  0.5835640000000  0.5227060000000  0.5471230000000 1.0
C      1  0.5030690000000  0.5915570000000  0.5578760000000 1.0
C      1  0.4132520000000  0.5396020000000  0.5730090000000 1.0
C      1  0.4334640000000  0.4384700000000  0.5548770000000 1.0
C      1  0.5474630000000  0.4175810000000  0.4295240000000 1.0
C      1  0.5925200000000  0.5114760000000  0.4386030000000 1.0
C      1  0.5187380000000  0.5862660000000  0.4499750000000 1.0
C      1  0.4250650000000  0.5357200000000  0.4644770000000 1.0
C      1  0.4441660000000  0.4302580000000  0.4463330000000 1.0
C      1  0.6197880000000  0.6145740000000  0.3010310000000 1.0
C      1  0.4287770000000  0.6468820000000  0.3029090000000 1.0
C      1  0.3365230000000  0.4765860000000  0.3019890000000 1.0
C      1  0.4717970000000  0.3329110000000  0.2982430000000 1.0
C      1  0.6489470000000  0.4213340000000  0.2985970000000 1.0
C      1  0.6183280000000  0.6168210000000  0.6994220000000 1.0
C      1  0.4243770000000  0.6524770000000  0.7019980000000 1.0
C      1  0.3345470000000  0.4759330000000  0.7007670000000 1.0
C      1  0.4710000000000  0.3382480000000  0.6974780000000 1.0
C      1  0.6450530000000  0.4233770000000  0.6974400000000 1.0
C      1  0.3538020000000  0.3750910000000  0.5818010000000 1.0
C      1  0.5704430000000  0.3291490000000  0.5780240000000 1.0
C      1  0.6846300000000  0.5178590000000  0.5812260000000 1.0
C      1  0.5403890000000  0.6873890000000  0.5854420000000 1.0
C      1  0.3321540000000  0.6025340000000  0.5878320000000 1.0
C      1  0.3591660000000  0.3745400000000  0.4159360000000 1.0
C      1  0.5759680000000  0.3193140000000  0.4123150000000 1.0
C      1  0.6941980000000  0.5153030000000  0.4157140000000 1.0
C      1  0.5454100000000  0.6844550000000  0.4198790000000 1.0
C      1  0.3439640000000  0.5950850000000  0.4224740000000 1.0
C      1  0.4149170000000  0.5457200000000  0.7372080000000 1.0
C      1  0.4313400000000  0.4351140000000  0.7381780000000 1.0
C      1  0.5408170000000  0.4159560000000  0.7377430000000 1.0
C      1  0.5926530000000  0.5144630000000  0.7373370000000 1.0
C      1  0.5149030000000  0.5948550000000  0.7371970000000 1.0
C      1  0.4173640000000  0.5431390000000  0.2623580000000 1.0
C      1  0.4325260000000  0.4325980000000  0.2629970000000 1.0
C      1  0.5424470000000  0.4132360000000  0.2628500000000 1.0
C      1  0.5946980000000  0.5120520000000  0.2621350000000 1.0
C      1  0.5173820000000  0.5919980000000  0.2620200000000 1.0
END
