TITL C-3036486-2224-1180 2.90353665964587e-06 3375 -346.560581827168 0 0 60 (C1) n - 1
REM
REM in /home/bkarasulu/work/CARBON/AIRSS/Generating-Clusters/REBO/Higher-Symm/Only-C60
REM
REM
REM
REM
REM
REM ./C.cell (a2850807a9bf4ad07a5b6933b78d9264)
REM AIRSS Version 0.9.1 bugfix July 2018 build 013d7b7c2542+ Fri, 06 Jul 2018 19:26:36 +0100
REM compiler GCC version 9.2.1 20190827 (Red Hat 9.2.1-1)
REM options -cpp -mtune=generic -march=x86-64 -g -O0 -fpre-include=/usr/include/finclude/math-vector-fortran.h
REM seed -1995521648 714606652 -731187491 245954782 1626027717 -1535585367 1631617076 186441029 1863076010 -1719302732 1707629530 1247395080 -1374012876 -351186852 506655447 982451282 366711814 -1554403943 1012121590 696888258 -1645221461 791546695 651421946 -2129121961 838102255 1846402407 1755806890 2004382148 743386389 -1103252181 -1527565185 799043692 472477576
REM
CELL 1.54180   15.00000   15.00000   15.00000   90.00000   90.00000   90.00000
LATT -1
SFAC C  
C      1  0.5498210000000  0.6557570000000  0.3497660000000 1.0
C      1  0.5348210000000  0.5541350000000  0.6934440000000 1.0
C      1  0.5549690000000  0.3128730000000  0.4370820000000 1.0
C      1  0.4546110000000  0.3444270000000  0.3573750000000 1.0
C      1  0.4618410000000  0.4439230000000  0.6978780000000 1.0
C      1  0.4606930000000  0.6869360000000  0.4420730000000 1.0
C      1  0.4446260000000  0.3565210000000  0.6352540000000 1.0
C      1  0.4653990000000  0.4445310000000  0.3162870000000 1.0
C      1  0.4502170000000  0.6763400000000  0.5520730000000 1.0
C      1  0.5506310000000  0.6416660000000  0.6296600000000 1.0
C      1  0.5366520000000  0.5556200000000  0.3122300000000 1.0
C      1  0.5384950000000  0.3225810000000  0.5488160000000 1.0
C      1  0.7015410000000  0.5077780000000  0.4021660000000 1.0
C      1  0.6989110000000  0.5872450000000  0.5574390000000 1.0
C      1  0.6987370000000  0.4106640000000  0.5426820000000 1.0
C      1  0.3003600000000  0.4949370000000  0.4045420000000 1.0
C      1  0.2991600000000  0.4136360000000  0.5566930000000 1.0
C      1  0.2999070000000  0.5907760000000  0.5461550000000 1.0
C      1  0.2998220000000  0.4979750000000  0.5977240000000 1.0
C      1  0.3023840000000  0.4146200000000  0.4515590000000 1.0
C      1  0.2986820000000  0.5889960000000  0.4526690000000 1.0
C      1  0.6983640000000  0.5021380000000  0.5966200000000 1.0
C      1  0.7008330000000  0.5876090000000  0.4510380000000 1.0
C      1  0.7026590000000  0.4134610000000  0.4493050000000 1.0
C      1  0.4318380000000  0.5641380000000  0.5567620000000 1.0
C      1  0.4304720000000  0.4052580000000  0.5329830000000 1.0
C      1  0.4367150000000  0.5070650000000  0.4079220000000 1.0
C      1  0.5602660000000  0.4340820000000  0.5519030000000 1.0
C      1  0.5687580000000  0.5906450000000  0.5287460000000 1.0
C      1  0.5689770000000  0.4938090000000  0.4031880000000 1.0
C      1  0.5695910000000  0.4191810000000  0.4550620000000 1.0
C      1  0.5683070000000  0.5863150000000  0.4378170000000 1.0
C      1  0.5615130000000  0.5148600000000  0.5917260000000 1.0
C      1  0.4361100000000  0.5813470000000  0.4597230000000 1.0
C      1  0.4352630000000  0.4147800000000  0.4424850000000 1.0
C      1  0.4322600000000  0.4826770000000  0.5960090000000 1.0
C      1  0.6610160000000  0.6861250000000  0.5773300000000 1.0
C      1  0.6586220000000  0.3428630000000  0.6117110000000 1.0
C      1  0.6653260000000  0.4434490000000  0.3261160000000 1.0
C      1  0.3314060000000  0.3163370000000  0.5798650000000 1.0
C      1  0.3372390000000  0.6571360000000  0.6186130000000 1.0
C      1  0.3348740000000  0.5588040000000  0.3291540000000 1.0
C      1  0.3453560000000  0.3215470000000  0.4733150000000 1.0
C      1  0.3333340000000  0.6543190000000  0.3795740000000 1.0
C      1  0.3361800000000  0.5631460000000  0.6700880000000 1.0
C      1  0.6588410000000  0.6803950000000  0.4724870000000 1.0
C      1  0.6684260000000  0.3477630000000  0.3767130000000 1.0
C      1  0.6614910000000  0.4352510000000  0.6669400000000 1.0
C      1  0.5559210000000  0.7203130000000  0.5472450000000 1.0
C      1  0.5557190000000  0.3551110000000  0.6578730000000 1.0
C      1  0.5716860000000  0.4547850000000  0.2771530000000 1.0
C      1  0.4351810000000  0.2753330000000  0.5591390000000 1.0
C      1  0.4416140000000  0.6439690000000  0.6616160000000 1.0
C      1  0.4278400000000  0.5449060000000  0.2817320000000 1.0
C      1  0.4461540000000  0.2823070000000  0.4489160000000 1.0
C      1  0.4379970000000  0.6419080000000  0.3396710000000 1.0
C      1  0.4266530000000  0.5464560000000  0.7175440000000 1.0
C      1  0.5690520000000  0.7195200000000  0.4346830000000 1.0
C      1  0.5645170000000  0.3570270000000  0.3326410000000 1.0
C      1  0.5713500000000  0.4519280000000  0.7150270000000 1.0
END
