TITL C-3036483-1610-880 1.9312091019863e-05 3375 -349.221234661748 0 0 60 (Th) n - 1
REM
REM in /home/bkarasulu/work/CARBON/AIRSS/Generating-Clusters/REBO/Higher-Symm/Only-C60
REM
REM
REM
REM
REM
REM ./C.cell (a2850807a9bf4ad07a5b6933b78d9264)
REM AIRSS Version 0.9.1 bugfix July 2018 build 013d7b7c2542+ Fri, 06 Jul 2018 19:26:36 +0100
REM compiler GCC version 9.2.1 20190827 (Red Hat 9.2.1-1)
REM options -cpp -mtune=generic -march=x86-64 -g -O0 -fpre-include=/usr/include/finclude/math-vector-fortran.h
REM seed -439752473 -1824896292 553102393 1338617479 554456995 -554764079 2124216681 1349825447 1874026280 -36944596 1371578309 681268484 -704852283 1814071811 1543262601 -461537702 -1095048037 1942782280 -1105675277 828906048 1844243844 -631643623 -1962303894 1557485841 -988811183 -351636481 1784012495 -1277097660 -115886709 -600467632 -1420923566 1572009670 -1934632889
REM
CELL 1.54180   15.00000   15.00000   15.00000   90.00000   90.00000   90.00000
LATT -1
SFAC C  
C      1  0.2893250000000  0.5572940000000  0.4462000000000 1.0
C      1  0.5572940000000  0.4462000000000  0.2893250000000 1.0
C      1  0.4462000000000  0.2893250000000  0.5572940000000 1.0
C      1  0.7106750000000  0.5572940000000  0.5538000000000 1.0
C      1  0.7106750000000  0.4427060000000  0.4462000000000 1.0
C      1  0.2893250000000  0.4427060000000  0.5538000000000 1.0
C      1  0.4427060000000  0.4462000000000  0.7106750000000 1.0
C      1  0.4427060000000  0.5538000000000  0.2893250000000 1.0
C      1  0.5572940000000  0.5538000000000  0.7106750000000 1.0
C      1  0.5538000000000  0.2893250000000  0.4427060000000 1.0
C      1  0.5538000000000  0.7106750000000  0.5572940000000 1.0
C      1  0.4462000000000  0.7106750000000  0.4427060000000 1.0
C      1  0.2893250000000  0.4427060000000  0.4462000000000 1.0
C      1  0.5572940000000  0.5538000000000  0.2893250000000 1.0
C      1  0.4462000000000  0.7106750000000  0.5572940000000 1.0
C      1  0.7106750000000  0.4427060000000  0.5538000000000 1.0
C      1  0.7106750000000  0.5572940000000  0.4462000000000 1.0
C      1  0.2893250000000  0.5572940000000  0.5538000000000 1.0
C      1  0.4427060000000  0.5538000000000  0.7106750000000 1.0
C      1  0.4427060000000  0.4462000000000  0.2893250000000 1.0
C      1  0.5572940000000  0.4462000000000  0.7106750000000 1.0
C      1  0.5538000000000  0.7106750000000  0.4427060000000 1.0
C      1  0.5538000000000  0.2893250000000  0.5572940000000 1.0
C      1  0.4462000000000  0.2893250000000  0.4427060000000 1.0
C      1  0.5839720000000  0.3288600000000  0.3460830000000 1.0
C      1  0.3288600000000  0.3460830000000  0.5839720000000 1.0
C      1  0.3460830000000  0.5839720000000  0.3288600000000 1.0
C      1  0.4160280000000  0.3288600000000  0.6539170000000 1.0
C      1  0.4160280000000  0.6711400000000  0.3460830000000 1.0
C      1  0.5839720000000  0.6711400000000  0.6539170000000 1.0
C      1  0.6711400000000  0.3460830000000  0.4160280000000 1.0
C      1  0.6711400000000  0.6539170000000  0.5839720000000 1.0
C      1  0.3288600000000  0.6539170000000  0.4160280000000 1.0
C      1  0.6539170000000  0.5839720000000  0.6711400000000 1.0
C      1  0.6539170000000  0.4160280000000  0.3288600000000 1.0
C      1  0.3460830000000  0.4160280000000  0.6711400000000 1.0
C      1  0.5839720000000  0.6711400000000  0.3460830000000 1.0
C      1  0.3288600000000  0.6539170000000  0.5839720000000 1.0
C      1  0.3460830000000  0.4160280000000  0.3288600000000 1.0
C      1  0.4160280000000  0.6711400000000  0.6539170000000 1.0
C      1  0.4160280000000  0.3288600000000  0.3460830000000 1.0
C      1  0.5839720000000  0.3288600000000  0.6539170000000 1.0
C      1  0.6711400000000  0.6539170000000  0.4160280000000 1.0
C      1  0.6711400000000  0.3460830000000  0.5839720000000 1.0
C      1  0.3288600000000  0.3460830000000  0.4160280000000 1.0
C      1  0.6539170000000  0.4160280000000  0.6711400000000 1.0
C      1  0.6539170000000  0.5839720000000  0.3288600000000 1.0
C      1  0.3460830000000  0.5839720000000  0.6711400000000 1.0
C      1  0.3482830000000  0.7110710000000  0.5000000000000 1.0
C      1  0.6517170000000  0.2889290000000  0.5000000000000 1.0
C      1  0.2889290000000  0.5000000000000  0.6517170000000 1.0
C      1  0.5000000000000  0.6517170000000  0.2889290000000 1.0
C      1  0.7110710000000  0.5000000000000  0.3482830000000 1.0
C      1  0.5000000000000  0.6517170000000  0.7110710000000 1.0
C      1  0.5000000000000  0.3482830000000  0.7110710000000 1.0
C      1  0.5000000000000  0.3482830000000  0.2889290000000 1.0
C      1  0.7110710000000  0.5000000000000  0.6517170000000 1.0
C      1  0.2889290000000  0.5000000000000  0.3482830000000 1.0
C      1  0.3482830000000  0.2889290000000  0.5000000000000 1.0
C      1  0.6517170000000  0.7110710000000  0.5000000000000 1.0
END
