TITL C-3036486-2224-961 0.00409308663607441 3375 -338.169960928205 0 0 60 (C2) n - 1
REM
REM in /home/bkarasulu/work/CARBON/AIRSS/Generating-Clusters/REBO/Higher-Symm/Only-C60
REM
REM
REM
REM
REM
REM ./C.cell (a2850807a9bf4ad07a5b6933b78d9264)
REM AIRSS Version 0.9.1 bugfix July 2018 build 013d7b7c2542+ Fri, 06 Jul 2018 19:26:36 +0100
REM compiler GCC version 9.2.1 20190827 (Red Hat 9.2.1-1)
REM options -cpp -mtune=generic -march=x86-64 -g -O0 -fpre-include=/usr/include/finclude/math-vector-fortran.h
REM seed -1378542465 -1047870692 -411365758 1219595434 1591141598 -1967184989 -250501711 -1780550362 38844928 1865744395 316893238 -1464087176 1949195382 -689702403 598142211 -645327528 -659971410 740503748 55528016 -983640752 -612518366 1684047739 -511422277 -1482984685 1329189540 -1582865412 877409559 1238481503 -268462538 174051847 -777084116 577742336 1022943271
REM
CELL 1.54180   15.00000   15.00000   15.00000   90.00000   90.00000   90.00000
LATT -1
SFAC C  
C      1  0.2836000000000  0.5367400000000  0.3823800000000 1.0
C      1  0.4081010000000  0.3044190000000  0.4034900000000 1.0
C      1  0.6653030000000  0.3505900000000  0.4384210000000 1.0
C      1  0.7034980000000  0.6027020000000  0.3724780000000 1.0
C      1  0.4606630000000  0.7062210000000  0.4468560000000 1.0
C      1  0.7155100000000  0.5368720000000  0.6175580000000 1.0
C      1  0.5917610000000  0.3042670000000  0.5967320000000 1.0
C      1  0.3351900000000  0.3509430000000  0.5615610000000 1.0
C      1  0.2964120000000  0.6029090000000  0.6270320000000 1.0
C      1  0.5389890000000  0.7059350000000  0.5539040000000 1.0
C      1  0.3269400000000  0.6175700000000  0.4114760000000 1.0
C      1  0.3409960000000  0.3708460000000  0.4489880000000 1.0
C      1  0.5759160000000  0.2998620000000  0.4245020000000 1.0
C      1  0.7314670000000  0.5059820000000  0.3885210000000 1.0
C      1  0.5711920000000  0.7015640000000  0.4442380000000 1.0
C      1  0.6715770000000  0.6172850000000  0.5879860000000 1.0
C      1  0.6584810000000  0.3706310000000  0.5508840000000 1.0
C      1  0.4249160000000  0.3007940000000  0.5752080000000 1.0
C      1  0.2687010000000  0.5058130000000  0.6110650000000 1.0
C      1  0.4287980000000  0.7017910000000  0.5565910000000 1.0
C      1  0.4562100000000  0.3806540000000  0.5151010000000 1.0
C      1  0.6092520000000  0.4541330000000  0.4990970000000 1.0
C      1  0.6430240000000  0.6028240000000  0.4962970000000 1.0
C      1  0.4601810000000  0.5965960000000  0.5211540000000 1.0
C      1  0.3312730000000  0.5171530000000  0.5312190000000 1.0
C      1  0.5438930000000  0.3806840000000  0.4833210000000 1.0
C      1  0.3910330000000  0.4542680000000  0.5004260000000 1.0
C      1  0.3582500000000  0.6032080000000  0.5028950000000 1.0
C      1  0.5412560000000  0.5975310000000  0.4777400000000 1.0
C      1  0.6699770000000  0.5168350000000  0.4687540000000 1.0
C      1  0.5933210000000  0.4509680000000  0.3138220000000 1.0
C      1  0.5589550000000  0.5680800000000  0.3164130000000 1.0
C      1  0.4565860000000  0.5803840000000  0.3127310000000 1.0
C      1  0.4178340000000  0.4790260000000  0.3206670000000 1.0
C      1  0.5025650000000  0.4045080000000  0.3164900000000 1.0
C      1  0.4067050000000  0.4509640000000  0.6863210000000 1.0
C      1  0.4408240000000  0.5681130000000  0.6836510000000 1.0
C      1  0.5431960000000  0.5804280000000  0.6878190000000 1.0
C      1  0.5818200000000  0.4788670000000  0.6792450000000 1.0
C      1  0.4974200000000  0.4043040000000  0.6840760000000 1.0
C      1  0.5987610000000  0.5480330000000  0.2228080000000 1.0
C      1  0.4326120000000  0.6140390000000  0.2259900000000 1.0
C      1  0.3872680000000  0.4596570000000  0.2079230000000 1.0
C      1  0.4549910000000  0.4002660000000  0.2200520000000 1.0
C      1  0.6278040000000  0.4624790000000  0.2109460000000 1.0
C      1  0.4007250000000  0.5481460000000  0.7771810000000 1.0
C      1  0.5669820000000  0.6134690000000  0.7747930000000 1.0
C      1  0.6125610000000  0.4604820000000  0.7922300000000 1.0
C      1  0.5450740000000  0.4007440000000  0.7804960000000 1.0
C      1  0.3719640000000  0.4625370000000  0.7891240000000 1.0
C      1  0.5075630000000  0.3221620000000  0.6273890000000 1.0
C      1  0.6635690000000  0.4605400000000  0.6201640000000 1.0
C      1  0.5829760000000  0.6465440000000  0.6174630000000 1.0
C      1  0.3847210000000  0.6302780000000  0.6302380000000 1.0
C      1  0.3283130000000  0.4238230000000  0.6260020000000 1.0
C      1  0.4924550000000  0.3226350000000  0.3735260000000 1.0
C      1  0.3358970000000  0.4606820000000  0.3796780000000 1.0
C      1  0.4170080000000  0.6461690000000  0.3836720000000 1.0
C      1  0.6152290000000  0.6303920000000  0.3693920000000 1.0
C      1  0.6719420000000  0.4236600000000  0.3738250000000 1.0
END
