TITL C-3036479-9801-300 2.43827254998998e-05 3375 -349.808426186179 0 0 60 (C10) n - 1
REM
REM in /home/bkarasulu/work/CARBON/AIRSS/Generating-Clusters/REBO/Higher-Symm/Only-C60
REM
REM
REM
REM
REM
REM ./C.cell (a2850807a9bf4ad07a5b6933b78d9264)
REM AIRSS Version 0.9.1 bugfix July 2018 build 013d7b7c2542+ Fri, 06 Jul 2018 19:26:36 +0100
REM compiler GCC version 9.2.1 20190827 (Red Hat 9.2.1-1)
REM options -cpp -mtune=generic -march=x86-64 -g -O0 -fpre-include=/usr/include/finclude/math-vector-fortran.h
REM seed 619624965 184299181 643501908 -2142880162 2022538598 1852380451 -1167426345 -1187054917 -1524453269 678674208 -545284964 -1845308322 -1704360178 -200031906 1123791420 78606662 -2121090995 1194208755 542354559 -1911326973 2041889982 -78061940 -1202244769 848731542 2122534120 386081824 1683595347 -84635518 2023736317 -540615937 79069861 -466204661 2105041577
REM
CELL 1.54180   15.00000   15.00000   15.00000   90.00000   90.00000   90.00000
LATT -1
SFAC C  
C      1  0.4866430000000  0.3215180000000  0.3360750000000 1.0
C      1  0.3842880000000  0.3634570000000  0.3360720000000 1.0
C      1  0.3261340000000  0.4575500000000  0.3360670000000 1.0
C      1  0.3343890000000  0.5678560000000  0.3360670000000 1.0
C      1  0.4059000000000  0.6522450000000  0.3360720000000 1.0
C      1  0.5133570000000  0.6784820000000  0.3360750000000 1.0
C      1  0.6157120000000  0.6365430000000  0.3360720000000 1.0
C      1  0.6738660000000  0.5424500000000  0.3360670000000 1.0
C      1  0.6656110000000  0.4321440000000  0.3360670000000 1.0
C      1  0.5941000000000  0.3477550000000  0.3360720000000 1.0
C      1  0.4789530000000  0.2186810000000  0.6323710000000 1.0
C      1  0.3176080000000  0.2847770000000  0.6323640000000 1.0
C      1  0.2259250000000  0.4330830000000  0.6323530000000 1.0
C      1  0.2389330000000  0.6069530000000  0.6323530000000 1.0
C      1  0.3516630000000  0.7399670000000  0.6323640000000 1.0
C      1  0.5210470000000  0.7813190000000  0.6323710000000 1.0
C      1  0.6823920000000  0.7152230000000  0.6323640000000 1.0
C      1  0.7740750000000  0.5669180000000  0.6323540000000 1.0
C      1  0.7610670000000  0.3930460000000  0.6323540000000 1.0
C      1  0.6483370000000  0.2600340000000  0.6323650000000 1.0
C      1  0.5584450000000  0.2606360000000  0.4947260000000 1.0
C      1  0.4065900000000  0.2719970000000  0.4947260000000 1.0
C      1  0.2904100000000  0.3704450000000  0.4947180000000 1.0
C      1  0.2542860000000  0.5183830000000  0.4947140000000 1.0
C      1  0.3120210000000  0.6592990000000  0.4947180000000 1.0
C      1  0.4415550000000  0.7393640000000  0.4947260000000 1.0
C      1  0.5934100000000  0.7280030000000  0.4947260000000 1.0
C      1  0.7095900000000  0.6295550000000  0.4947180000000 1.0
C      1  0.7457140000000  0.4816170000000  0.4947140000000 1.0
C      1  0.6879790000000  0.3407010000000  0.4947190000000 1.0
C      1  0.3701560000000  0.4197420000000  0.5402170000000 1.0
C      1  0.3477760000000  0.5113880000000  0.5402150000000 1.0
C      1  0.3835430000000  0.5986840000000  0.5402160000000 1.0
C      1  0.4637910000000  0.6482840000000  0.5402190000000 1.0
C      1  0.5578690000000  0.6412460000000  0.5402190000000 1.0
C      1  0.6298440000000  0.5802580000000  0.5402170000000 1.0
C      1  0.6522250000000  0.4886120000000  0.5402150000000 1.0
C      1  0.6164570000000  0.4013160000000  0.5402170000000 1.0
C      1  0.5362080000000  0.3517160000000  0.5402200000000 1.0
C      1  0.4421310000000  0.3587540000000  0.5402190000000 1.0
C      1  0.3143350000000  0.6573400000000  0.4030070000000 1.0
C      1  0.4422770000000  0.7364230000000  0.4030140000000 1.0
C      1  0.5922700000000  0.7251980000000  0.4030140000000 1.0
C      1  0.7070150000000  0.6279530000000  0.4030070000000 1.0
C      1  0.7426880000000  0.4818380000000  0.4030020000000 1.0
C      1  0.6856650000000  0.3426600000000  0.4030070000000 1.0
C      1  0.5577230000000  0.2635770000000  0.4030150000000 1.0
C      1  0.4077300000000  0.2748020000000  0.4030140000000 1.0
C      1  0.2929840000000  0.3720470000000  0.4030070000000 1.0
C      1  0.2573130000000  0.5181620000000  0.4030020000000 1.0
C      1  0.6041730000000  0.7542640000000  0.5936280000000 1.0
C      1  0.7337380000000  0.6444760000000  0.5936190000000 1.0
C      1  0.7740250000000  0.4794990000000  0.5936130000000 1.0
C      1  0.7096390000000  0.3223530000000  0.5936190000000 1.0
C      1  0.5651790000000  0.2330660000000  0.5936290000000 1.0
C      1  0.3958270000000  0.2457360000000  0.5936290000000 1.0
C      1  0.2662620000000  0.3555240000000  0.5936190000000 1.0
C      1  0.2259750000000  0.5205010000000  0.5936120000000 1.0
C      1  0.2903610000000  0.6776470000000  0.5936190000000 1.0
C      1  0.4348210000000  0.7669340000000  0.5936280000000 1.0
END
