TITL C-3036485-3770-457 0.00476602050371723 3375 -366.092684851923 0 0 60 (C6) n - 1
REM
REM in /home/bkarasulu/work/CARBON/AIRSS/Generating-Clusters/REBO/Higher-Symm/Only-C60
REM
REM
REM
REM
REM
REM ./C.cell (a2850807a9bf4ad07a5b6933b78d9264)
REM AIRSS Version 0.9.1 bugfix July 2018 build 013d7b7c2542+ Fri, 06 Jul 2018 19:26:36 +0100
REM compiler GCC version 9.2.1 20190827 (Red Hat 9.2.1-1)
REM options -cpp -mtune=generic -march=x86-64 -g -O0 -fpre-include=/usr/include/finclude/math-vector-fortran.h
REM seed 1319172489 1222088008 -1272518502 -267688213 -1825927388 -1916801777 -1811422263 -426690642 1222674739 -1951430797 -639970191 984115341 -1993365751 -1273679110 951288485 -657053325 2082773054 40618576 -799366863 218159429 -1976964420 1280819245 881885756 219862414 977501606 42284922 1050753024 -1380819450 1034630538 -1159884747 -579270796 -119210160 -1354039950
REM
CELL 1.54180   15.00000   15.00000   15.00000   90.00000   90.00000   90.00000
LATT -1
SFAC C  
C      1  0.2943650000000  0.3450820000000  0.3856650000000 1.0
C      1  0.2981710000000  0.3451160000000  0.6209170000000 1.0
C      1  0.5038020000000  0.3450830000000  0.7352390000000 1.0
C      1  0.7056340000000  0.3450880000000  0.6143310000000 1.0
C      1  0.7018290000000  0.3451160000000  0.3790870000000 1.0
C      1  0.4962000000000  0.3450810000000  0.2647550000000 1.0
C      1  0.2943700000000  0.6549060000000  0.6143380000000 1.0
C      1  0.2981880000000  0.6548720000000  0.3790950000000 1.0
C      1  0.5037900000000  0.6549090000000  0.2647710000000 1.0
C      1  0.7056280000000  0.6549090000000  0.3856660000000 1.0
C      1  0.7018290000000  0.6548830000000  0.6209140000000 1.0
C      1  0.4962000000000  0.6549190000000  0.7352440000000 1.0
C      1  0.5713100000000  0.6173500000000  0.3177630000000 1.0
C      1  0.3778410000000  0.6173380000000  0.3471220000000 1.0
C      1  0.3065140000000  0.6173480000000  0.5293710000000 1.0
C      1  0.4286930000000  0.6173530000000  0.6822410000000 1.0
C      1  0.6221590000000  0.6173350000000  0.6528640000000 1.0
C      1  0.6934720000000  0.6173380000000  0.4706310000000 1.0
C      1  0.5713070000000  0.3826580000000  0.6822300000000 1.0
C      1  0.3778450000000  0.3826700000000  0.6528540000000 1.0
C      1  0.3065330000000  0.3826750000000  0.4706270000000 1.0
C      1  0.4286940000000  0.3826590000000  0.3177660000000 1.0
C      1  0.6221550000000  0.3826680000000  0.3471440000000 1.0
C      1  0.6934630000000  0.3826670000000  0.5293700000000 1.0
C      1  0.5626360000000  0.6882670000000  0.6772470000000 1.0
C      1  0.6848370000000  0.6882600000000  0.5343860000000 1.0
C      1  0.6221930000000  0.6882820000000  0.3571240000000 1.0
C      1  0.4373600000000  0.6882690000000  0.3227570000000 1.0
C      1  0.3151700000000  0.6882600000000  0.4656150000000 1.0
C      1  0.3778110000000  0.6882670000000  0.6428660000000 1.0
C      1  0.5626370000000  0.3117310000000  0.3227540000000 1.0
C      1  0.6848420000000  0.3117410000000  0.4656180000000 1.0
C      1  0.6221940000000  0.3117210000000  0.6428760000000 1.0
C      1  0.4373580000000  0.3117350000000  0.6772500000000 1.0
C      1  0.3151620000000  0.3117390000000  0.5343830000000 1.0
C      1  0.3778100000000  0.3117250000000  0.3571250000000 1.0
C      1  0.4347900000000  0.7356890000000  0.5747510000000 1.0
C      1  0.5321410000000  0.7356820000000  0.5938460000000 1.0
C      1  0.5973580000000  0.7356820000000  0.5190970000000 1.0
C      1  0.5652090000000  0.7356830000000  0.4252470000000 1.0
C      1  0.4678580000000  0.7356790000000  0.4061520000000 1.0
C      1  0.4026440000000  0.7356840000000  0.4809020000000 1.0
C      1  0.4347910000000  0.2643170000000  0.4252480000000 1.0
C      1  0.5321380000000  0.2643160000000  0.4061580000000 1.0
C      1  0.5973570000000  0.2643200000000  0.4809040000000 1.0
C      1  0.5652060000000  0.2643150000000  0.5747490000000 1.0
C      1  0.4678580000000  0.2643210000000  0.5938470000000 1.0
C      1  0.4026480000000  0.2643140000000  0.5190960000000 1.0
C      1  0.6119680000000  0.5528010000000  0.4819730000000 1.0
C      1  0.5404030000000  0.5527970000000  0.3940380000000 1.0
C      1  0.4284080000000  0.5528150000000  0.4120420000000 1.0
C      1  0.3880410000000  0.5527850000000  0.5180020000000 1.0
C      1  0.4596000000000  0.5528020000000  0.6059690000000 1.0
C      1  0.5715650000000  0.5527970000000  0.5879710000000 1.0
C      1  0.6119670000000  0.4471940000000  0.5180110000000 1.0
C      1  0.5403920000000  0.4472030000000  0.6059610000000 1.0
C      1  0.4284370000000  0.4471830000000  0.5879650000000 1.0
C      1  0.3880320000000  0.4472200000000  0.4820030000000 1.0
C      1  0.4596130000000  0.4471850000000  0.3940280000000 1.0
C      1  0.5715750000000  0.4471960000000  0.4120370000000 1.0
END
