TITL C-3036485-3770-1001 0.0418471752459779 3375 -332.105489898349 0 0 60 (C2) n - 1
REM
REM in /home/bkarasulu/work/CARBON/AIRSS/Generating-Clusters/REBO/Higher-Symm/Only-C60
REM
REM
REM
REM
REM
REM ./C.cell (a2850807a9bf4ad07a5b6933b78d9264)
REM AIRSS Version 0.9.1 bugfix July 2018 build 013d7b7c2542+ Fri, 06 Jul 2018 19:26:36 +0100
REM compiler GCC version 9.2.1 20190827 (Red Hat 9.2.1-1)
REM options -cpp -mtune=generic -march=x86-64 -g -O0 -fpre-include=/usr/include/finclude/math-vector-fortran.h
REM seed 511272494 -2036625200 -1817242746 -1943601568 35820241 1861584030 -1773363381 699845284 -1107183972 668024851 1978657102 -1088024893 -1825809427 -533947788 2053134710 228128760 1229614754 2092868818 183981632 359567888 1395270682 233047583 -1647792167 -950325990 1573339704 -341055557 1161542132 -1287778926 1366165431 -68885315 -1889980984 1295510724 -1984162865
REM
CELL 1.54180   15.00000   15.00000   15.00000   90.00000   90.00000   90.00000
LATT -1
SFAC C  
C      1  0.4182820000000  0.5490950000000  0.3880220000000 1.0
C      1  0.5817200000000  0.5490950000000  0.6119770000000 1.0
C      1  0.5513380000000  0.6262470000000  0.2724450000000 1.0
C      1  0.4486620000000  0.6262400000000  0.7275530000000 1.0
C      1  0.3429490000000  0.3470410000000  0.6420950000000 1.0
C      1  0.6570540000000  0.3470380000000  0.3579060000000 1.0
C      1  0.5909280000000  0.4450600000000  0.6253020000000 1.0
C      1  0.4090750000000  0.4450590000000  0.3746970000000 1.0
C      1  0.5986330000000  0.2815590000000  0.4263910000000 1.0
C      1  0.4013640000000  0.2815640000000  0.5736140000000 1.0
C      1  0.5315860000000  0.6998640000000  0.5576570000000 1.0
C      1  0.4684190000000  0.6998650000000  0.4423480000000 1.0
C      1  0.3930070000000  0.4073740000000  0.4674010000000 1.0
C      1  0.6069930000000  0.4073740000000  0.5326000000000 1.0
C      1  0.4079220000000  0.3016420000000  0.4724170000000 1.0
C      1  0.5920760000000  0.3016430000000  0.5275860000000 1.0
C      1  0.7505670000000  0.3635820000000  0.3944610000000 1.0
C      1  0.2494330000000  0.3635890000000  0.6055420000000 1.0
C      1  0.6716250000000  0.5820200000000  0.5139080000000 1.0
C      1  0.3283610000000  0.5820150000000  0.4860890000000 1.0
C      1  0.3141610000000  0.5933890000000  0.3798130000000 1.0
C      1  0.6858400000000  0.5933890000000  0.6201880000000 1.0
C      1  0.6874290000000  0.4887120000000  0.6639000000000 1.0
C      1  0.3125720000000  0.4887120000000  0.3361000000000 1.0
C      1  0.5574130000000  0.7141040000000  0.3103050000000 1.0
C      1  0.4425800000000  0.7140930000000  0.6896900000000 1.0
C      1  0.4682770000000  0.4144270000000  0.2996900000000 1.0
C      1  0.5317250000000  0.4144300000000  0.7003100000000 1.0
C      1  0.2386290000000  0.4204980000000  0.5443860000000 1.0
C      1  0.7613700000000  0.4204960000000  0.4556130000000 1.0
C      1  0.6082680000000  0.5989650000000  0.7040360000000 1.0
C      1  0.3917310000000  0.5989650000000  0.2959640000000 1.0
C      1  0.5025820000000  0.5945600000000  0.5665450000000 1.0
C      1  0.4974160000000  0.5945580000000  0.4334550000000 1.0
C      1  0.4917430000000  0.2915780000000  0.4019510000000 1.0
C      1  0.5082560000000  0.2915770000000  0.5980540000000 1.0
C      1  0.5085660000000  0.7506810000000  0.3798010000000 1.0
C      1  0.4914330000000  0.7506810000000  0.6202030000000 1.0
C      1  0.4645430000000  0.4512800000000  0.2197080000000 1.0
C      1  0.5354590000000  0.4512810000000  0.7802930000000 1.0
C      1  0.6172960000000  0.5093430000000  0.4170100000000 1.0
C      1  0.3827070000000  0.5093360000000  0.5829930000000 1.0
C      1  0.3846030000000  0.5555260000000  0.6857040000000 1.0
C      1  0.6154000000000  0.5555310000000  0.3143010000000 1.0
C      1  0.6181970000000  0.4420650000000  0.3088360000000 1.0
C      1  0.3818030000000  0.4420710000000  0.6911560000000 1.0
C      1  0.4759680000000  0.3876650000000  0.5468950000000 1.0
C      1  0.5240340000000  0.3876660000000  0.4531030000000 1.0
C      1  0.5222260000000  0.4930980000000  0.4496470000000 1.0
C      1  0.4777810000000  0.4930950000000  0.5503450000000 1.0
C      1  0.3195800000000  0.4707520000000  0.5084270000000 1.0
C      1  0.6804170000000  0.4707580000000  0.4915690000000 1.0
C      1  0.4630840000000  0.6074340000000  0.2413260000000 1.0
C      1  0.5369140000000  0.6074300000000  0.7586720000000 1.0
C      1  0.5479410000000  0.3545550000000  0.3271220000000 1.0
C      1  0.4520580000000  0.3545570000000  0.6728780000000 1.0
C      1  0.3388950000000  0.6105850000000  0.5969870000000 1.0
C      1  0.6611020000000  0.6105870000000  0.4030100000000 1.0
C      1  0.5855810000000  0.6472970000000  0.4775440000000 1.0
C      1  0.4144300000000  0.6473020000000  0.5224580000000 1.0
END
