TITL C-3036484-3770-401 -4.59499526790462e-06 3375 -362.408100980047 0 0 60 (C2h) n - 1
REM
REM in /home/bkarasulu/work/CARBON/AIRSS/Generating-Clusters/REBO/Higher-Symm/Only-C60
REM
REM
REM
REM
REM
REM ./C.cell (a2850807a9bf4ad07a5b6933b78d9264)
REM AIRSS Version 0.9.1 bugfix July 2018 build 013d7b7c2542+ Fri, 06 Jul 2018 19:26:36 +0100
REM compiler GCC version 9.2.1 20190827 (Red Hat 9.2.1-1)
REM options -cpp -mtune=generic -march=x86-64 -g -O0 -fpre-include=/usr/include/finclude/math-vector-fortran.h
REM seed 1996406530 -24673315 -306769514 -1361869100 -1875871667 -630029549 -2142996052 -1934916989 1389939609 122686418 1612303333 947037883 -1275059921 528360759 997649161 1271008546 1489479447 -924796223 1677471445 93229664 -1761654863 2146589393 -1124320856 1299873590 82254837 1488248479 1626234643 684210808 -1795210675 -66511835 -650609427 -1202380184 1803635840
REM
CELL 1.54180   15.00000   15.00000   15.00000   90.00000   90.00000   90.00000
LATT -1
SFAC C  
C      1  0.5498390000000  0.6721800000000  0.4852280000000 1.0
C      1  0.4501590000000  0.6721830000000  0.5147320000000 1.0
C      1  0.5498410000000  0.3278170000000  0.4852680000000 1.0
C      1  0.4501610000000  0.3278200000000  0.5147720000000 1.0
C      1  0.3605000000000  0.4522980000000  0.7511280000000 1.0
C      1  0.6395020000000  0.4522400000000  0.2488830000000 1.0
C      1  0.3604980000000  0.5477600000000  0.7511170000000 1.0
C      1  0.6395000000000  0.5477020000000  0.2488720000000 1.0
C      1  0.4252380000000  0.4522930000000  0.3359420000000 1.0
C      1  0.5747630000000  0.4523320000000  0.6640690000000 1.0
C      1  0.4252370000000  0.5476680000000  0.3359310000000 1.0
C      1  0.5747620000000  0.5477070000000  0.6640580000000 1.0
C      1  0.7165950000000  0.5480960000000  0.3934180000000 1.0
C      1  0.2834040000000  0.5481190000000  0.6065710000000 1.0
C      1  0.7165960000000  0.4518810000000  0.3934290000000 1.0
C      1  0.2834050000000  0.4519040000000  0.6065820000000 1.0
C      1  0.6519680000000  0.5872230000000  0.3348430000000 1.0
C      1  0.3480300000000  0.5872610000000  0.6651360000000 1.0
C      1  0.6519700000000  0.4127400000000  0.3348640000000 1.0
C      1  0.3480320000000  0.4127770000000  0.6651570000000 1.0
C      1  0.5571460000000  0.7016290000000  0.6614080000000 1.0
C      1  0.4428520000000  0.7015910000000  0.3385450000000 1.0
C      1  0.5571480000000  0.2984090000000  0.6614550000000 1.0
C      1  0.4428540000000  0.2983710000000  0.3385920000000 1.0
C      1  0.3361020000000  0.6740900000000  0.5223200000000 1.0
C      1  0.6638960000000  0.6740860000000  0.4776390000000 1.0
C      1  0.3361040000000  0.3259140000000  0.5223610000000 1.0
C      1  0.6638980000000  0.3259100000000  0.4776800000000 1.0
C      1  0.4890480000000  0.3785340000000  0.3263570000000 1.0
C      1  0.5109530000000  0.3785740000000  0.6736720000000 1.0
C      1  0.4890470000000  0.6214260000000  0.3263280000000 1.0
C      1  0.5109520000000  0.6214660000000  0.6736430000000 1.0
C      1  0.4442520000000  0.5411820000000  0.5365200000000 1.0
C      1  0.5557470000000  0.5411740000000  0.4634710000000 1.0
C      1  0.4442530000000  0.4588260000000  0.5365290000000 1.0
C      1  0.5557480000000  0.4588180000000  0.4634800000000 1.0
C      1  0.6473120000000  0.5910070000000  0.6150650000000 1.0
C      1  0.3526870000000  0.5909790000000  0.3849140000000 1.0
C      1  0.6473130000000  0.4090210000000  0.6150860000000 1.0
C      1  0.3526880000000  0.4089930000000  0.3849350000000 1.0
C      1  0.5693790000000  0.3837230000000  0.3877570000000 1.0
C      1  0.4306220000000  0.3837480000000  0.6122700000000 1.0
C      1  0.5693780000000  0.6162520000000  0.3877300000000 1.0
C      1  0.4306210000000  0.6162770000000  0.6122430000000 1.0
C      1  0.2810270000000  0.5958960000000  0.5242440000000 1.0
C      1  0.7189720000000  0.5958920000000  0.4757330000000 1.0
C      1  0.2810280000000  0.4041080000000  0.5242670000000 1.0
C      1  0.7189730000000  0.4041040000000  0.4757560000000 1.0
C      1  0.7088310000000  0.4528350000000  0.5578640000000 1.0
C      1  0.2911690000000  0.4528200000000  0.4421470000000 1.0
C      1  0.7088310000000  0.5471800000000  0.5578530000000 1.0
C      1  0.2911690000000  0.5471650000000  0.4421360000000 1.0
C      1  0.6165670000000  0.6897360000000  0.5755400000000 1.0
C      1  0.3834310000000  0.6897180000000  0.4244160000000 1.0
C      1  0.6165690000000  0.3102820000000  0.5755840000000 1.0
C      1  0.3834330000000  0.3102640000000  0.4244600000000 1.0
C      1  0.3773400000000  0.4034770000000  0.8255430000000 1.0
C      1  0.6226650000000  0.4034010000000  0.1744790000000 1.0
C      1  0.3773350000000  0.5965990000000  0.8255210000000 1.0
C      1  0.6226600000000  0.5965230000000  0.1744570000000 1.0
END
