TITL C-3036480-97-885 0.000694399303019386 3375 -338.789334313331 0 0 60 (C1) n - 1
REM
REM in /home/bkarasulu/work/CARBON/AIRSS/Generating-Clusters/REBO/Higher-Symm/Only-C60
REM
REM
REM
REM
REM
REM ./C.cell (a2850807a9bf4ad07a5b6933b78d9264)
REM AIRSS Version 0.9.1 bugfix July 2018 build 013d7b7c2542+ Fri, 06 Jul 2018 19:26:36 +0100
REM compiler GCC version 9.2.1 20190827 (Red Hat 9.2.1-1)
REM options -cpp -mtune=generic -march=x86-64 -g -O0 -fpre-include=/usr/include/finclude/math-vector-fortran.h
REM seed 45079447 -1375420776 938308913 1830204258 744545756 -2124255548 -771952256 -974475657 789292038 -1933795654 -1368354458 -2128099197 1016457570 1049769719 -1178704749 1896404758 -1999820416 -968705619 -359591933 2118330007 -962502642 2029954160 -1091580502 -1707398067 1706165129 744456834 1403719234 1223216000 -1289304622 -602718829 -261259940 90786110 856623391
REM
CELL 1.54180   15.00000   15.00000   15.00000   90.00000   90.00000   90.00000
LATT -1
SFAC C  
C      1  0.5045010000000  0.6334250000000  0.6587680000000 1.0
C      1  0.5584580000000  0.6052700000000  0.4534750000000 1.0
C      1  0.5956350000000  0.4903280000000  0.2719350000000 1.0
C      1  0.5583340000000  0.3969220000000  0.7510690000000 1.0
C      1  0.5632200000000  0.3222690000000  0.6881200000000 1.0
C      1  0.6310170000000  0.4011680000000  0.3256070000000 1.0
C      1  0.4139330000000  0.6002860000000  0.6146780000000 1.0
C      1  0.3522900000000  0.2898700000000  0.3923780000000 1.0
C      1  0.4765090000000  0.7594130000000  0.4537160000000 1.0
C      1  0.4682480000000  0.2644390000000  0.5629450000000 1.0
C      1  0.6867210000000  0.6376650000000  0.4371970000000 1.0
C      1  0.5468420000000  0.6981360000000  0.4720480000000 1.0
C      1  0.5663850000000  0.4999150000000  0.4120390000000 1.0
C      1  0.3455030000000  0.5560000000000  0.3476380000000 1.0
C      1  0.6435530000000  0.4219080000000  0.4378120000000 1.0
C      1  0.6004770000000  0.7204430000000  0.5512930000000 1.0
C      1  0.4628350000000  0.7077540000000  0.3316560000000 1.0
C      1  0.5294880000000  0.4778680000000  0.5754060000000 1.0
C      1  0.3336550000000  0.3703090000000  0.5329650000000 1.0
C      1  0.5635820000000  0.5632890000000  0.6792020000000 1.0
C      1  0.4268150000000  0.5873550000000  0.4513950000000 1.0
C      1  0.5207510000000  0.4719720000000  0.6805340000000 1.0
C      1  0.4956440000000  0.3529400000000  0.4682320000000 1.0
C      1  0.5472980000000  0.3871720000000  0.5426110000000 1.0
C      1  0.4573580000000  0.5407230000000  0.5347230000000 1.0
C      1  0.5558670000000  0.3422330000000  0.3767400000000 1.0
C      1  0.3484510000000  0.3725200000000  0.3407770000000 1.0
C      1  0.6503050000000  0.5642960000000  0.6510330000000 1.0
C      1  0.4037360000000  0.4342210000000  0.4019170000000 1.0
C      1  0.4431200000000  0.6072810000000  0.3498640000000 1.0
C      1  0.3462920000000  0.4557270000000  0.4843570000000 1.0
C      1  0.6944780000000  0.5716850000000  0.5521610000000 1.0
C      1  0.3952060000000  0.7412260000000  0.4933050000000 1.0
C      1  0.4353970000000  0.4009180000000  0.7016770000000 1.0
C      1  0.6893020000000  0.4968860000000  0.3383000000000 1.0
C      1  0.5915100000000  0.5491120000000  0.5323610000000 1.0
C      1  0.6577990000000  0.2596630000000  0.5540440000000 1.0
C      1  0.5483270000000  0.7133120000000  0.6311580000000 1.0
C      1  0.4412160000000  0.4436120000000  0.2745080000000 1.0
C      1  0.3865770000000  0.6517640000000  0.5202730000000 1.0
C      1  0.5482020000000  0.7392280000000  0.3431370000000 1.0
C      1  0.4688170000000  0.3060970000000  0.6489240000000 1.0
C      1  0.3030580000000  0.5440720000000  0.4326460000000 1.0
C      1  0.3166410000000  0.5439510000000  0.5432660000000 1.0
C      1  0.3035060000000  0.3799550000000  0.6172860000000 1.0
C      1  0.4740650000000  0.3959490000000  0.8088440000000 1.0
C      1  0.6069970000000  0.3377400000000  0.6008550000000 1.0
C      1  0.3323980000000  0.5395840000000  0.6505560000000 1.0
C      1  0.5284770000000  0.5607560000000  0.3241480000000 1.0
C      1  0.5009190000000  0.4350180000000  0.3639460000000 1.0
C      1  0.6920970000000  0.5244450000000  0.4485090000000 1.0
C      1  0.6357490000000  0.5921570000000  0.3463400000000 1.0
C      1  0.3479320000000  0.4384110000000  0.6719130000000 1.0
C      1  0.5524210000000  0.2453060000000  0.5225980000000 1.0
C      1  0.6218600000000  0.3128230000000  0.4612810000000 1.0
C      1  0.6870330000000  0.6807350000000  0.5344690000000 1.0
C      1  0.6257270000000  0.6997940000000  0.3645860000000 1.0
C      1  0.3471310000000  0.4769660000000  0.2900070000000 1.0
C      1  0.3980120000000  0.3032230000000  0.4893720000000 1.0
C      1  0.2723210000000  0.5824950000000  0.7074010000000 1.0
END
