TITL C-3036485-3770-245 -0.0507320024883413 3375 -361.831586882363 0 0 60 (S4) n - 1
REM
REM in /home/bkarasulu/work/CARBON/AIRSS/Generating-Clusters/REBO/Higher-Symm/Only-C60
REM
REM
REM
REM
REM
REM ./C.cell (a2850807a9bf4ad07a5b6933b78d9264)
REM AIRSS Version 0.9.1 bugfix July 2018 build 013d7b7c2542+ Fri, 06 Jul 2018 19:26:36 +0100
REM compiler GCC version 9.2.1 20190827 (Red Hat 9.2.1-1)
REM options -cpp -mtune=generic -march=x86-64 -g -O0 -fpre-include=/usr/include/finclude/math-vector-fortran.h
REM seed -1640731392 545614065 732747287 -824554559 828510317 -1179458369 -1796390596 -711855744 1983519287 -1304272857 1255175675 -127700458 674998550 -98970294 -1593060083 1397846535 -1438437937 953708118 -893502151 191309237 2097333870 1133641672 404218177 -395898753 -1972773646 -158619225 -1871430312 1724064075 1653701364 -1161662143 -1569489811 993834600 -395949252
REM
CELL 1.54180   15.00000   15.00000   15.00000   90.00000   90.00000   90.00000
LATT -1
SFAC C  
C      1  0.5032000000000  0.6148160000000  0.7123780000000 1.0
C      1  0.4967280000000  0.2874760000000  0.6147670000000 1.0
C      1  0.5031560000000  0.3851550000000  0.2875870000000 1.0
C      1  0.4968190000000  0.7123200000000  0.3851290000000 1.0
C      1  0.6785610000000  0.4467990000000  0.3184590000000 1.0
C      1  0.3215310000000  0.6816330000000  0.4466460000000 1.0
C      1  0.6783020000000  0.5533130000000  0.6815310000000 1.0
C      1  0.3214250000000  0.3186100000000  0.5531580000000 1.0
C      1  0.5512530000000  0.4939630000000  0.6342560000000 1.0
C      1  0.4486760000000  0.3656310000000  0.4943370000000 1.0
C      1  0.5514130000000  0.5056580000000  0.3655210000000 1.0
C      1  0.4485590000000  0.6344660000000  0.5057920000000 1.0
C      1  0.6750510000000  0.5484520000000  0.3412970000000 1.0
C      1  0.3248460000000  0.6588440000000  0.5484210000000 1.0
C      1  0.6751370000000  0.4515800000000  0.6587620000000 1.0
C      1  0.3250330000000  0.3413000000000  0.4516290000000 1.0
C      1  0.7089340000000  0.5716170000000  0.5835740000000 1.0
C      1  0.2910680000000  0.4165480000000  0.5718260000000 1.0
C      1  0.7090690000000  0.4283510000000  0.4164540000000 1.0
C      1  0.2909270000000  0.5835640000000  0.4284280000000 1.0
C      1  0.6246060000000  0.6148740000000  0.4900160000000 1.0
C      1  0.3755010000000  0.5101420000000  0.6148750000000 1.0
C      1  0.6246630000000  0.3850800000000  0.5099640000000 1.0
C      1  0.3752240000000  0.4900120000000  0.3850160000000 1.0
C      1  0.5347680000000  0.3241080000000  0.5294340000000 1.0
C      1  0.4652530000000  0.4705870000000  0.3240940000000 1.0
C      1  0.5345840000000  0.6757760000000  0.4705760000000 1.0
C      1  0.4655330000000  0.5294040000000  0.6757510000000 1.0
C      1  0.6093930000000  0.3836190000000  0.2916430000000 1.0
C      1  0.3906390000000  0.7083800000000  0.3834080000000 1.0
C      1  0.6093360000000  0.6165810000000  0.7084160000000 1.0
C      1  0.3905310000000  0.2916250000000  0.6162650000000 1.0
C      1  0.2977280000000  0.4263270000000  0.4159490000000 1.0
C      1  0.7022680000000  0.5841470000000  0.4263180000000 1.0
C      1  0.2978610000000  0.5737160000000  0.5841370000000 1.0
C      1  0.7021600000000  0.4159710000000  0.5736400000000 1.0
C      1  0.5860060000000  0.4131030000000  0.6860550000000 1.0
C      1  0.4140760000000  0.3142330000000  0.4134570000000 1.0
C      1  0.5860120000000  0.5866060000000  0.3142310000000 1.0
C      1  0.4139640000000  0.6860460000000  0.5867260000000 1.0
C      1  0.3961400000000  0.4466110000000  0.7045220000000 1.0
C      1  0.6041240000000  0.2953470000000  0.4465500000000 1.0
C      1  0.3959090000000  0.5533890000000  0.2952720000000 1.0
C      1  0.6039220000000  0.7046680000000  0.5533290000000 1.0
C      1  0.6019430000000  0.4572810000000  0.4266880000000 1.0
C      1  0.3979880000000  0.5733440000000  0.4573750000000 1.0
C      1  0.6020220000000  0.5423840000000  0.5733210000000 1.0
C      1  0.3981220000000  0.4267670000000  0.5426930000000 1.0
C      1  0.7551590000000  0.4515540000000  0.4974910000000 1.0
C      1  0.2448240000000  0.5025260000000  0.4516310000000 1.0
C      1  0.7551920000000  0.5485460000000  0.5025440000000 1.0
C      1  0.2449150000000  0.4975130000000  0.5486310000000 1.0
C      1  0.4733290000000  0.3022310000000  0.3406350000000 1.0
C      1  0.5266960000000  0.6593690000000  0.3022400000000 1.0
C      1  0.4732800000000  0.6978170000000  0.6595680000000 1.0
C      1  0.5266650000000  0.3402300000000  0.6978760000000 1.0
C      1  0.5783500000000  0.6992990000000  0.6438840000000 1.0
C      1  0.4215850000000  0.3560140000000  0.6991460000000 1.0
C      1  0.5783980000000  0.3007720000000  0.3560490000000 1.0
C      1  0.4216420000000  0.6439020000000  0.3006310000000 1.0
END
