TITL C-3036483-1610-618 -1.11786149808541e-05 3375 -333.504883091721 0 0 60 (Ci) n - 1
REM
REM in /home/bkarasulu/work/CARBON/AIRSS/Generating-Clusters/REBO/Higher-Symm/Only-C60
REM
REM
REM
REM
REM
REM ./C.cell (a2850807a9bf4ad07a5b6933b78d9264)
REM AIRSS Version 0.9.1 bugfix July 2018 build 013d7b7c2542+ Fri, 06 Jul 2018 19:26:36 +0100
REM compiler GCC version 9.2.1 20190827 (Red Hat 9.2.1-1)
REM options -cpp -mtune=generic -march=x86-64 -g -O0 -fpre-include=/usr/include/finclude/math-vector-fortran.h
REM seed -999428359 895803360 300093443 1939085271 922160431 -919899930 -1419368272 -299946394 -850167478 -1308612619 -1356566016 82965327 -1439744563 1028946358 1155407919 -2095913170 -1658738696 1960004264 -888002456 -1139659562 -445652029 501389447 1579134784 1651376780 1623414822 -74901161 51741889 -1826692340 -1716358510 -1693399281 901917180 919248813 969662541
REM
CELL 1.54180   15.00000   15.00000   15.00000   90.00000   90.00000   90.00000
LATT -1
SFAC C  
C      1  0.4597570000000  0.2372830000000  0.4556700000000 1.0
C      1  0.5428860000000  0.3270940000000  0.3156660000000 1.0
C      1  0.4545020000000  0.4746260000000  0.2485230000000 1.0
C      1  0.5511560000000  0.6276630000000  0.2756420000000 1.0
C      1  0.4589350000000  0.7433870000000  0.3822220000000 1.0
C      1  0.5402430000000  0.7627170000000  0.5443300000000 1.0
C      1  0.4571140000000  0.6729060000000  0.6843340000000 1.0
C      1  0.5454980000000  0.5253740000000  0.7514770000000 1.0
C      1  0.4488440000000  0.3723370000000  0.7243580000000 1.0
C      1  0.5410650000000  0.2566130000000  0.6177780000000 1.0
C      1  0.4835370000000  0.4249210000000  0.6080560000000 1.0
C      1  0.5232800000000  0.3683780000000  0.5490040000000 1.0
C      1  0.4807700000000  0.3672470000000  0.4682130000000 1.0
C      1  0.5153500000000  0.4213930000000  0.4043350000000 1.0
C      1  0.4737810000000  0.4968040000000  0.3776960000000 1.0
C      1  0.5164630000000  0.5750790000000  0.3919440000000 1.0
C      1  0.4767200000000  0.6316220000000  0.4509960000000 1.0
C      1  0.5192300000000  0.6327530000000  0.5317870000000 1.0
C      1  0.4846500000000  0.5786070000000  0.5956650000000 1.0
C      1  0.5262190000000  0.5031960000000  0.6223040000000 1.0
C      1  0.3437420000000  0.5210070000000  0.6944680000000 1.0
C      1  0.6625930000000  0.3979240000000  0.6758140000000 1.0
C      1  0.3356490000000  0.3235010000000  0.5842750000000 1.0
C      1  0.6887000000000  0.3190680000000  0.5007100000000 1.0
C      1  0.3154310000000  0.3591220000000  0.3966830000000 1.0
C      1  0.6562580000000  0.4789930000000  0.3055320000000 1.0
C      1  0.3374070000000  0.6020760000000  0.3241860000000 1.0
C      1  0.6643510000000  0.6764990000000  0.4157250000000 1.0
C      1  0.3113000000000  0.6809320000000  0.4992900000000 1.0
C      1  0.6845690000000  0.6408780000000  0.6033170000000 1.0
C      1  0.6148730000000  0.6832150000000  0.5325700000000 1.0
C      1  0.3881660000000  0.6022450000000  0.6312090000000 1.0
C      1  0.6192910000000  0.4998450000000  0.6717740000000 1.0
C      1  0.3847680000000  0.4064660000000  0.6404240000000 1.0
C      1  0.6168860000000  0.3258770000000  0.5816720000000 1.0
C      1  0.3851270000000  0.3167850000000  0.4674300000000 1.0
C      1  0.6118340000000  0.3977550000000  0.3687910000000 1.0
C      1  0.3807090000000  0.5001550000000  0.3282260000000 1.0
C      1  0.6152320000000  0.5935340000000  0.3595760000000 1.0
C      1  0.3831140000000  0.6741230000000  0.4183280000000 1.0
C      1  0.3372840000000  0.4114660000000  0.5161290000000 1.0
C      1  0.6770330000000  0.4115620000000  0.4569960000000 1.0
C      1  0.3251200000000  0.4599760000000  0.4140800000000 1.0
C      1  0.6724450000000  0.5089610000000  0.4088760000000 1.0
C      1  0.3335210000000  0.5695840000000  0.4314250000000 1.0
C      1  0.6627160000000  0.5885340000000  0.4838710000000 1.0
C      1  0.3229670000000  0.5884380000000  0.5430040000000 1.0
C      1  0.6748800000000  0.5400240000000  0.5859200000000 1.0
C      1  0.3275550000000  0.4910390000000  0.5911240000000 1.0
C      1  0.6664790000000  0.4304160000000  0.5685750000000 1.0
C      1  0.5090260000000  0.2564640000000  0.3731380000000 1.0
C      1  0.4900130000000  0.3847070000000  0.2562990000000 1.0
C      1  0.5086010000000  0.5533360000000  0.2306490000000 1.0
C      1  0.5045070000000  0.7080640000000  0.3044940000000 1.0
C      1  0.5016820000000  0.7855990000000  0.4584860000000 1.0
C      1  0.4909740000000  0.7435360000000  0.6268620000000 1.0
C      1  0.5099870000000  0.6152930000000  0.7437010000000 1.0
C      1  0.4913990000000  0.4466640000000  0.7693510000000 1.0
C      1  0.4954930000000  0.2919360000000  0.6955060000000 1.0
C      1  0.4983180000000  0.2144010000000  0.5415140000000 1.0
END
