TITL C-3036484-3770-420 8.97704059765053e-06 3375 -342.829184985395 0 0 60 (C1) n - 1
REM
REM in /home/bkarasulu/work/CARBON/AIRSS/Generating-Clusters/REBO/Higher-Symm/Only-C60
REM
REM
REM
REM
REM
REM ./C.cell (a2850807a9bf4ad07a5b6933b78d9264)
REM AIRSS Version 0.9.1 bugfix July 2018 build 013d7b7c2542+ Fri, 06 Jul 2018 19:26:36 +0100
REM compiler GCC version 9.2.1 20190827 (Red Hat 9.2.1-1)
REM options -cpp -mtune=generic -march=x86-64 -g -O0 -fpre-include=/usr/include/finclude/math-vector-fortran.h
REM seed -524644201 528285491 1647344354 -1890850207 -2075480287 2119309060 430350978 -1019924237 -269675743 1402542643 -290147964 100520054 575715511 1079486988 -1547916781 629905089 799898865 1150163343 -555752289 -1839363439 1662895109 -674427018 -1720655228 325849627 1005498869 769679564 -2043820575 -233298122 -1951844042 -1556051411 -1896686430 6124740 -369714030
REM
CELL 1.54180   15.00000   15.00000   15.00000   90.00000   90.00000   90.00000
LATT -1
SFAC C  
C      1  0.2905100000000  0.3797360000000  0.4956660000000 1.0
C      1  0.4537990000000  0.4089220000000  0.3155640000000 1.0
C      1  0.6801630000000  0.4058210000000  0.3897060000000 1.0
C      1  0.6603970000000  0.3955110000000  0.6437690000000 1.0
C      1  0.4249930000000  0.3876910000000  0.6919610000000 1.0
C      1  0.4871730000000  0.3305520000000  0.3504780000000 1.0
C      1  0.6582680000000  0.3302420000000  0.4425310000000 1.0
C      1  0.6182530000000  0.3095720000000  0.6336830000000 1.0
C      1  0.4251180000000  0.3058850000000  0.6471700000000 1.0
C      1  0.3439780000000  0.3057810000000  0.4744910000000 1.0
C      1  0.4944360000000  0.5696880000000  0.5742840000000 1.0
C      1  0.4133910000000  0.5536030000000  0.5282150000000 1.0
C      1  0.4299400000000  0.5275590000000  0.4289030000000 1.0
C      1  0.5394050000000  0.5418330000000  0.4204130000000 1.0
C      1  0.5698910000000  0.5665320000000  0.5164350000000 1.0
C      1  0.6967760000000  0.6744450000000  0.4670630000000 1.0
C      1  0.5693920000000  0.6588600000000  0.6390790000000 1.0
C      1  0.3874340000000  0.6605230000000  0.6032210000000 1.0
C      1  0.3661480000000  0.6504730000000  0.4459260000000 1.0
C      1  0.5976130000000  0.7168970000000  0.3155700000000 1.0
C      1  0.6039470000000  0.2761570000000  0.5264720000000 1.0
C      1  0.5196810000000  0.2645280000000  0.6005140000000 1.0
C      1  0.4221720000000  0.2624760000000  0.5442910000000 1.0
C      1  0.4456190000000  0.2759350000000  0.4373830000000 1.0
C      1  0.5561400000000  0.2857180000000  0.4268400000000 1.0
C      1  0.4969870000000  0.5444960000000  0.6718690000000 1.0
C      1  0.3215350000000  0.5330600000000  0.5676690000000 1.0
C      1  0.3612520000000  0.5551040000000  0.3437540000000 1.0
C      1  0.6040390000000  0.5493800000000  0.3315390000000 1.0
C      1  0.6602660000000  0.5329630000000  0.5505970000000 1.0
C      1  0.6079470000000  0.7099280000000  0.4808540000000 1.0
C      1  0.5485440000000  0.6922730000000  0.5545690000000 1.0
C      1  0.4468930000000  0.6816150000000  0.5198560000000 1.0
C      1  0.4660660000000  0.6685460000000  0.4069400000000 1.0
C      1  0.5572690000000  0.7242490000000  0.4016250000000 1.0
C      1  0.7450610000000  0.5860550000000  0.4140110000000 1.0
C      1  0.6226270000000  0.5796530000000  0.6992250000000 1.0
C      1  0.3698390000000  0.5829910000000  0.6812410000000 1.0
C      1  0.2812360000000  0.5745640000000  0.4480550000000 1.0
C      1  0.4846230000000  0.6063690000000  0.3176870000000 1.0
C      1  0.4132000000000  0.3952500000000  0.5449020000000 1.0
C      1  0.4190180000000  0.4157570000000  0.4440990000000 1.0
C      1  0.5225800000000  0.4321230000000  0.4286530000000 1.0
C      1  0.5661840000000  0.4032550000000  0.5149970000000 1.0
C      1  0.5000220000000  0.3949410000000  0.5820930000000 1.0
C      1  0.6492940000000  0.4298180000000  0.5478480000000 1.0
C      1  0.5168990000000  0.4392390000000  0.6723120000000 1.0
C      1  0.3277050000000  0.4282380000000  0.5852080000000 1.0
C      1  0.3586710000000  0.4435760000000  0.3552280000000 1.0
C      1  0.5933550000000  0.4429720000000  0.3512970000000 1.0
C      1  0.7017240000000  0.5148140000000  0.3673320000000 1.0
C      1  0.6599860000000  0.5053660000000  0.6555270000000 1.0
C      1  0.4021560000000  0.4916420000000  0.7051940000000 1.0
C      1  0.2660940000000  0.4834020000000  0.4831060000000 1.0
C      1  0.4554320000000  0.5120500000000  0.2992570000000 1.0
C      1  0.5309120000000  0.6236180000000  0.7380110000000 1.0
C      1  0.2859280000000  0.6192360000000  0.6206400000000 1.0
C      1  0.2943370000000  0.6367390000000  0.3589990000000 1.0
C      1  0.5742130000000  0.6327330000000  0.2775420000000 1.0
C      1  0.7334680000000  0.5890440000000  0.5186360000000 1.0
END
