TITL C-3036480-97-531 8.71163056946425e-06 3375 -332.972574579019 0 0 60 (C5) n - 1
REM
REM in /home/bkarasulu/work/CARBON/AIRSS/Generating-Clusters/REBO/Higher-Symm/Only-C60
REM
REM
REM
REM
REM
REM ./C.cell (a2850807a9bf4ad07a5b6933b78d9264)
REM AIRSS Version 0.9.1 bugfix July 2018 build 013d7b7c2542+ Fri, 06 Jul 2018 19:26:36 +0100
REM compiler GCC version 9.2.1 20190827 (Red Hat 9.2.1-1)
REM options -cpp -mtune=generic -march=x86-64 -g -O0 -fpre-include=/usr/include/finclude/math-vector-fortran.h
REM seed 1999543967 132996656 1319095547 -1892021779 -974244959 1817770986 -1151891625 675755884 -1652228328 -1850431729 -1245610025 -425452934 -1941250073 -1393417726 1474705081 2047218484 902273660 -1755729991 2015875172 -1082905008 -769827470 1078425126 1370100212 -403520335 -1064719006 1514050757 -640458645 -1518729258 1257135521 1218269816 1289198183 -1964087610 1844785452
REM
CELL 1.54180   15.00000   15.00000   15.00000   90.00000   90.00000   90.00000
LATT -1
SFAC C  
C      1  0.3712380000000  0.3045590000000  0.6496060000000 1.0
C      1  0.2743340000000  0.5620650000000  0.6496040000000 1.0
C      1  0.4892920000000  0.7337990000000  0.6496070000000 1.0
C      1  0.7190470000000  0.5824310000000  0.6496080000000 1.0
C      1  0.6460850000000  0.3171460000000  0.6496080000000 1.0
C      1  0.6383960000000  0.6277090000000  0.6534640000000 1.0
C      1  0.6642240000000  0.4078410000000  0.6534640000000 1.0
C      1  0.4630990000000  0.3153340000000  0.6534630000000 1.0
C      1  0.3129680000000  0.4780290000000  0.6534610000000 1.0
C      1  0.4213080000000  0.6710870000000  0.6534620000000 1.0
C      1  0.2901100000000  0.3946320000000  0.4344580000000 1.0
C      1  0.3349320000000  0.6670600000000  0.4344580000000 1.0
C      1  0.6078730000000  0.7086170000000  0.4344610000000 1.0
C      1  0.7317390000000  0.4618720000000  0.4344610000000 1.0
C      1  0.5353520000000  0.2678200000000  0.4344600000000 1.0
C      1  0.4589730000000  0.5770360000000  0.6205350000000 1.0
C      1  0.5605870000000  0.5628240000000  0.6205350000000 1.0
C      1  0.5784710000000  0.4617910000000  0.6205350000000 1.0
C      1  0.4879100000000  0.4135620000000  0.6205350000000 1.0
C      1  0.4140560000000  0.4847870000000  0.6205340000000 1.0
C      1  0.4711510000000  0.6106170000000  0.2692920000000 1.0
C      1  0.5962880000000  0.5616390000000  0.2692960000000 1.0
C      1  0.5883610000000  0.4274680000000  0.2692930000000 1.0
C      1  0.4583320000000  0.3935440000000  0.2692940000000 1.0
C      1  0.3858700000000  0.5067250000000  0.2692960000000 1.0
C      1  0.2475790000000  0.4050440000000  0.5293010000000 1.0
C      1  0.3316910000000  0.7107250000000  0.5293020000000 1.0
C      1  0.6484000000000  0.7251910000000  0.5293050000000 1.0
C      1  0.7600260000000  0.4284500000000  0.5293050000000 1.0
C      1  0.5123050000000  0.2305900000000  0.5293040000000 1.0
C      1  0.4962610000000  0.5872080000000  0.4547420000000 1.0
C      1  0.5817850000000  0.5305040000000  0.4547440000000 1.0
C      1  0.5542840000000  0.4316450000000  0.4547430000000 1.0
C      1  0.4517650000000  0.4272500000000  0.4547430000000 1.0
C      1  0.4159040000000  0.5233940000000  0.4547430000000 1.0
C      1  0.2774120000000  0.5000780000000  0.4768040000000 1.0
C      1  0.4312930000000  0.7117200000000  0.4768060000000 1.0
C      1  0.6801240000000  0.6307720000000  0.4768080000000 1.0
C      1  0.6800320000000  0.3691010000000  0.4768070000000 1.0
C      1  0.4311420000000  0.2883290000000  0.4768060000000 1.0
C      1  0.5802980000000  0.7011390000000  0.6005070000000 1.0
C      1  0.7161070000000  0.4857870000000  0.6005070000000 1.0
C      1  0.5532630000000  0.2900770000000  0.6005070000000 1.0
C      1  0.3168100000000  0.3844740000000  0.6005050000000 1.0
C      1  0.3335190000000  0.6385240000000  0.6005050000000 1.0
C      1  0.6096900000000  0.3185510000000  0.4122190000000 1.0
C      1  0.3613290000000  0.3396070000000  0.4122170000000 1.0
C      1  0.3046060000000  0.5823240000000  0.4122180000000 1.0
C      1  0.5179130000000  0.7112690000000  0.4122180000000 1.0
C      1  0.7064660000000  0.5482500000000  0.4122210000000 1.0
C      1  0.3690620000000  0.5309300000000  0.3544350000000 1.0
C      1  0.4889620000000  0.6340870000000  0.3544330000000 1.0
C      1  0.6241130000000  0.5519400000000  0.3544360000000 1.0
C      1  0.5877460000000  0.3980110000000  0.3544340000000 1.0
C      1  0.4301210000000  0.3850310000000  0.3544340000000 1.0
C      1  0.3550450000000  0.5424960000000  0.5446300000000 1.0
C      1  0.4956220000000  0.6509920000000  0.5446310000000 1.0
C      1  0.6422490000000  0.5508230000000  0.5446310000000 1.0
C      1  0.5922920000000  0.3804180000000  0.5446310000000 1.0
C      1  0.4147910000000  0.3752710000000  0.5446300000000 1.0
END
