TITL C-3036481-494-836 0.0173902512461657 3375 -333.329648765005 0 0 60 (Cs) n - 1
REM
REM in /home/bkarasulu/work/CARBON/AIRSS/Generating-Clusters/REBO/Higher-Symm/Only-C60
REM
REM
REM
REM
REM
REM ./C.cell (a2850807a9bf4ad07a5b6933b78d9264)
REM AIRSS Version 0.9.1 bugfix July 2018 build 013d7b7c2542+ Fri, 06 Jul 2018 19:26:36 +0100
REM compiler GCC version 9.2.1 20190827 (Red Hat 9.2.1-1)
REM options -cpp -mtune=generic -march=x86-64 -g -O0 -fpre-include=/usr/include/finclude/math-vector-fortran.h
REM seed -255115945 -272228027 361001697 446340471 -2136799218 -1239698415 38512849 1567209474 1389212440 -838478965 -1354803223 -609655164 -941792369 1408037085 -727112790 172378641 995635791 -373776334 -1758886309 -1497267129 -1828245829 -427264252 -1816648717 -565192746 1916451621 -541259752 -531450644 -1671593058 -689849249 -474141062 -1313194857 1879925145 -2051405167
REM
CELL 1.54180   15.00000   15.00000   15.00000   90.00000   90.00000   90.00000
LATT -1
SFAC C  
C      1  0.3472260000000  0.4420840000000  0.5434640000000 1.0
C      1  0.3472270000000  0.5579200000000  0.5434610000000 1.0
C      1  0.5799880000000  0.6846780000000  0.6415160000000 1.0
C      1  0.5799880000000  0.3153220000000  0.6415150000000 1.0
C      1  0.4984620000000  0.5569510000000  0.4994550000000 1.0
C      1  0.4984620000000  0.4430480000000  0.4994550000000 1.0
C      1  0.5044410000000  0.3716800000000  0.3441610000000 1.0
C      1  0.5044440000000  0.6283170000000  0.3441610000000 1.0
C      1  0.3773090000000  0.3128760000000  0.4158980000000 1.0
C      1  0.3773100000000  0.6871240000000  0.4158970000000 1.0
C      1  0.6333250000000  0.3967220000000  0.3649260000000 1.0
C      1  0.6333290000000  0.6032830000000  0.3649310000000 1.0
C      1  0.5986100000000  0.4485950000000  0.2914220000000 1.0
C      1  0.5986230000000  0.5514150000000  0.2914220000000 1.0
C      1  0.3496850000000  0.5542660000000  0.4387110000000 1.0
C      1  0.3496840000000  0.4457330000000  0.4387120000000 1.0
C      1  0.3919260000000  0.2222270000000  0.5550150000000 1.0
C      1  0.3919260000000  0.7777730000000  0.5550140000000 1.0
C      1  0.4874410000000  0.4445920000000  0.2678640000000 1.0
C      1  0.4874490000000  0.5553940000000  0.2678730000000 1.0
C      1  0.5956570000000  0.4471190000000  0.6345120000000 1.0
C      1  0.5956570000000  0.5528800000000  0.6345130000000 1.0
C      1  0.7064840000000  0.4475640000000  0.5614330000000 1.0
C      1  0.7064840000000  0.5524350000000  0.5614340000000 1.0
C      1  0.4622770000000  0.3771950000000  0.4240040000000 1.0
C      1  0.4622780000000  0.6228060000000  0.4240040000000 1.0
C      1  0.2643080000000  0.4491400000000  0.3619160000000 1.0
C      1  0.2643090000000  0.5508610000000  0.3619140000000 1.0
C      1  0.3340350000000  0.5859300000000  0.7017780000000 1.0
C      1  0.3340350000000  0.4140680000000  0.7017810000000 1.0
C      1  0.3935320000000  0.5556130000000  0.3318560000000 1.0
C      1  0.3935300000000  0.4443860000000  0.3318580000000 1.0
C      1  0.6165230000000  0.3141890000000  0.4242740000000 1.0
C      1  0.6165250000000  0.6858140000000  0.4242740000000 1.0
C      1  0.3213250000000  0.6424610000000  0.3457510000000 1.0
C      1  0.3213230000000  0.3575390000000  0.3457530000000 1.0
C      1  0.6006860000000  0.5781270000000  0.5264020000000 1.0
C      1  0.6006860000000  0.4218720000000  0.5264020000000 1.0
C      1  0.2846150000000  0.5505720000000  0.6299760000000 1.0
C      1  0.2846120000000  0.4494220000000  0.6299800000000 1.0
C      1  0.4287360000000  0.4493930000000  0.7013750000000 1.0
C      1  0.4287360000000  0.5506070000000  0.7013750000000 1.0
C      1  0.5919660000000  0.2772090000000  0.5494780000000 1.0
C      1  0.5919650000000  0.7227920000000  0.5494790000000 1.0
C      1  0.6832050000000  0.3492660000000  0.6138070000000 1.0
C      1  0.6832050000000  0.6507340000000  0.6138070000000 1.0
C      1  0.4325330000000  0.2631540000000  0.4851150000000 1.0
C      1  0.4325330000000  0.7368450000000  0.4851150000000 1.0
C      1  0.4403060000000  0.4169270000000  0.5829990000000 1.0
C      1  0.4403070000000  0.5830740000000  0.5829990000000 1.0
C      1  0.6849090000000  0.6947780000000  0.5090290000000 1.0
C      1  0.6849080000000  0.3052250000000  0.5090280000000 1.0
C      1  0.7016870000000  0.5568640000000  0.6757600000000 1.0
C      1  0.7016870000000  0.4431370000000  0.6757590000000 1.0
C      1  0.6522940000000  0.5462060000000  0.4404540000000 1.0
C      1  0.6522930000000  0.4537940000000  0.4404540000000 1.0
C      1  0.5260430000000  0.2714920000000  0.4736190000000 1.0
C      1  0.5260420000000  0.7285070000000  0.4736190000000 1.0
C      1  0.5104560000000  0.3918300000000  0.6640190000000 1.0
C      1  0.5104560000000  0.6081700000000  0.6640200000000 1.0
END
