TITL C-3036480-97-797 -2.73449617845087e-06 3375 -359.397978659325 0 0 60 (C3i) n - 1
REM
REM in /home/bkarasulu/work/CARBON/AIRSS/Generating-Clusters/REBO/Higher-Symm/Only-C60
REM
REM
REM
REM
REM
REM ./C.cell (a2850807a9bf4ad07a5b6933b78d9264)
REM AIRSS Version 0.9.1 bugfix July 2018 build 013d7b7c2542+ Fri, 06 Jul 2018 19:26:36 +0100
REM compiler GCC version 9.2.1 20190827 (Red Hat 9.2.1-1)
REM options -cpp -mtune=generic -march=x86-64 -g -O0 -fpre-include=/usr/include/finclude/math-vector-fortran.h
REM seed 134387862 -1858015237 59148453 -7057019 -1129782657 -1172159090 -871739660 1808846929 -2024276814 28042497 420576189 1281816376 2095290446 1994897530 -566841934 -1998151872 -406378928 432093381 1301302470 2014425126 -1450376786 -171991140 -655898501 326610151 -1298009452 -850794999 1807378945 -1226669383 -1202827585 -2134739534 1361217811 78621115 -564499234
REM
CELL 1.54180   15.00000   15.00000   15.00000   90.00000   90.00000   90.00000
LATT -1
SFAC C  
C      1  0.5034780000000  0.4358850000000  0.4172290000000 1.0
C      1  0.5572550000000  0.4709950000000  0.5827900000000 1.0
C      1  0.5537540000000  0.5350420000000  0.4171980000000 1.0
C      1  0.4965220000000  0.5641140000000  0.5827710000000 1.0
C      1  0.4427440000000  0.5290050000000  0.4172090000000 1.0
C      1  0.4462450000000  0.4649580000000  0.5828020000000 1.0
C      1  0.6594060000000  0.4943360000000  0.5409660000000 1.0
C      1  0.5846110000000  0.6351980000000  0.4589760000000 1.0
C      1  0.4252170000000  0.6408950000000  0.5409480000000 1.0
C      1  0.3405940000000  0.5056630000000  0.4590340000000 1.0
C      1  0.4153880000000  0.3648020000000  0.5410240000000 1.0
C      1  0.5747830000000  0.3591050000000  0.4590520000000 1.0
C      1  0.6766830000000  0.5222310000000  0.6498560000000 1.0
C      1  0.5691040000000  0.6640540000000  0.3500700000000 1.0
C      1  0.3924620000000  0.6419460000000  0.6498500000000 1.0
C      1  0.3233170000000  0.4777690000000  0.3501430000000 1.0
C      1  0.4308970000000  0.3359460000000  0.6499300000000 1.0
C      1  0.6075380000000  0.3580540000000  0.3501500000000 1.0
C      1  0.3776090000000  0.6368650000000  0.3194710000000 1.0
C      1  0.3202580000000  0.4625270000000  0.6805300000000 1.0
C      1  0.4425990000000  0.3255140000000  0.3195500000000 1.0
C      1  0.6223920000000  0.3631350000000  0.6805290000000 1.0
C      1  0.6797420000000  0.5374730000000  0.3194700000000 1.0
C      1  0.5574010000000  0.6744860000000  0.6804500000000 1.0
C      1  0.4402120000000  0.5726240000000  0.7124270000000 1.0
C      1  0.4072320000000  0.4844300000000  0.2875710000000 1.0
C      1  0.4670800000000  0.4119800000000  0.7124680000000 1.0
C      1  0.5597890000000  0.4273760000000  0.2875730000000 1.0
C      1  0.5927680000000  0.5155710000000  0.7124290000000 1.0
C      1  0.5329210000000  0.5880210000000  0.2875310000000 1.0
C      1  0.6671040000000  0.6207740000000  0.3838280000000 1.0
C      1  0.4789470000000  0.7051600000000  0.6160700000000 1.0
C      1  0.3118110000000  0.5842910000000  0.3838700000000 1.0
C      1  0.3328960000000  0.3792260000000  0.6161730000000 1.0
C      1  0.5210530000000  0.2948400000000  0.3839300000000 1.0
C      1  0.6881890000000  0.4157090000000  0.6161300000000 1.0
C      1  0.5606590000000  0.4258470000000  0.7192080000000 1.0
C      1  0.5945690000000  0.5153480000000  0.2807940000000 1.0
C      1  0.5339710000000  0.5896810000000  0.7191660000000 1.0
C      1  0.4393410000000  0.5741530000000  0.2807920000000 1.0
C      1  0.4054310000000  0.4846520000000  0.7192060000000 1.0
C      1  0.4660290000000  0.4103190000000  0.2808340000000 1.0
C      1  0.6028350000000  0.3739810000000  0.5499540000000 1.0
C      1  0.6605580000000  0.5260240000000  0.4500490000000 1.0
C      1  0.5577370000000  0.6520840000000  0.5498820000000 1.0
C      1  0.3971640000000  0.6260190000000  0.4500460000000 1.0
C      1  0.3394410000000  0.4739760000000  0.5499510000000 1.0
C      1  0.4422630000000  0.3479160000000  0.4501180000000 1.0
C      1  0.3597940000000  0.3229570000000  0.3758480000000 1.0
C      1  0.5832080000000  0.2901170000000  0.6242630000000 1.0
C      1  0.7233800000000  0.4670580000000  0.3757750000000 1.0
C      1  0.6402060000000  0.6770430000000  0.6241510000000 1.0
C      1  0.4167920000000  0.7098820000000  0.3757380000000 1.0
C      1  0.2766200000000  0.5329420000000  0.6242250000000 1.0
C      1  0.7073140000000  0.6194840000000  0.6444300000000 1.0
C      1  0.5001960000000  0.7392100000000  0.3554520000000 1.0
C      1  0.2929220000000  0.6198450000000  0.6444700000000 1.0
C      1  0.2926860000000  0.3805170000000  0.3555690000000 1.0
C      1  0.4998050000000  0.2607900000000  0.6445480000000 1.0
C      1  0.7070780000000  0.3801550000000  0.3555310000000 1.0
END
