TITL C-3036480-97-945 -4.44393650910231e-06 3375 -410.523965835599 0 0 60 (Ih) n - 1
REM
REM in /home/bkarasulu/work/CARBON/AIRSS/Generating-Clusters/REBO/Higher-Symm/Only-C60
REM
REM
REM
REM
REM
REM ./C.cell (a2850807a9bf4ad07a5b6933b78d9264)
REM AIRSS Version 0.9.1 bugfix July 2018 build 013d7b7c2542+ Fri, 06 Jul 2018 19:26:36 +0100
REM compiler GCC version 9.2.1 20190827 (Red Hat 9.2.1-1)
REM options -cpp -mtune=generic -march=x86-64 -g -O0 -fpre-include=/usr/include/finclude/math-vector-fortran.h
REM seed 1306956775 1086983240 -1545555844 292471862 -403689545 1090982398 -427321301 829764824 1167225192 1258516049 -1128984104 -336509838 882092729 674368892 1976713454 411983076 157082241 1639268309 -1175012827 -447453398 -1716835939 1382665962 1576944563 1628046119 -1334268707 -2026299250 -2081985156 -464370396 -1489198210 -164791999 1183909983 647773730 -1773805300
REM
CELL 1.54180   15.00000   15.00000   15.00000   90.00000   90.00000   90.00000
LATT -1
SFAC C  
C      1  0.4208670000000  0.4035310000000  0.2950190000000 1.0
C      1  0.2950040000000  0.4208930000000  0.4035400000000 1.0
C      1  0.4035130000000  0.2950180000000  0.4208900000000 1.0
C      1  0.4208920000000  0.5964820000000  0.7049850000000 1.0
C      1  0.5791240000000  0.5964530000000  0.2950080000000 1.0
C      1  0.5791170000000  0.4035340000000  0.7049890000000 1.0
C      1  0.2950220000000  0.5791420000000  0.5964690000000 1.0
C      1  0.7049920000000  0.5790990000000  0.4035250000000 1.0
C      1  0.7049820000000  0.4208660000000  0.5964660000000 1.0
C      1  0.4035520000000  0.7049980000000  0.5791150000000 1.0
C      1  0.5964830000000  0.7049760000000  0.4208690000000 1.0
C      1  0.5964520000000  0.2950080000000  0.5791260000000 1.0
C      1  0.5791080000000  0.4035180000000  0.2950150000000 1.0
C      1  0.7049780000000  0.4208580000000  0.4035310000000 1.0
C      1  0.5964480000000  0.2950020000000  0.4208850000000 1.0
C      1  0.5791330000000  0.5964690000000  0.7049810000000 1.0
C      1  0.4208830000000  0.5964660000000  0.2950110000000 1.0
C      1  0.4208760000000  0.4035470000000  0.7049920000000 1.0
C      1  0.7049960000000  0.5791070000000  0.5964600000000 1.0
C      1  0.2950180000000  0.5791340000000  0.4035340000000 1.0
C      1  0.2950090000000  0.4209010000000  0.5964750000000 1.0
C      1  0.5964870000000  0.7049820000000  0.5791100000000 1.0
C      1  0.4035480000000  0.7049920000000  0.4208740000000 1.0
C      1  0.4035170000000  0.2950240000000  0.5791310000000 1.0
C      1  0.3439120000000  0.4511210000000  0.6755930000000 1.0
C      1  0.6755740000000  0.3438960000000  0.4511030000000 1.0
C      1  0.4511120000000  0.6755860000000  0.3439070000000 1.0
C      1  0.3439130000000  0.5489060000000  0.3244140000000 1.0
C      1  0.6560960000000  0.5488930000000  0.6755830000000 1.0
C      1  0.6560800000000  0.4510810000000  0.3244100000000 1.0
C      1  0.6756020000000  0.6560750000000  0.5488890000000 1.0
C      1  0.3244240000000  0.6561010000000  0.4510990000000 1.0
C      1  0.3244000000000  0.3439290000000  0.5489090000000 1.0
C      1  0.4510890000000  0.3244220000000  0.6560960000000 1.0
C      1  0.5488810000000  0.3244020000000  0.3439180000000 1.0
C      1  0.5489170000000  0.6755900000000  0.6560800000000 1.0
C      1  0.6560870000000  0.4510940000000  0.6755870000000 1.0
C      1  0.3243980000000  0.3439250000000  0.4511110000000 1.0
C      1  0.5489110000000  0.6755780000000  0.3439040000000 1.0
C      1  0.6560880000000  0.5488790000000  0.3244070000000 1.0
C      1  0.3439200000000  0.5489190000000  0.6755890000000 1.0
C      1  0.3439040000000  0.4511070000000  0.3244170000000 1.0
C      1  0.3244260000000  0.6561050000000  0.5488970000000 1.0
C      1  0.6756000000000  0.6560710000000  0.4510910000000 1.0
C      1  0.6755760000000  0.3438990000000  0.5489010000000 1.0
C      1  0.5488880000000  0.3244140000000  0.6560930000000 1.0
C      1  0.4510830000000  0.3244100000000  0.3439200000000 1.0
C      1  0.4511190000000  0.6755980000000  0.6560820000000 1.0
C      1  0.5000010000000  0.4524410000000  0.7352100000000 1.0
C      1  0.2647930000000  0.5000220000000  0.5475730000000 1.0
C      1  0.2647910000000  0.5000180000000  0.4524370000000 1.0
C      1  0.4999990000000  0.5475590000000  0.2647900000000 1.0
C      1  0.7352090000000  0.4999820000000  0.5475630000000 1.0
C      1  0.7352070000000  0.4999780000000  0.4524270000000 1.0
C      1  0.5000090000000  0.5475770000000  0.7352060000000 1.0
C      1  0.4999910000000  0.4524230000000  0.2647940000000 1.0
C      1  0.5475480000000  0.2647880000000  0.5000080000000 1.0
C      1  0.4524520000000  0.7352120000000  0.4999920000000 1.0
C      1  0.5475880000000  0.7352040000000  0.4999900000000 1.0
C      1  0.4524120000000  0.2647960000000  0.5000100000000 1.0
END
