TITL C-3036479-9801-615 2.65167971437781e-06 3375 -340.785698323881 0 0 60 (C2) n - 1
REM
REM in /home/bkarasulu/work/CARBON/AIRSS/Generating-Clusters/REBO/Higher-Symm/Only-C60
REM
REM
REM
REM
REM
REM ./C.cell (a2850807a9bf4ad07a5b6933b78d9264)
REM AIRSS Version 0.9.1 bugfix July 2018 build 013d7b7c2542+ Fri, 06 Jul 2018 19:26:36 +0100
REM compiler GCC version 9.2.1 20190827 (Red Hat 9.2.1-1)
REM options -cpp -mtune=generic -march=x86-64 -g -O0 -fpre-include=/usr/include/finclude/math-vector-fortran.h
REM seed 30246275 -842096048 1557623588 439529704 -94098198 -1108494733 -20233306 -513869401 1183801890 -218494995 -973139127 1713498972 1469869456 -124878842 -1954319017 -89545909 633477262 973054430 607784020 -1107624570 1123346331 1809214578 -461784940 1436561130 -1955354116 -1623856646 49811954 588428390 -1965888540 1797424263 2073962626 1176629493 -616612517
REM
CELL 1.54180   15.00000   15.00000   15.00000   90.00000   90.00000   90.00000
LATT -1
SFAC C  
C      1  0.6131440000000  0.4411950000000  0.7039610000000 1.0
C      1  0.6131450000000  0.5588050000000  0.2960390000000 1.0
C      1  0.3806090000000  0.4299040000000  0.6951070000000 1.0
C      1  0.3806090000000  0.5700960000000  0.3048930000000 1.0
C      1  0.5806710000000  0.6243880000000  0.5140950000000 1.0
C      1  0.5806710000000  0.3756120000000  0.4859050000000 1.0
C      1  0.4253940000000  0.6392810000000  0.5322260000000 1.0
C      1  0.4253940000000  0.3607190000000  0.4677740000000 1.0
C      1  0.3064280000000  0.4267330000000  0.5684400000000 1.0
C      1  0.3064290000000  0.5732670000000  0.4315600000000 1.0
C      1  0.7024470000000  0.4378800000000  0.5631630000000 1.0
C      1  0.7024470000000  0.5621200000000  0.4368370000000 1.0
C      1  0.3408900000000  0.6583060000000  0.3647570000000 1.0
C      1  0.3408890000000  0.3416940000000  0.6352430000000 1.0
C      1  0.6626240000000  0.6372150000000  0.3606530000000 1.0
C      1  0.6626240000000  0.3627850000000  0.6393470000000 1.0
C      1  0.4480840000000  0.5178800000000  0.7056200000000 1.0
C      1  0.4480840000000  0.4821200000000  0.2943800000000 1.0
C      1  0.5368480000000  0.5217270000000  0.7043610000000 1.0
C      1  0.5368480000000  0.4782730000000  0.2956390000000 1.0
C      1  0.6375830000000  0.4517050000000  0.3217740000000 1.0
C      1  0.6375830000000  0.5482950000000  0.6782260000000 1.0
C      1  0.3447470000000  0.4629520000000  0.3159870000000 1.0
C      1  0.3447470000000  0.5370490000000  0.6840130000000 1.0
C      1  0.5599920000000  0.6568940000000  0.3134630000000 1.0
C      1  0.5599920000000  0.3431060000000  0.6865370000000 1.0
C      1  0.4492830000000  0.6573910000000  0.3284720000000 1.0
C      1  0.4492830000000  0.3426090000000  0.6715280000000 1.0
C      1  0.5507550000000  0.4482130000000  0.4289870000000 1.0
C      1  0.5507550000000  0.5517870000000  0.5710130000000 1.0
C      1  0.4567520000000  0.4423380000000  0.4212890000000 1.0
C      1  0.4567520000000  0.5576620000000  0.5787110000000 1.0
C      1  0.6560020000000  0.6843350000000  0.4598440000000 1.0
C      1  0.6560010000000  0.3156650000000  0.5401560000000 1.0
C      1  0.3497350000000  0.6934110000000  0.4691690000000 1.0
C      1  0.3497350000000  0.3065890000000  0.5308310000000 1.0
C      1  0.6011650000000  0.4726240000000  0.5749820000000 1.0
C      1  0.6011650000000  0.5273760000000  0.4250190000000 1.0
C      1  0.3999180000000  0.4847090000000  0.5752340000000 1.0
C      1  0.3999180000000  0.5152910000000  0.4247660000000 1.0
C      1  0.2949040000000  0.6163370000000  0.5323330000000 1.0
C      1  0.2949030000000  0.3836630000000  0.4676670000000 1.0
C      1  0.7117630000000  0.6165400000000  0.5320920000000 1.0
C      1  0.7117630000000  0.3834590000000  0.4679080000000 1.0
C      1  0.5513250000000  0.7276890000000  0.4737480000000 1.0
C      1  0.5513250000000  0.2723110000000  0.5262520000000 1.0
C      1  0.4566830000000  0.7335950000000  0.4786140000000 1.0
C      1  0.4566820000000  0.2664050000000  0.5213860000000 1.0
C      1  0.4434480000000  0.3926640000000  0.5690000000000 1.0
C      1  0.4434480000000  0.6073360000000  0.4310000000000 1.0
C      1  0.5426420000000  0.3890220000000  0.5893020000000 1.0
C      1  0.5426420000000  0.6109780000000  0.4106980000000 1.0
C      1  0.6884840000000  0.4082220000000  0.3850020000000 1.0
C      1  0.6884840000000  0.5917780000000  0.6149980000000 1.0
C      1  0.3041520000000  0.4153370000000  0.3847720000000 1.0
C      1  0.3041520000000  0.5846630000000  0.6152280000000 1.0
C      1  0.7732670000000  0.5070470000000  0.4136240000000 1.0
C      1  0.7732670000000  0.4929530000000  0.5863760000000 1.0
C      1  0.2302610000000  0.5278420000000  0.4011770000000 1.0
C      1  0.2302610000000  0.4721590000000  0.5988230000000 1.0
END
