TITL C-3036479-9801-1072 -0.00325857627895639 3375 -344.194137589013 0 0 60 (C1) n - 1
REM
REM in /home/bkarasulu/work/CARBON/AIRSS/Generating-Clusters/REBO/Higher-Symm/Only-C60
REM
REM
REM
REM
REM
REM ./C.cell (a2850807a9bf4ad07a5b6933b78d9264)
REM AIRSS Version 0.9.1 bugfix July 2018 build 013d7b7c2542+ Fri, 06 Jul 2018 19:26:36 +0100
REM compiler GCC version 9.2.1 20190827 (Red Hat 9.2.1-1)
REM options -cpp -mtune=generic -march=x86-64 -g -O0 -fpre-include=/usr/include/finclude/math-vector-fortran.h
REM seed 1138687812 1913811133 -589638920 -823491561 -1173923281 -1064721146 -1280000303 -350378958 1756039885 -142236888 -472649668 -86987939 -1936071695 -1718799510 -15451685 200914000 -1588653558 -1054713055 -1950645839 1567506730 -1791299706 735588813 -1396287896 1452304671 2079955167 224198537 -1532961665 -1502011184 -651635106 -1118964924 -1590282682 1120764989 -1495778437
REM
CELL 1.54180   15.00000   15.00000   15.00000   90.00000   90.00000   90.00000
LATT -1
SFAC C  
C      1  0.4843740000000  0.6767720000000  0.3896390000000 1.0
C      1  0.3524620000000  0.5979370000000  0.3888150000000 1.0
C      1  0.3322180000000  0.4455420000000  0.3914580000000 1.0
C      1  0.4392950000000  0.3350430000000  0.3956700000000 1.0
C      1  0.5932800000000  0.3513050000000  0.3980650000000 1.0
C      1  0.6739760000000  0.4774720000000  0.3959670000000 1.0
C      1  0.6274850000000  0.6223810000000  0.3928510000000 1.0
C      1  0.6032150000000  0.7062920000000  0.6019840000000 1.0
C      1  0.4032270000000  0.7087140000000  0.6038940000000 1.0
C      1  0.2764860000000  0.5547600000000  0.6040200000000 1.0
C      1  0.3168730000000  0.3600710000000  0.6024440000000 1.0
C      1  0.4940610000000  0.2697210000000  0.6002840000000 1.0
C      1  0.6730350000000  0.3555000000000  0.5945830000000 1.0
C      1  0.7265110000000  0.5478360000000  0.6003580000000 1.0
C      1  0.2635360000000  0.6175010000000  0.4405010000000 1.0
C      1  0.2597500000000  0.3872520000000  0.4382890000000 1.0
C      1  0.4425520000000  0.2398440000000  0.4358310000000 1.0
C      1  0.6722910000000  0.2966980000000  0.4372850000000 1.0
C      1  0.7667200000000  0.4984380000000  0.4365960000000 1.0
C      1  0.6683020000000  0.7064260000000  0.4384280000000 1.0
C      1  0.4439600000000  0.7587360000000  0.4405860000000 1.0
C      1  0.4446860000000  0.3900700000000  0.4845490000000 1.0
C      1  0.5514800000000  0.3905740000000  0.4859820000000 1.0
C      1  0.6193570000000  0.4752380000000  0.4852450000000 1.0
C      1  0.5959750000000  0.5801960000000  0.4842490000000 1.0
C      1  0.4979670000000  0.6280450000000  0.4830560000000 1.0
C      1  0.3993050000000  0.5801220000000  0.4825950000000 1.0
C      1  0.3763560000000  0.4735200000000  0.4832320000000 1.0
C      1  0.3740610000000  0.5157980000000  0.3139740000000 1.0
C      1  0.4093680000000  0.4097900000000  0.3165450000000 1.0
C      1  0.5143410000000  0.3714120000000  0.3191700000000 1.0
C      1  0.6089110000000  0.4295090000000  0.3173940000000 1.0
C      1  0.6232610000000  0.5398760000000  0.3160890000000 1.0
C      1  0.5459230000000  0.6199010000000  0.3144330000000 1.0
C      1  0.4350400000000  0.6092970000000  0.3133300000000 1.0
C      1  0.2364330000000  0.6050300000000  0.5179020000000 1.0
C      1  0.2529470000000  0.3587800000000  0.5161420000000 1.0
C      1  0.4615160000000  0.2158950000000  0.5135530000000 1.0
C      1  0.7041870000000  0.2979330000000  0.5153260000000 1.0
C      1  0.7857190000000  0.5222100000000  0.5143010000000 1.0
C      1  0.6613340000000  0.7350310000000  0.5162650000000 1.0
C      1  0.4170120000000  0.7718710000000  0.5179820000000 1.0
C      1  0.3221200000000  0.4628480000000  0.5693970000000 1.0
C      1  0.4180590000000  0.3397630000000  0.5693340000000 1.0
C      1  0.5730430000000  0.3385820000000  0.5714920000000 1.0
C      1  0.6777330000000  0.4572720000000  0.5684310000000 1.0
C      1  0.6448900000000  0.6125830000000  0.5683510000000 1.0
C      1  0.5024530000000  0.6833550000000  0.5693000000000 1.0
C      1  0.3587740000000  0.6160740000000  0.5696830000000 1.0
C      1  0.5457020000000  0.6215040000000  0.6555660000000 1.0
C      1  0.4340380000000  0.6102150000000  0.6559100000000 1.0
C      1  0.3721870000000  0.5171910000000  0.6567820000000 1.0
C      1  0.4049720000000  0.4100840000000  0.6582700000000 1.0
C      1  0.5095480000000  0.3669790000000  0.6610500000000 1.0
C      1  0.6041590000000  0.4311100000000  0.6615090000000 1.0
C      1  0.6261120000000  0.5416330000000  0.6561670000000 1.0
C      1  0.5091460000000  0.4922290000000  0.6166550000000 1.0
C      1  0.4980340000000  0.5027880000000  0.4382620000000 1.0
C      1  0.4971670000000  0.5036800000000  0.5298160000000 1.0
C      1  0.5010530000000  0.4999680000000  0.3512180000000 1.0
END
