TITL C-3036481-494-395 6.33660551407939e-06 3375 -335.333764273638 0 0 60 (S10) n - 1
REM
REM in /home/bkarasulu/work/CARBON/AIRSS/Generating-Clusters/REBO/Higher-Symm/Only-C60
REM
REM
REM
REM
REM
REM ./C.cell (a2850807a9bf4ad07a5b6933b78d9264)
REM AIRSS Version 0.9.1 bugfix July 2018 build 013d7b7c2542+ Fri, 06 Jul 2018 19:26:36 +0100
REM compiler GCC version 9.2.1 20190827 (Red Hat 9.2.1-1)
REM options -cpp -mtune=generic -march=x86-64 -g -O0 -fpre-include=/usr/include/finclude/math-vector-fortran.h
REM seed 1356241357 -1908499815 1745012398 1942361205 327676769 1912214045 567250078 813212274 -1367185809 785549582 1243914910 441044103 -1646072619 -413760093 1387849811 1315832245 -939662803 -270669570 -136409273 643291603 2030201370 513515107 -1978888458 1512558841 -1636178887 1922966839 -933751815 -1453348021 1909015069 43303186 1278084312 -1939511388 902796291
REM
CELL 1.54180   15.00000   15.00000   15.00000   90.00000   90.00000   90.00000
LATT -1
SFAC C  
C      1  0.4320940000000  0.6020470000000  0.2731280000000 1.0
C      1  0.3117110000000  0.3979550000000  0.3563690000000 1.0
C      1  0.2632470000000  0.6020460000000  0.4944750000000 1.0
C      1  0.3052150000000  0.3979530000000  0.6346890000000 1.0
C      1  0.4215840000000  0.6020450000000  0.7234580000000 1.0
C      1  0.5679060000000  0.3979530000000  0.7268720000000 1.0
C      1  0.6882890000000  0.6020450000000  0.6436310000000 1.0
C      1  0.7367530000000  0.3979540000000  0.5055250000000 1.0
C      1  0.6947850000000  0.6020470000000  0.3653110000000 1.0
C      1  0.5784160000000  0.3979550000000  0.2765420000000 1.0
C      1  0.6117570000000  0.6792520000000  0.6273160000000 1.0
C      1  0.6652480000000  0.3207470000000  0.5373100000000 1.0
C      1  0.6556190000000  0.6792530000000  0.4330560000000 1.0
C      1  0.5865490000000  0.3207480000000  0.3543690000000 1.0
C      1  0.4844200000000  0.6792530000000  0.3313110000000 1.0
C      1  0.3882430000000  0.3207480000000  0.3726840000000 1.0
C      1  0.3347520000000  0.6792530000000  0.4626900000000 1.0
C      1  0.3443810000000  0.3207470000000  0.5669440000000 1.0
C      1  0.4134510000000  0.6792520000000  0.6456310000000 1.0
C      1  0.5155800000000  0.3207470000000  0.6686890000000 1.0
C      1  0.3183380000000  0.3482710000000  0.4596680000000 1.0
C      1  0.3293270000000  0.6517290000000  0.5741500000000 1.0
C      1  0.4055060000000  0.3482700000000  0.6603070000000 1.0
C      1  0.5177790000000  0.6517290000000  0.6852340000000 1.0
C      1  0.6232610000000  0.3482700000000  0.6394060000000 1.0
C      1  0.6816620000000  0.6517290000000  0.5403320000000 1.0
C      1  0.6706730000000  0.3482710000000  0.4258500000000 1.0
C      1  0.5944940000000  0.6517300000000  0.3396930000000 1.0
C      1  0.4822210000000  0.3482710000000  0.3147660000000 1.0
C      1  0.3767390000000  0.6517300000000  0.3605940000000 1.0
C      1  0.5515420000000  0.6297130000000  0.5584440000000 1.0
C      1  0.5760510000000  0.3702870000000  0.5169850000000 1.0
C      1  0.5715100000000  0.6297130000000  0.4690410000000 1.0
C      1  0.5396550000000  0.3702870000000  0.4329200000000 1.0
C      1  0.4926530000000  0.6297130000000  0.4224230000000 1.0
C      1  0.4484580000000  0.3702870000000  0.4415560000000 1.0
C      1  0.4239490000000  0.6297130000000  0.4830150000000 1.0
C      1  0.4284900000000  0.3702870000000  0.5309590000000 1.0
C      1  0.4603450000000  0.6297130000000  0.5670800000000 1.0
C      1  0.5073470000000  0.3702870000000  0.5775770000000 1.0
C      1  0.7217870000000  0.4701200000000  0.4306630000000 1.0
C      1  0.6386750000000  0.5298810000000  0.3135420000000 1.0
C      1  0.5025930000000  0.4701210000000  0.2676410000000 1.0
C      1  0.3655210000000  0.5298810000000  0.3104940000000 1.0
C      1  0.2798150000000  0.4701200000000  0.4257310000000 1.0
C      1  0.2782130000000  0.5298800000000  0.5693370000000 1.0
C      1  0.3613250000000  0.4701190000000  0.6864580000000 1.0
C      1  0.4974070000000  0.5298790000000  0.7323590000000 1.0
C      1  0.6344790000000  0.4701190000000  0.6895060000000 1.0
C      1  0.7201850000000  0.5298800000000  0.5742690000000 1.0
C      1  0.3404570000000  0.5688160000000  0.6518840000000 1.0
C      1  0.4602020000000  0.4311830000000  0.7166530000000 1.0
C      1  0.5951480000000  0.5688150000000  0.6986690000000 1.0
C      1  0.6937510000000  0.4311830000000  0.6047990000000 1.0
C      1  0.7183470000000  0.5688160000000  0.4709010000000 1.0
C      1  0.6595430000000  0.4311840000000  0.3481160000000 1.0
C      1  0.5397980000000  0.5688170000000  0.2833470000000 1.0
C      1  0.4048520000000  0.4311850000000  0.3013310000000 1.0
C      1  0.3062490000000  0.5688170000000  0.3952010000000 1.0
C      1  0.2816530000000  0.4311840000000  0.5290990000000 1.0
END
