TITL C-3036479-9801-863 0.0239790267181448 3375 -362.561481337777 0 0 60 (C3) n - 1
REM
REM in /home/bkarasulu/work/CARBON/AIRSS/Generating-Clusters/REBO/Higher-Symm/Only-C60
REM
REM
REM
REM
REM
REM ./C.cell (a2850807a9bf4ad07a5b6933b78d9264)
REM AIRSS Version 0.9.1 bugfix July 2018 build 013d7b7c2542+ Fri, 06 Jul 2018 19:26:36 +0100
REM compiler GCC version 9.2.1 20190827 (Red Hat 9.2.1-1)
REM options -cpp -mtune=generic -march=x86-64 -g -O0 -fpre-include=/usr/include/finclude/math-vector-fortran.h
REM seed -699666218 -1849877407 -1479514608 -1552511831 -353356006 934610953 1623863965 120379596 -1808797710 -410578787 1346967969 876141617 1314237953 -924090681 2107591054 -918322615 431624607 1434116321 -631349187 -1676788074 -2042939788 -2012952534 1282467717 131616353 -1993155460 889456549 -1549626272 -1771764693 -1892029348 -160644416 -106906813 -1476329690 219971473
REM
CELL 1.54180   15.00000   15.00000   15.00000   90.00000   90.00000   90.00000
LATT -1
SFAC C  
C      1  0.8071900000000  0.4802080000000  0.5788530000000 1.0
C      1  0.3627250000000  0.7753220000000  0.5790180000000 1.0
C      1  0.3296920000000  0.2438530000000  0.5799210000000 1.0
C      1  0.4834790000000  0.3055060000000  0.3935780000000 1.0
C      1  0.6767650000000  0.5832490000000  0.3950170000000 1.0
C      1  0.3401570000000  0.6112680000000  0.3938070000000 1.0
C      1  0.2943690000000  0.7259290000000  0.4413490000000 1.0
C      1  0.4072910000000  0.2088510000000  0.4424100000000 1.0
C      1  0.7991180000000  0.5649330000000  0.4419470000000 1.0
C      1  0.4433250000000  0.6296350000000  0.5692770000000 1.0
C      1  0.4159960000000  0.3863060000000  0.5688710000000 1.0
C      1  0.6402100000000  0.4846170000000  0.5693280000000 1.0
C      1  0.5873080000000  0.5849890000000  0.4310970000000 1.0
C      1  0.3829830000000  0.5331340000000  0.4309140000000 1.0
C      1  0.5294000000000  0.3819290000000  0.4304720000000 1.0
C      1  0.5291020000000  0.7613350000000  0.5806030000000 1.0
C      1  0.2590890000000  0.3951030000000  0.5817580000000 1.0
C      1  0.7111510000000  0.3445830000000  0.5820340000000 1.0
C      1  0.5286100000000  0.5866250000000  0.6978370000000 1.0
C      1  0.4104590000000  0.4812520000000  0.6976290000000 1.0
C      1  0.5606440000000  0.4316080000000  0.6975030000000 1.0
C      1  0.7230450000000  0.4401660000000  0.5817060000000 1.0
C      1  0.4405850000000  0.7236420000000  0.5811030000000 1.0
C      1  0.3359160000000  0.3370710000000  0.5817850000000 1.0
C      1  0.6679300000000  0.3006560000000  0.5082590000000 1.0
C      1  0.5892770000000  0.7452140000000  0.5073560000000 1.0
C      1  0.2429280000000  0.4547330000000  0.5080660000000 1.0
C      1  0.5148330000000  0.3731040000000  0.5400340000000 1.0
C      1  0.6026140000000  0.5767850000000  0.5406720000000 1.0
C      1  0.3823490000000  0.5507180000000  0.5405370000000 1.0
C      1  0.2523560000000  0.6264300000000  0.4504680000000 1.0
C      1  0.5145940000000  0.2222340000000  0.4507650000000 1.0
C      1  0.7342460000000  0.6513220000000  0.4518130000000 1.0
C      1  0.4385800000000  0.5682120000000  0.7285860000000 1.0
C      1  0.4713060000000  0.4124410000000  0.7283940000000 1.0
C      1  0.5898120000000  0.5186650000000  0.7285790000000 1.0
C      1  0.5516140000000  0.4652310000000  0.2951110000000 1.0
C      1  0.5037960000000  0.5616650000000  0.2952150000000 1.0
C      1  0.4440780000000  0.4719800000000  0.2954300000000 1.0
C      1  0.5454220000000  0.7634770000000  0.4239500000000 1.0
C      1  0.2490090000000  0.4069920000000  0.4250280000000 1.0
C      1  0.7062510000000  0.3298050000000  0.4252940000000 1.0
C      1  0.7321840000000  0.4963210000000  0.3913440000000 1.0
C      1  0.3873240000000  0.7031510000000  0.3900180000000 1.0
C      1  0.3802130000000  0.3002570000000  0.3901890000000 1.0
C      1  0.5212430000000  0.6169390000000  0.3700880000000 1.0
C      1  0.3878950000000  0.4594250000000  0.3706480000000 1.0
C      1  0.5907830000000  0.4230010000000  0.3702310000000 1.0
C      1  0.6849380000000  0.4140800000000  0.3866270000000 1.0
C      1  0.4823170000000  0.7033830000000  0.3857390000000 1.0
C      1  0.3325670000000  0.3825360000000  0.3865180000000 1.0
C      1  0.5725350000000  0.4259610000000  0.6032020000000 1.0
C      1  0.5279130000000  0.6004400000000  0.6036500000000 1.0
C      1  0.3992040000000  0.4740930000000  0.6033460000000 1.0
C      1  0.3567350000000  0.1832940000000  0.5175500000000 1.0
C      1  0.8472680000000  0.5331580000000  0.5163660000000 1.0
C      1  0.2970630000000  0.7827800000000  0.5164180000000 1.0
C      1  0.2760160000000  0.5468170000000  0.5088580000000 1.0
C      1  0.5716470000000  0.2830440000000  0.5087420000000 1.0
C      1  0.6525530000000  0.6705400000000  0.5090940000000 1.0
END
