TITL C-3036482-790-197 0.00350648109127358 3375 -345.066616707128 0 0 60 (C1) n - 1
REM
REM in /home/bkarasulu/work/CARBON/AIRSS/Generating-Clusters/REBO/Higher-Symm/Only-C60
REM
REM
REM
REM
REM
REM ./C.cell (a2850807a9bf4ad07a5b6933b78d9264)
REM AIRSS Version 0.9.1 bugfix July 2018 build 013d7b7c2542+ Fri, 06 Jul 2018 19:26:36 +0100
REM compiler GCC version 9.2.1 20190827 (Red Hat 9.2.1-1)
REM options -cpp -mtune=generic -march=x86-64 -g -O0 -fpre-include=/usr/include/finclude/math-vector-fortran.h
REM seed -1530604975 -705697599 -538329828 1568223807 867270922 -1711966364 2062561324 -543316807 -1005156394 -814951600 -2114867235 1630961530 -1547015247 128226795 -294177354 2115653567 901136973 -1425885530 1305059070 -1131768718 -362695707 632707635 -1391669661 1096298819 -816521749 -543627204 1399952178 -566579340 808320367 2081800834 -898213235 -286792269 -1385590249
REM
CELL 1.54180   15.00000   15.00000   15.00000   90.00000   90.00000   90.00000
LATT -1
SFAC C  
C      1  0.6246680000000  0.5417610000000  0.5613260000000 1.0
C      1  0.4862020000000  0.5408000000000  0.3665180000000 1.0
C      1  0.3999130000000  0.5416770000000  0.5643890000000 1.0
C      1  0.4373780000000  0.3369070000000  0.3166430000000 1.0
C      1  0.3655270000000  0.3152090000000  0.6371410000000 1.0
C      1  0.6852630000000  0.3420930000000  0.5507890000000 1.0
C      1  0.4971490000000  0.5502430000000  0.5963960000000 1.0
C      1  0.5967590000000  0.5421550000000  0.4665590000000 1.0
C      1  0.4176940000000  0.5161760000000  0.4309000000000 1.0
C      1  0.5264130000000  0.3167870000000  0.5953790000000 1.0
C      1  0.5722250000000  0.3210490000000  0.4294420000000 1.0
C      1  0.4139400000000  0.3174730000000  0.4725470000000 1.0
C      1  0.7293110000000  0.4639540000000  0.5212610000000 1.0
C      1  0.3376860000000  0.4613390000000  0.2748400000000 1.0
C      1  0.3806530000000  0.4693070000000  0.7129910000000 1.0
C      1  0.7566460000000  0.3920290000000  0.6038960000000 1.0
C      1  0.4287060000000  0.4164810000000  0.2431250000000 1.0
C      1  0.3084910000000  0.3881730000000  0.6802010000000 1.0
C      1  0.3431700000000  0.3783990000000  0.3361730000000 1.0
C      1  0.4396270000000  0.3942970000000  0.6625740000000 1.0
C      1  0.6454650000000  0.4189710000000  0.4811020000000 1.0
C      1  0.3671360000000  0.6557230000000  0.3866130000000 1.0
C      1  0.4759830000000  0.6586570000000  0.6709290000000 1.0
C      1  0.6565710000000  0.6381860000000  0.4411020000000 1.0
C      1  0.4976880000000  0.4819760000000  0.2486040000000 1.0
C      1  0.2996970000000  0.4746860000000  0.6197710000000 1.0
C      1  0.7119920000000  0.4831330000000  0.6418210000000 1.0
C      1  0.4275430000000  0.7143850000000  0.4342870000000 1.0
C      1  0.4848760000000  0.7138570000000  0.5933020000000 1.0
C      1  0.5898750000000  0.7104530000000  0.4665760000000 1.0
C      1  0.3456000000000  0.4547610000000  0.5246100000000 1.0
C      1  0.6022990000000  0.4593540000000  0.6229920000000 1.0
C      1  0.5566080000000  0.4590390000000  0.3344170000000 1.0
C      1  0.3553370000000  0.5625660000000  0.3226730000000 1.0
C      1  0.4312820000000  0.5646100000000  0.7106510000000 1.0
C      1  0.7288700000000  0.5583370000000  0.4724090000000 1.0
C      1  0.3124150000000  0.4900530000000  0.4009550000000 1.0
C      1  0.5169090000000  0.4889220000000  0.7127260000000 1.0
C      1  0.6887920000000  0.4976540000000  0.3835470000000 1.0
C      1  0.5288740000000  0.6389000000000  0.3315940000000 1.0
C      1  0.3452800000000  0.6367100000000  0.5526060000000 1.0
C      1  0.6332130000000  0.6414770000000  0.6118740000000 1.0
C      1  0.3340410000000  0.3858370000000  0.4421620000000 1.0
C      1  0.5486160000000  0.3820240000000  0.6868230000000 1.0
C      1  0.6388130000000  0.3954110000000  0.3738970000000 1.0
C      1  0.4129220000000  0.7108440000000  0.5304890000000 1.0
C      1  0.5755690000000  0.7117800000000  0.5597530000000 1.0
C      1  0.5175030000000  0.7109370000000  0.4036620000000 1.0
C      1  0.4805960000000  0.3130890000000  0.4013800000000 1.0
C      1  0.4354940000000  0.3040710000000  0.5648640000000 1.0
C      1  0.5931140000000  0.3061530000000  0.5265190000000 1.0
C      1  0.5446980000000  0.4525480000000  0.4469640000000 1.0
C      1  0.4544250000000  0.4422010000000  0.4944720000000 1.0
C      1  0.4953080000000  0.4458550000000  0.5854820000000 1.0
C      1  0.3360590000000  0.5767560000000  0.6489560000000 1.0
C      1  0.7254780000000  0.5805550000000  0.5845060000000 1.0
C      1  0.4531640000000  0.5827180000000  0.2684220000000 1.0
C      1  0.3308700000000  0.5842050000000  0.4589050000000 1.0
C      1  0.5600840000000  0.5870380000000  0.6750710000000 1.0
C      1  0.6135170000000  0.5792600000000  0.3594280000000 1.0
END
