TITL C-3036481-494-499 -0.012588889950298 3375 -319.506071878152 0 0 60 (D2d) n - 1
REM
REM in /home/bkarasulu/work/CARBON/AIRSS/Generating-Clusters/REBO/Higher-Symm/Only-C60
REM
REM
REM
REM
REM
REM ./C.cell (a2850807a9bf4ad07a5b6933b78d9264)
REM AIRSS Version 0.9.1 bugfix July 2018 build 013d7b7c2542+ Fri, 06 Jul 2018 19:26:36 +0100
REM compiler GCC version 9.2.1 20190827 (Red Hat 9.2.1-1)
REM options -cpp -mtune=generic -march=x86-64 -g -O0 -fpre-include=/usr/include/finclude/math-vector-fortran.h
REM seed 1585791556 1828685491 1185618515 -291662058 376594563 1458779979 -424547585 -172074045 -502187759 1933142263 -1838318834 1493009888 -649416442 1946952884 -1417121323 1878214845 1198616053 -520105309 -1621109765 -608552783 1757950048 -493321200 -1707579442 1721572164 1229385483 -1224934691 -502782668 -1221792637 1462607587 301279183 -2014373046 -2048830035 1497742439
REM
CELL 1.54180   15.00000   15.00000   15.00000   90.00000   90.00000   90.00000
LATT -1
SFAC C  
C      1  0.7045490000000  0.6534350000000  0.5672350000000 1.0
C      1  0.7045460000000  0.3465690000000  0.4327600000000 1.0
C      1  0.2954530000000  0.6534370000000  0.4327650000000 1.0
C      1  0.2954530000000  0.3465630000000  0.5672340000000 1.0
C      1  0.7045490000000  0.5672350000000  0.6534350000000 1.0
C      1  0.7045460000000  0.4327610000000  0.3465690000000 1.0
C      1  0.2954530000000  0.4327650000000  0.6534370000000 1.0
C      1  0.2954530000000  0.5672350000000  0.3465630000000 1.0
C      1  0.4808380000000  0.5826780000000  0.3123970000000 1.0
C      1  0.4808390000000  0.4173220000000  0.6876040000000 1.0
C      1  0.5191620000000  0.5826770000000  0.6876040000000 1.0
C      1  0.5191640000000  0.4173250000000  0.3123950000000 1.0
C      1  0.4808390000000  0.3123970000000  0.5826780000000 1.0
C      1  0.4808390000000  0.6876040000000  0.4173220000000 1.0
C      1  0.5191620000000  0.6876040000000  0.5826770000000 1.0
C      1  0.5191630000000  0.3123950000000  0.4173250000000 1.0
C      1  0.6220650000000  0.4048520000000  0.4803180000000 1.0
C      1  0.6220660000000  0.5951480000000  0.5196820000000 1.0
C      1  0.3779360000000  0.4048520000000  0.5196820000000 1.0
C      1  0.3779360000000  0.5951490000000  0.4803180000000 1.0
C      1  0.6220650000000  0.4803170000000  0.4048520000000 1.0
C      1  0.6220650000000  0.5196820000000  0.5951480000000 1.0
C      1  0.3779360000000  0.5196820000000  0.4048510000000 1.0
C      1  0.3779360000000  0.4803180000000  0.5951480000000 1.0
C      1  0.3861580000000  0.6081320000000  0.7234700000000 1.0
C      1  0.3861580000000  0.3918670000000  0.2765310000000 1.0
C      1  0.6138430000000  0.6081330000000  0.2765300000000 1.0
C      1  0.6138420000000  0.3918680000000  0.7234700000000 1.0
C      1  0.3861580000000  0.7234700000000  0.6081320000000 1.0
C      1  0.3861580000000  0.2765310000000  0.3918670000000 1.0
C      1  0.6138430000000  0.2765300000000  0.6081330000000 1.0
C      1  0.6138420000000  0.7234700000000  0.3918680000000 1.0
C      1  0.2740090000000  0.4827510000000  0.4200340000000 1.0
C      1  0.2740100000000  0.5172510000000  0.5799670000000 1.0
C      1  0.7259850000000  0.4827390000000  0.5799760000000 1.0
C      1  0.7259950000000  0.5172420000000  0.4200430000000 1.0
C      1  0.2740100000000  0.4200330000000  0.4827490000000 1.0
C      1  0.2740090000000  0.5799650000000  0.5172490000000 1.0
C      1  0.7259850000000  0.5799760000000  0.4827380000000 1.0
C      1  0.7259950000000  0.4200430000000  0.5172410000000 1.0
C      1  0.6090240000000  0.6154300000000  0.6863160000000 1.0
C      1  0.6090240000000  0.3845710000000  0.3136840000000 1.0
C      1  0.3909760000000  0.6154290000000  0.3136840000000 1.0
C      1  0.3909760000000  0.3845710000000  0.6863170000000 1.0
C      1  0.6090240000000  0.6863160000000  0.6154300000000 1.0
C      1  0.6090240000000  0.3136840000000  0.3845710000000 1.0
C      1  0.3909750000000  0.3136840000000  0.6154290000000 1.0
C      1  0.3909760000000  0.6863170000000  0.3845710000000 1.0
C      1  0.5418580000000  0.3940980000000  0.5328660000000 1.0
C      1  0.5418590000000  0.6059010000000  0.4671330000000 1.0
C      1  0.4581410000000  0.3941000000000  0.4671380000000 1.0
C      1  0.4581410000000  0.6059000000000  0.5328650000000 1.0
C      1  0.5418580000000  0.5328660000000  0.3940990000000 1.0
C      1  0.5418590000000  0.4671330000000  0.6059010000000 1.0
C      1  0.4581410000000  0.4671370000000  0.3941000000000 1.0
C      1  0.4581410000000  0.5328650000000  0.6059000000000 1.0
C      1  0.5627320000000  0.3450200000000  0.6549790000000 1.0
C      1  0.5627330000000  0.6549800000000  0.3450190000000 1.0
C      1  0.4372590000000  0.3450140000000  0.3450140000000 1.0
C      1  0.4372640000000  0.6549840000000  0.6549840000000 1.0
END
