TITL C-3036486-2224-131 -1.4416003247442e-05 3375 -350.67955870973 0 0 60 (C3h) n - 1
REM
REM in /home/bkarasulu/work/CARBON/AIRSS/Generating-Clusters/REBO/Higher-Symm/Only-C60
REM
REM
REM
REM
REM
REM ./C.cell (a2850807a9bf4ad07a5b6933b78d9264)
REM AIRSS Version 0.9.1 bugfix July 2018 build 013d7b7c2542+ Fri, 06 Jul 2018 19:26:36 +0100
REM compiler GCC version 9.2.1 20190827 (Red Hat 9.2.1-1)
REM options -cpp -mtune=generic -march=x86-64 -g -O0 -fpre-include=/usr/include/finclude/math-vector-fortran.h
REM seed -680428701 -1830094561 1993383040 -1480233184 -565312025 1666537188 -1657463100 -1636839577 717070696 -806015285 -579836345 1581644125 498817546 -449582559 590144394 -840784035 -2135448233 -952191735 -1884556748 -42783627 -1110907810 1263014138 1841046665 -1132792659 35514764 1730475555 -780766987 1738903005 -1788492699 -2050581467 -522484448 1298242437 1031315638
REM
CELL 1.54180   15.00000   15.00000   15.00000   90.00000   90.00000   90.00000
LATT -1
SFAC C  
C      1  0.4982690000000  0.4014580000000  0.5525840000000 1.0
C      1  0.4155260000000  0.5507700000000  0.5525840000000 1.0
C      1  0.5862050000000  0.5477720000000  0.5525840000000 1.0
C      1  0.4982690000000  0.4014580000000  0.4474160000000 1.0
C      1  0.4155260000000  0.5507700000000  0.4474160000000 1.0
C      1  0.5862050000000  0.5477720000000  0.4474160000000 1.0
C      1  0.5804270000000  0.4454780000000  0.7082800000000 1.0
C      1  0.4125690000000  0.4576090000000  0.7082800000000 1.0
C      1  0.5070040000000  0.5969130000000  0.7082800000000 1.0
C      1  0.5804270000000  0.4454780000000  0.2917200000000 1.0
C      1  0.4125690000000  0.4576090000000  0.2917200000000 1.0
C      1  0.5070040000000  0.5969130000000  0.2917200000000 1.0
C      1  0.6812750000000  0.6096580000000  0.4473970000000 1.0
C      1  0.5043290000000  0.2881820000000  0.4473970000000 1.0
C      1  0.3143960000000  0.6021600000000  0.4473970000000 1.0
C      1  0.6812750000000  0.6096580000000  0.5526030000000 1.0
C      1  0.5043290000000  0.2881820000000  0.5526030000000 1.0
C      1  0.3143960000000  0.6021600000000  0.5526030000000 1.0
C      1  0.4160370000000  0.4497800000000  0.5760890000000 1.0
C      1  0.4984890000000  0.5978250000000  0.5760890000000 1.0
C      1  0.5854740000000  0.4523960000000  0.5760890000000 1.0
C      1  0.4160370000000  0.4497800000000  0.4239110000000 1.0
C      1  0.4984890000000  0.5978250000000  0.4239110000000 1.0
C      1  0.5854740000000  0.4523960000000  0.4239110000000 1.0
C      1  0.4827770000000  0.3228910000000  0.6590330000000 1.0
C      1  0.3552310000000  0.6034700000000  0.6590330000000 1.0
C      1  0.6619920000000  0.5736390000000  0.6590330000000 1.0
C      1  0.4827770000000  0.3228910000000  0.3409670000000 1.0
C      1  0.3552310000000  0.6034700000000  0.3409670000000 1.0
C      1  0.6619920000000  0.5736390000000  0.3409670000000 1.0
C      1  0.5722630000000  0.6849240000000  0.4533600000000 1.0
C      1  0.6240180000000  0.3449570000000  0.4533600000000 1.0
C      1  0.3037200000000  0.4701190000000  0.4533600000000 1.0
C      1  0.5722630000000  0.6849240000000  0.5466400000000 1.0
C      1  0.6240180000000  0.3449570000000  0.5466400000000 1.0
C      1  0.3037200000000  0.4701190000000  0.5466400000000 1.0
C      1  0.4203200000000  0.5537200000000  0.7061910000000 1.0
C      1  0.5863620000000  0.5421450000000  0.7061910000000 1.0
C      1  0.4933170000000  0.4041360000000  0.7061910000000 1.0
C      1  0.4203200000000  0.5537200000000  0.2938090000000 1.0
C      1  0.5863620000000  0.5421450000000  0.2938090000000 1.0
C      1  0.4933170000000  0.4041360000000  0.2938090000000 1.0
C      1  0.4443340000000  0.7195100000000  0.4515960000000 1.0
C      1  0.7179350000000  0.4384530000000  0.4515960000000 1.0
C      1  0.3377320000000  0.3420360000000  0.4515960000000 1.0
C      1  0.4443340000000  0.7195100000000  0.5484040000000 1.0
C      1  0.7179350000000  0.4384530000000  0.5484040000000 1.0
C      1  0.3377320000000  0.3420360000000  0.5484040000000 1.0
C      1  0.7332170000000  0.5226880000000  0.4038740000000 1.0
C      1  0.4030400000000  0.2866850000000  0.4038740000000 1.0
C      1  0.3637430000000  0.6906270000000  0.4038740000000 1.0
C      1  0.7332170000000  0.5226880000000  0.5961260000000 1.0
C      1  0.4030400000000  0.2866850000000  0.5961260000000 1.0
C      1  0.3637430000000  0.6906270000000  0.5961260000000 1.0
C      1  0.6585110000000  0.4001130000000  0.3603820000000 1.0
C      1  0.3342400000000  0.4126690000000  0.3603820000000 1.0
C      1  0.5072490000000  0.6872180000000  0.3603820000000 1.0
C      1  0.6585110000000  0.4001130000000  0.6396180000000 1.0
C      1  0.3342400000000  0.4126690000000  0.6396180000000 1.0
C      1  0.5072490000000  0.6872180000000  0.6396180000000 1.0
END
