TITL C-3036485-3770-1052 0.165108054465025 3375 -329.960891984881 0 0 60 (D2) n - 1
REM
REM in /home/bkarasulu/work/CARBON/AIRSS/Generating-Clusters/REBO/Higher-Symm/Only-C60
REM
REM
REM
REM
REM
REM ./C.cell (a2850807a9bf4ad07a5b6933b78d9264)
REM AIRSS Version 0.9.1 bugfix July 2018 build 013d7b7c2542+ Fri, 06 Jul 2018 19:26:36 +0100
REM compiler GCC version 9.2.1 20190827 (Red Hat 9.2.1-1)
REM options -cpp -mtune=generic -march=x86-64 -g -O0 -fpre-include=/usr/include/finclude/math-vector-fortran.h
REM seed 1008016352 -1407386597 -895613320 -1361995964 885151915 -1802800979 -1828550495 -1747664526 -992416567 -2061658442 1664899228 398505248 302684654 -737610846 796168788 1049146371 -395798866 -1475162402 -42943658 -1785997587 11817253 -1031541623 -1005484450 -1017537852 1633525982 402102663 420479795 743167297 939125099 -1374941577 -829650586 -723465651 1144012766
REM
CELL 1.54180   15.00000   15.00000   15.00000   90.00000   90.00000   90.00000
LATT -1
SFAC C  
C      1  0.3373490000000  0.3738310000000  0.6727420000000 1.0
C      1  0.3373470000000  0.6261690000000  0.3272570000000 1.0
C      1  0.6626510000000  0.6261690000000  0.6727420000000 1.0
C      1  0.6626530000000  0.3738310000000  0.3272570000000 1.0
C      1  0.5780830000000  0.6306710000000  0.6098370000000 1.0
C      1  0.5780830000000  0.3693300000000  0.3901620000000 1.0
C      1  0.4219170000000  0.3693290000000  0.6098370000000 1.0
C      1  0.4219170000000  0.6306700000000  0.3901620000000 1.0
C      1  0.3935720000000  0.3547530000000  0.5110800000000 1.0
C      1  0.3935840000000  0.6452520000000  0.4889360000000 1.0
C      1  0.6064260000000  0.6452480000000  0.5110790000000 1.0
C      1  0.6064170000000  0.3547480000000  0.4889350000000 1.0
C      1  0.7074290000000  0.3384170000000  0.5188340000000 1.0
C      1  0.7074320000000  0.6615910000000  0.4811600000000 1.0
C      1  0.2925720000000  0.6615830000000  0.5188340000000 1.0
C      1  0.2925680000000  0.3384100000000  0.4811610000000 1.0
C      1  0.2495310000000  0.4214410000000  0.4518560000000 1.0
C      1  0.2495320000000  0.5785570000000  0.5481460000000 1.0
C      1  0.7504700000000  0.5785600000000  0.4518560000000 1.0
C      1  0.7504670000000  0.4214430000000  0.5481460000000 1.0
C      1  0.5021900000000  0.3056310000000  0.3583680000000 1.0
C      1  0.5021900000000  0.6943690000000  0.6416310000000 1.0
C      1  0.4978100000000  0.6943690000000  0.3583680000000 1.0
C      1  0.4978100000000  0.3056310000000  0.6416310000000 1.0
C      1  0.3781980000000  0.5475300000000  0.5463680000000 1.0
C      1  0.3782020000000  0.4524840000000  0.4536230000000 1.0
C      1  0.6218040000000  0.4524710000000  0.5463700000000 1.0
C      1  0.6217980000000  0.5475170000000  0.4536230000000 1.0
C      1  0.5367040000000  0.5384200000000  0.6132560000000 1.0
C      1  0.5367040000000  0.4615800000000  0.3867440000000 1.0
C      1  0.4632960000000  0.4615800000000  0.6132560000000 1.0
C      1  0.4632960000000  0.5384200000000  0.3867440000000 1.0
C      1  0.5531000000000  0.4875480000000  0.7070780000000 1.0
C      1  0.5531010000000  0.5124520000000  0.2929220000000 1.0
C      1  0.4469000000000  0.5124520000000  0.7070780000000 1.0
C      1  0.4468990000000  0.4875480000000  0.2929220000000 1.0
C      1  0.7202300000000  0.4409320000000  0.3563270000000 1.0
C      1  0.7202300000000  0.5590650000000  0.6436720000000 1.0
C      1  0.2797700000000  0.5590680000000  0.3563270000000 1.0
C      1  0.2797700000000  0.4409350000000  0.6436730000000 1.0
C      1  0.6173270000000  0.5782630000000  0.3459790000000 1.0
C      1  0.6173250000000  0.4217370000000  0.6540220000000 1.0
C      1  0.3826730000000  0.4217370000000  0.3459790000000 1.0
C      1  0.3826750000000  0.5782630000000  0.6540220000000 1.0
C      1  0.5766020000000  0.3271730000000  0.6597270000000 1.0
C      1  0.5766010000000  0.6728280000000  0.3402720000000 1.0
C      1  0.4233980000000  0.6728270000000  0.6597270000000 1.0
C      1  0.4233990000000  0.3271720000000  0.3402720000000 1.0
C      1  0.4593930000000  0.7215410000000  0.5087190000000 1.0
C      1  0.4593940000000  0.2784580000000  0.4912810000000 1.0
C      1  0.5406070000000  0.2784590000000  0.5087200000000 1.0
C      1  0.5406060000000  0.7215420000000  0.4912810000000 1.0
C      1  0.2797190000000  0.4551860000000  0.3644300000000 1.0
C      1  0.2797240000000  0.5448050000000  0.6355570000000 1.0
C      1  0.7202810000000  0.5448130000000  0.3644300000000 1.0
C      1  0.7202750000000  0.4551970000000  0.6355540000000 1.0
C      1  0.3107200000000  0.4531780000000  0.5448850000000 1.0
C      1  0.3107140000000  0.5468200000000  0.4551260000000 1.0
C      1  0.6892810000000  0.5468160000000  0.5448880000000 1.0
C      1  0.6892860000000  0.4531800000000  0.4551260000000 1.0
END
