TITL C-3036480-97-2 0.0506108945522952 3375 -357.309346236366 0 0 60 (C1) n - 1
REM
REM in /home/bkarasulu/work/CARBON/AIRSS/Generating-Clusters/REBO/Higher-Symm/Only-C60
REM
REM
REM
REM
REM
REM ./C.cell (a2850807a9bf4ad07a5b6933b78d9264)
REM AIRSS Version 0.9.1 bugfix July 2018 build 013d7b7c2542+ Fri, 06 Jul 2018 19:26:36 +0100
REM compiler GCC version 9.2.1 20190827 (Red Hat 9.2.1-1)
REM options -cpp -mtune=generic -march=x86-64 -g -O0 -fpre-include=/usr/include/finclude/math-vector-fortran.h
REM seed 611985173 2034828665 -1423151333 -279649968 -241933425 -97856883 -2099248614 1177575555 -1378021895 -1188385325 -1592375592 812920321 -1816218986 -1507212716 309795082 54857875 1305455579 -213024022 -1536667855 -497904173 1787830643 -1678687028 472644128 -1073808716 1839388162 2097448988 1806808458 -861501902 -1491363922 36978423 1834752505 -1894439797 509267398
REM
CELL 1.54180   15.00000   15.00000   15.00000   90.00000   90.00000   90.00000
LATT -1
SFAC C  
C      1  0.3043860000000  0.4514490000000  0.6943400000000 1.0
C      1  0.3048800000000  0.5482300000000  0.3055920000000 1.0
C      1  0.3022340000000  0.5493050000000  0.6942150000000 1.0
C      1  0.3018300000000  0.4504100000000  0.3057640000000 1.0
C      1  0.3135370000000  0.5855080000000  0.6062210000000 1.0
C      1  0.3134500000000  0.4143950000000  0.3938170000000 1.0
C      1  0.3126430000000  0.4150140000000  0.6060080000000 1.0
C      1  0.3127290000000  0.5848750000000  0.3938480000000 1.0
C      1  0.6421260000000  0.3193420000000  0.5991150000000 1.0
C      1  0.6423880000000  0.6812110000000  0.4007770000000 1.0
C      1  0.6409050000000  0.6792640000000  0.6009270000000 1.0
C      1  0.6406040000000  0.3212880000000  0.3990630000000 1.0
C      1  0.5674660000000  0.4467960000000  0.4487780000000 1.0
C      1  0.5681850000000  0.5530840000000  0.5514030000000 1.0
C      1  0.5691580000000  0.5564440000000  0.4443940000000 1.0
C      1  0.5684250000000  0.4433590000000  0.5553250000000 1.0
C      1  0.3977730000000  0.4446480000000  0.5538130000000 1.0
C      1  0.3978460000000  0.5555380000000  0.4462530000000 1.0
C      1  0.3984640000000  0.5541880000000  0.5545490000000 1.0
C      1  0.3983290000000  0.4459940000000  0.4453990000000 1.0
C      1  0.5165310000000  0.4476420000000  0.3086780000000 1.0
C      1  0.5166040000000  0.5513110000000  0.6918710000000 1.0
C      1  0.5228970000000  0.5606450000000  0.3148830000000 1.0
C      1  0.5223150000000  0.4385740000000  0.6853160000000 1.0
C      1  0.6050170000000  0.6055670000000  0.6680620000000 1.0
C      1  0.6046990000000  0.3945590000000  0.3320870000000 1.0
C      1  0.6116070000000  0.3914870000000  0.6700540000000 1.0
C      1  0.6121020000000  0.6086730000000  0.3297650000000 1.0
C      1  0.4835410000000  0.6987210000000  0.4155570000000 1.0
C      1  0.4833750000000  0.3015120000000  0.5844480000000 1.0
C      1  0.4839560000000  0.3039950000000  0.4138010000000 1.0
C      1  0.4841820000000  0.6962900000000  0.5861670000000 1.0
C      1  0.7203560000000  0.6391540000000  0.4548770000000 1.0
C      1  0.7198280000000  0.3615960000000  0.5450270000000 1.0
C      1  0.7189910000000  0.3628100000000  0.4521150000000 1.0
C      1  0.7195210000000  0.6379450000000  0.5478150000000 1.0
C      1  0.4526110000000  0.5404090000000  0.2381280000000 1.0
C      1  0.4522960000000  0.4585550000000  0.7615270000000 1.0
C      1  0.4443530000000  0.4405160000000  0.2278180000000 1.0
C      1  0.4447920000000  0.5578570000000  0.7724730000000 1.0
C      1  0.3668750000000  0.4155550000000  0.7580890000000 1.0
C      1  0.3677490000000  0.5837440000000  0.2421570000000 1.0
C      1  0.3565100000000  0.5901180000000  0.7623340000000 1.0
C      1  0.3554910000000  0.4090710000000  0.2374110000000 1.0
C      1  0.6716350000000  0.4498300000000  0.4042130000000 1.0
C      1  0.6724940000000  0.5509450000000  0.5958590000000 1.0
C      1  0.6752910000000  0.5531020000000  0.4035290000000 1.0
C      1  0.6743840000000  0.4475930000000  0.5962930000000 1.0
C      1  0.5704520000000  0.2789120000000  0.4499840000000 1.0
C      1  0.5706560000000  0.7214150000000  0.5499500000000 1.0
C      1  0.5707040000000  0.7220140000000  0.4514050000000 1.0
C      1  0.5705250000000  0.2782760000000  0.5485400000000 1.0
C      1  0.4800350000000  0.4021550000000  0.5945050000000 1.0
C      1  0.4802260000000  0.5979860000000  0.4055760000000 1.0
C      1  0.4827640000000  0.5945440000000  0.5958880000000 1.0
C      1  0.4824670000000  0.4056000000000  0.4041910000000 1.0
C      1  0.4088340000000  0.7393190000000  0.5477310000000 1.0
C      1  0.4085860000000  0.2611900000000  0.4522860000000 1.0
C      1  0.4085890000000  0.2592950000000  0.5446700000000 1.0
C      1  0.4088000000000  0.7411760000000  0.4553160000000 1.0
END
